MODEL 1
REMARK VINA RESULT:    -8.131      0.000      0.000
REMARK INTER + INTRA:         -11.766
REMARK INTER:                 -10.983
REMARK INTRA:                  -0.783
REMARK UNBOUND:                -0.783
REMARK  Name = 
REMARK  6 active torsions:
REMARK  status: ('A' for Active; 'I' for Inactive)
REMARK    1  A    between atoms: C_2  and  C_25
REMARK    2  A    between atoms: N_3  and  C_4
REMARK    3  A    between atoms: C_4  and  C_5
REMARK    4  A    between atoms: C_8  and  C_9
REMARK    5  A    between atoms: C_9  and  N_10
REMARK    6  A    between atoms: C_11  and  C_13
REMARK                            x       y       z     vdW  Elec       q    Type
REMARK                         _______ _______ _______ _____ _____    ______ ____
ROOT
ATOM      1  C   UNL     1      44.689   5.656  11.316  0.00  0.00    +0.000 A 
ATOM      2  C   UNL     1      45.698   5.030  12.060  0.00  0.00    +0.000 A 
ATOM      3  C   UNL     1      46.590   5.783  12.836  0.00  0.00    +0.000 A 
ATOM      4  C   UNL     1      46.480   7.179  12.901  0.00  0.00    +0.000 A 
ATOM      5  C   UNL     1      45.462   7.802  12.168  0.00  0.00    +0.000 A 
ATOM      6  C   UNL     1      44.571   7.050  11.393  0.00  0.00    +0.000 A 
ENDROOT
BRANCH   1   7
ATOM      7  C   UNL     1      43.805   4.855  10.400  0.00  0.00    +0.000 C 
BRANCH   7  10
ATOM      8  O   UNL     1      45.690   5.137   8.392  0.00  0.00    +0.000 OA
ATOM      9  C   UNL     1      45.398   4.002   8.762  0.00  0.00    +0.000 C 
ATOM     10  N   UNL     1      44.457   3.748   9.743  0.00  0.00    +0.000 N 
ATOM     11  H   UNL     1      44.289   2.787  10.024  0.00  0.00    +0.000 HD
BRANCH   9  12
ATOM     12  C   UNL     1      46.074   2.822   8.157  0.00  0.00    +0.000 A 
ATOM     13  C   UNL     1      45.712   1.546   8.574  0.00  0.00    +0.000 A 
ATOM     14  N   UNL     1      46.283   0.424   8.065  0.00  0.00    +0.000 NA
ATOM     15  C   UNL     1      47.231   0.638   7.126  0.00  0.00    +0.000 A 
ATOM     16  C   UNL     1      47.595   1.912   6.711  0.00  0.00    +0.000 A 
ATOM     17  N   UNL     1      47.028   3.041   7.208  0.00  0.00    +0.000 NA
ENDBRANCH   9  12
ENDBRANCH   7  10
ENDBRANCH   1   7
BRANCH   4  18
ATOM     18  C   UNL     1      47.421   7.994  13.754  0.00  0.00    +0.000 C 
BRANCH  18  19
ATOM     19  N   UNL     1      47.808   7.331  14.975  0.00  0.00    +0.000 N 
ATOM     20  C   UNL     1      49.113   6.926  15.184  0.00  0.00    +0.000 C 
ATOM     21  O   UNL     1      49.993   7.088  14.344  0.00  0.00    +0.000 OA
ATOM     22  H   UNL     1      47.144   7.147  15.720  0.00  0.00    +0.000 HD
BRANCH  20  23
ATOM     23  C   UNL     1      49.347   6.303  16.500  0.00  0.00    +0.000 A 
ATOM     24  N   UNL     1      50.303   6.783  17.336  0.00  0.00    +0.000 NA
ATOM     25  N   UNL     1      50.254   5.962  18.407  0.00  0.00    +0.000 N 
ATOM     26  C   UNL     1      49.308   4.991  18.301  0.00  0.00    +0.000 A 
ATOM     27  N   UNL     1      49.059   4.039  19.232  0.00  0.00    +0.000 NA
ATOM     28  C   UNL     1      48.109   3.230  18.872  0.00  0.00    +0.000 A 
ATOM     29  N   UNL     1      47.413   3.309  17.683  0.00  0.00    +0.000 N 
ATOM     30  C   UNL     1      47.634   4.282  16.721  0.00  0.00    +0.000 A 
ATOM     31  O   UNL     1      46.965   4.329  15.701  0.00  0.00    +0.000 OA
ATOM     32  C   UNL     1      48.697   5.186  17.085  0.00  0.00    +0.000 A 
ATOM     33  H   UNL     1      50.891   6.111  19.179  0.00  0.00    +0.000 HD
ATOM     34  H   UNL     1      46.678   2.650  17.472  0.00  0.00    +0.000 HD
ENDBRANCH  20  23
ENDBRANCH  18  19
ENDBRANCH   4  18
TORSDOF 6
ENDMDL
MODEL 2
REMARK VINA RESULT:    -7.844      2.434      3.218
REMARK INTER + INTRA:         -11.379
REMARK INTER:                 -10.611
REMARK INTRA:                  -0.768
REMARK UNBOUND:                -0.783
REMARK  Name = 
REMARK  6 active torsions:
REMARK  status: ('A' for Active; 'I' for Inactive)
REMARK    1  A    between atoms: C_2  and  C_25
REMARK    2  A    between atoms: N_3  and  C_4
REMARK    3  A    between atoms: C_4  and  C_5
REMARK    4  A    between atoms: C_8  and  C_9
REMARK    5  A    between atoms: C_9  and  N_10
REMARK    6  A    between atoms: C_11  and  C_13
REMARK                            x       y       z     vdW  Elec       q    Type
REMARK                         _______ _______ _______ _____ _____    ______ ____
ROOT
ATOM      1  C   UNL     1      44.915   4.242  11.642  0.00  0.00    +0.000 A 
ATOM      2  C   UNL     1      45.508   3.285  12.477  0.00  0.00    +0.000 A 
ATOM      3  C   UNL     1      46.213   3.673  13.625  0.00  0.00    +0.000 A 
ATOM      4  C   UNL     1      46.324   5.026  13.976  0.00  0.00    +0.000 A 
ATOM      5  C   UNL     1      45.718   5.980  13.148  0.00  0.00    +0.000 A 
ATOM      6  C   UNL     1      45.014   5.593  12.001  0.00  0.00    +0.000 A 
ENDROOT
BRANCH   1   7
ATOM      7  C   UNL     1      44.255   3.831  10.354  0.00  0.00    +0.000 C 
BRANCH   7  10
ATOM      8  O   UNL     1      44.919   1.449   9.108  0.00  0.00    +0.000 OA
ATOM      9  C   UNL     1      45.396   2.491   8.665  0.00  0.00    +0.000 C 
ATOM     10  N   UNL     1      45.145   3.732   9.223  0.00  0.00    +0.000 N 
ATOM     11  H   UNL     1      45.545   4.557   8.786  0.00  0.00    +0.000 HD
BRANCH   9  12
ATOM     12  C   UNL     1      46.281   2.458   7.469  0.00  0.00    +0.000 A 
ATOM     13  C   UNL     1      47.227   1.446   7.354  0.00  0.00    +0.000 A 
ATOM     14  N   UNL     1      48.065   1.350   6.289  0.00  0.00    +0.000 NA
ATOM     15  C   UNL     1      47.915   2.312   5.352  0.00  0.00    +0.000 A 
ATOM     16  C   UNL     1      46.972   3.324   5.467  0.00  0.00    +0.000 A 
ATOM     17  N   UNL     1      46.125   3.428   6.523  0.00  0.00    +0.000 NA
ENDBRANCH   9  12
ENDBRANCH   7  10
ENDBRANCH   1   7
BRANCH   4  18
ATOM     18  C   UNL     1      47.059   5.448  15.224  0.00  0.00    +0.000 C 
BRANCH  18  19
ATOM     19  N   UNL     1      48.173   4.593  15.550  0.00  0.00    +0.000 N 
ATOM     20  C   UNL     1      48.227   3.920  16.757  0.00  0.00    +0.000 C 
ATOM     21  O   UNL     1      47.351   4.029  17.609  0.00  0.00    +0.000 OA
ATOM     22  H   UNL     1      48.947   4.452  14.910  0.00  0.00    +0.000 HD
BRANCH  20  23
ATOM     23  C   UNL     1      49.413   3.057  16.912  0.00  0.00    +0.000 A 
ATOM     24  N   UNL     1      49.498   1.869  16.260  0.00  0.00    +0.000 NA
ATOM     25  N   UNL     1      50.680   1.353  16.660  0.00  0.00    +0.000 N 
ATOM     26  C   UNL     1      51.356   2.155  17.525  0.00  0.00    +0.000 A 
ATOM     27  N   UNL     1      52.559   1.868  18.079  0.00  0.00    +0.000 NA
ATOM     28  C   UNL     1      52.972   2.803  18.878  0.00  0.00    +0.000 A 
ATOM     29  N   UNL     1      52.288   3.970  19.149  0.00  0.00    +0.000 N 
ATOM     30  C   UNL     1      51.065   4.298  18.584  0.00  0.00    +0.000 A 
ATOM     31  O   UNL     1      50.517   5.361  18.830  0.00  0.00    +0.000 OA
ATOM     32  C   UNL     1      50.570   3.269  17.704  0.00  0.00    +0.000 A 
ATOM     33  H   UNL     1      50.972   0.448  16.313  0.00  0.00    +0.000 HD
ATOM     34  H   UNL     1      52.674   4.661  19.776  0.00  0.00    +0.000 HD
ENDBRANCH  20  23
ENDBRANCH  18  19
ENDBRANCH   4  18
TORSDOF 6
ENDMDL
MODEL 3
REMARK VINA RESULT:    -7.724      1.801      8.932
REMARK INTER + INTRA:         -11.216
REMARK INTER:                 -10.334
REMARK INTRA:                  -0.882
REMARK UNBOUND:                -0.783
REMARK  Name = 
REMARK  6 active torsions:
REMARK  status: ('A' for Active; 'I' for Inactive)
REMARK    1  A    between atoms: C_2  and  C_25
REMARK    2  A    between atoms: N_3  and  C_4
REMARK    3  A    between atoms: C_4  and  C_5
REMARK    4  A    between atoms: C_8  and  C_9
REMARK    5  A    between atoms: C_9  and  N_10
REMARK    6  A    between atoms: C_11  and  C_13
REMARK                            x       y       z     vdW  Elec       q    Type
REMARK                         _______ _______ _______ _____ _____    ______ ____
ROOT
ATOM      1  C   UNL     1      48.362   8.290  13.448  0.00  0.00    +0.000 A 
ATOM      2  C   UNL     1      48.599   7.415  12.379  0.00  0.00    +0.000 A 
ATOM      3  C   UNL     1      47.538   6.928  11.602  0.00  0.00    +0.000 A 
ATOM      4  C   UNL     1      46.218   7.319  11.864  0.00  0.00    +0.000 A 
ATOM      5  C   UNL     1      45.985   8.205  12.924  0.00  0.00    +0.000 A 
ATOM      6  C   UNL     1      47.043   8.693  13.701  0.00  0.00    +0.000 A 
ENDROOT
BRANCH   1   7
ATOM      7  C   UNL     1      49.488   8.723  14.346  0.00  0.00    +0.000 C 
BRANCH   7  10
ATOM      8  O   UNL     1      48.734   7.554  16.740  0.00  0.00    +0.000 OA
ATOM      9  C   UNL     1      49.732   7.122  16.170  0.00  0.00    +0.000 C 
ATOM     10  N   UNL     1      50.206   7.645  14.980  0.00  0.00    +0.000 N 
ATOM     11  H   UNL     1      51.018   7.217  14.546  0.00  0.00    +0.000 HD
BRANCH   9  12
ATOM     12  C   UNL     1      50.486   5.977  16.750  0.00  0.00    +0.000 A 
ATOM     13  C   UNL     1      51.863   6.085  16.911  0.00  0.00    +0.000 A 
ATOM     14  N   UNL     1      52.615   5.083  17.436  0.00  0.00    +0.000 NA
ATOM     15  C   UNL     1      51.929   3.973  17.787  0.00  0.00    +0.000 A 
ATOM     16  C   UNL     1      50.555   3.865  17.624  0.00  0.00    +0.000 A 
ATOM     17  N   UNL     1      49.791   4.860  17.106  0.00  0.00    +0.000 NA
ENDBRANCH   9  12
ENDBRANCH   7  10
ENDBRANCH   1   7
BRANCH   4  18
ATOM     18  C   UNL     1      45.076   6.819  11.016  0.00  0.00    +0.000 C 
BRANCH  18  19
ATOM     19  N   UNL     1      45.314   5.518  10.442  0.00  0.00    +0.000 N 
ATOM     20  C   UNL     1      44.267   4.663  10.151  0.00  0.00    +0.000 C 
ATOM     21  O   UNL     1      43.098   4.954  10.384  0.00  0.00    +0.000 OA
ATOM     22  H   UNL     1      46.250   5.190  10.226  0.00  0.00    +0.000 HD
BRANCH  20  23
ATOM     23  C   UNL     1      44.683   3.392   9.530  0.00  0.00    +0.000 A 
ATOM     24  N   UNL     1      44.075   2.224   9.864  0.00  0.00    +0.000 NA
ATOM     25  N   UNL     1      44.726   1.289   9.138  0.00  0.00    +0.000 N 
ATOM     26  C   UNL     1      45.709   1.803   8.352  0.00  0.00    +0.000 A 
ATOM     27  N   UNL     1      46.512   1.081   7.534  0.00  0.00    +0.000 NA
ATOM     28  C   UNL     1      47.373   1.821   6.905  0.00  0.00    +0.000 A 
ATOM     29  N   UNL     1      47.479   3.191   7.031  0.00  0.00    +0.000 N 
ATOM     30  C   UNL     1      46.660   3.957   7.846  0.00  0.00    +0.000 A 
ATOM     31  O   UNL     1      46.772   5.172   7.895  0.00  0.00    +0.000 OA
ATOM     32  C   UNL     1      45.704   3.160   8.573  0.00  0.00    +0.000 A 
ATOM     33  H   UNL     1      44.458   0.317   9.223  0.00  0.00    +0.000 HD
ATOM     34  H   UNL     1      48.168   3.705   6.503  0.00  0.00    +0.000 HD
ENDBRANCH  20  23
ENDBRANCH  18  19
ENDBRANCH   4  18
TORSDOF 6
ENDMDL
MODEL 4
REMARK VINA RESULT:    -7.578      1.552      9.493
REMARK INTER + INTRA:         -11.020
REMARK INTER:                 -10.189
REMARK INTRA:                  -0.831
REMARK UNBOUND:                -0.783
REMARK  Name = 
REMARK  6 active torsions:
REMARK  status: ('A' for Active; 'I' for Inactive)
REMARK    1  A    between atoms: C_2  and  C_25
REMARK    2  A    between atoms: N_3  and  C_4
REMARK    3  A    between atoms: C_4  and  C_5
REMARK    4  A    between atoms: C_8  and  C_9
REMARK    5  A    between atoms: C_9  and  N_10
REMARK    6  A    between atoms: C_11  and  C_13
REMARK                            x       y       z     vdW  Elec       q    Type
REMARK                         _______ _______ _______ _____ _____    ______ ____
ROOT
ATOM      1  C   UNL     1      47.775   7.596  13.977  0.00  0.00    +0.000 A 
ATOM      2  C   UNL     1      46.959   8.535  13.331  0.00  0.00    +0.000 A 
ATOM      3  C   UNL     1      46.073   8.139  12.320  0.00  0.00    +0.000 A 
ATOM      4  C   UNL     1      45.968   6.792  11.945  0.00  0.00    +0.000 A 
ATOM      5  C   UNL     1      46.773   5.853  12.602  0.00  0.00    +0.000 A 
ATOM      6  C   UNL     1      47.659   6.248  13.613  0.00  0.00    +0.000 A 
ENDROOT
BRANCH   1   7
ATOM      7  C   UNL     1      48.802   8.039  14.983  0.00  0.00    +0.000 C 
BRANCH   7  10
ATOM      8  O   UNL     1      50.235   6.013  16.212  0.00  0.00    +0.000 OA
ATOM      9  C   UNL     1      49.351   6.573  16.855  0.00  0.00    +0.000 C 
ATOM     10  N   UNL     1      48.564   7.584  16.332  0.00  0.00    +0.000 N 
ATOM     11  H   UNL     1      47.873   8.027  16.930  0.00  0.00    +0.000 HD
BRANCH   9  12
ATOM     12  C   UNL     1      49.092   6.182  18.267  0.00  0.00    +0.000 A 
ATOM     13  C   UNL     1      48.630   7.141  19.162  0.00  0.00    +0.000 A 
ATOM     14  N   UNL     1      48.369   6.857  20.464  0.00  0.00    +0.000 NA
ATOM     15  C   UNL     1      48.594   5.574  20.828  0.00  0.00    +0.000 A 
ATOM     16  C   UNL     1      49.057   4.617  19.935  0.00  0.00    +0.000 A 
ATOM     17  N   UNL     1      49.316   4.888  18.630  0.00  0.00    +0.000 NA
ENDBRANCH   9  12
ENDBRANCH   7  10
ENDBRANCH   1   7
BRANCH   4  18
ATOM     18  C   UNL     1      44.997   6.357  10.875  0.00  0.00    +0.000 C 
BRANCH  18  19
ATOM     19  N   UNL     1      45.375   5.127  10.224  0.00  0.00    +0.000 N 
ATOM     20  C   UNL     1      44.441   4.142   9.961  0.00  0.00    +0.000 C 
ATOM     21  O   UNL     1      43.262   4.253  10.284  0.00  0.00    +0.000 OA
ATOM     22  H   UNL     1      46.330   4.946   9.932  0.00  0.00    +0.000 HD
BRANCH  20  23
ATOM     23  C   UNL     1      44.986   2.969   9.253  0.00  0.00    +0.000 A 
ATOM     24  N   UNL     1      44.519   1.721   9.516  0.00  0.00    +0.000 NA
ATOM     25  N   UNL     1      45.259   0.915   8.723  0.00  0.00    +0.000 N 
ATOM     26  C   UNL     1      46.164   1.586   7.963  0.00  0.00    +0.000 A 
ATOM     27  N   UNL     1      47.028   1.013   7.091  0.00  0.00    +0.000 NA
ATOM     28  C   UNL     1      47.789   1.885   6.503  0.00  0.00    +0.000 A 
ATOM     29  N   UNL     1      47.743   3.247   6.718  0.00  0.00    +0.000 N 
ATOM     30  C   UNL     1      46.857   3.862   7.591  0.00  0.00    +0.000 A 
ATOM     31  O   UNL     1      46.832   5.076   7.718  0.00  0.00    +0.000 OA
ATOM     32  C   UNL     1      46.009   2.917   8.273  0.00  0.00    +0.000 A 
ATOM     33  H   UNL     1      45.103  -0.086   8.747  0.00  0.00    +0.000 HD
ATOM     34  H   UNL     1      48.359   3.870   6.218  0.00  0.00    +0.000 HD
ENDBRANCH  20  23
ENDBRANCH  18  19
ENDBRANCH   4  18
TORSDOF 6
ENDMDL
MODEL 5
REMARK VINA RESULT:    -7.382      3.464      8.618
REMARK INTER + INTRA:         -10.755
REMARK INTER:                  -9.764
REMARK INTRA:                  -0.991
REMARK UNBOUND:                -0.783
REMARK  Name = 
REMARK  6 active torsions:
REMARK  status: ('A' for Active; 'I' for Inactive)
REMARK    1  A    between atoms: C_2  and  C_25
REMARK    2  A    between atoms: N_3  and  C_4
REMARK    3  A    between atoms: C_4  and  C_5
REMARK    4  A    between atoms: C_8  and  C_9
REMARK    5  A    between atoms: C_9  and  N_10
REMARK    6  A    between atoms: C_11  and  C_13
REMARK                            x       y       z     vdW  Elec       q    Type
REMARK                         _______ _______ _______ _____ _____    ______ ____
ROOT
ATOM      1  C   UNL     1      49.397   4.526  17.580  0.00  0.00    +0.000 A 
ATOM      2  C   UNL     1      50.086   5.714  17.303  0.00  0.00    +0.000 A 
ATOM      3  C   UNL     1      49.674   6.557  16.262  0.00  0.00    +0.000 A 
ATOM      4  C   UNL     1      48.550   6.241  15.486  0.00  0.00    +0.000 A 
ATOM      5  C   UNL     1      47.853   5.060  15.774  0.00  0.00    +0.000 A 
ATOM      6  C   UNL     1      48.265   4.217  16.814  0.00  0.00    +0.000 A 
ENDROOT
BRANCH   1   7
ATOM      7  C   UNL     1      49.906   3.571  18.625  0.00  0.00    +0.000 C 
BRANCH   7  10
ATOM      8  O   UNL     1      50.769   1.363  17.195  0.00  0.00    +0.000 OA
ATOM      9  C   UNL     1      51.614   2.079  17.726  0.00  0.00    +0.000 C 
ATOM     10  N   UNL     1      51.291   3.195  18.477  0.00  0.00    +0.000 N 
ATOM     11  H   UNL     1      52.041   3.762  18.861  0.00  0.00    +0.000 HD
BRANCH   9  12
ATOM     12  C   UNL     1      53.061   1.771  17.567  0.00  0.00    +0.000 A 
ATOM     13  C   UNL     1      53.449   0.465  17.290  0.00  0.00    +0.000 A 
ATOM     14  N   UNL     1      54.750   0.110  17.128  0.00  0.00    +0.000 NA
ATOM     15  C   UNL     1      55.641   1.118  17.261  0.00  0.00    +0.000 A 
ATOM     16  C   UNL     1      55.254   2.421  17.539  0.00  0.00    +0.000 A 
ATOM     17  N   UNL     1      53.957   2.790  17.698  0.00  0.00    +0.000 NA
ENDBRANCH   9  12
ENDBRANCH   7  10
ENDBRANCH   1   7
BRANCH   4  18
ATOM     18  C   UNL     1      48.086   7.156  14.381  0.00  0.00    +0.000 C 
BRANCH  18  19
ATOM     19  N   UNL     1      46.915   6.675  13.690  0.00  0.00    +0.000 N 
ATOM     20  C   UNL     1      46.856   6.662  12.309  0.00  0.00    +0.000 C 
ATOM     21  O   UNL     1      47.776   7.072  11.609  0.00  0.00    +0.000 OA
ATOM     22  H   UNL     1      46.103   6.327  14.189  0.00  0.00    +0.000 HD
BRANCH  20  23
ATOM     23  C   UNL     1      45.605   6.100  11.766  0.00  0.00    +0.000 A 
ATOM     24  N   UNL     1      44.782   6.857  10.994  0.00  0.00    +0.000 NA
ATOM     25  N   UNL     1      43.744   6.040  10.714  0.00  0.00    +0.000 N 
ATOM     26  C   UNL     1      43.868   4.801  11.258  0.00  0.00    +0.000 A 
ATOM     27  N   UNL     1      42.965   3.799  11.132  0.00  0.00    +0.000 NA
ATOM     28  C   UNL     1      43.327   2.722  11.761  0.00  0.00    +0.000 A 
ATOM     29  N   UNL     1      44.497   2.584  12.481  0.00  0.00    +0.000 N 
ATOM     30  C   UNL     1      45.447   3.586  12.611  0.00  0.00    +0.000 A 
ATOM     31  O   UNL     1      46.483   3.400  13.229  0.00  0.00    +0.000 OA
ATOM     32  C   UNL     1      45.064   4.801  11.937  0.00  0.00    +0.000 A 
ATOM     33  H   UNL     1      42.977   6.384  10.149  0.00  0.00    +0.000 HD
ATOM     34  H   UNL     1      44.720   1.713  12.938  0.00  0.00    +0.000 HD
ENDBRANCH  20  23
ENDBRANCH  18  19
ENDBRANCH   4  18
TORSDOF 6
ENDMDL
MODEL 6
REMARK VINA RESULT:    -7.210      1.643      2.036
REMARK INTER + INTRA:         -10.523
REMARK INTER:                  -9.722
REMARK INTRA:                  -0.801
REMARK UNBOUND:                -0.783
REMARK  Name = 
REMARK  6 active torsions:
REMARK  status: ('A' for Active; 'I' for Inactive)
REMARK    1  A    between atoms: C_2  and  C_25
REMARK    2  A    between atoms: N_3  and  C_4
REMARK    3  A    between atoms: C_4  and  C_5
REMARK    4  A    between atoms: C_8  and  C_9
REMARK    5  A    between atoms: C_9  and  N_10
REMARK    6  A    between atoms: C_11  and  C_13
REMARK                            x       y       z     vdW  Elec       q    Type
REMARK                         _______ _______ _______ _____ _____    ______ ____
ROOT
ATOM      1  C   UNL     1      44.682   5.810  11.243  0.00  0.00    +0.000 A 
ATOM      2  C   UNL     1      45.334   5.243  12.347  0.00  0.00    +0.000 A 
ATOM      3  C   UNL     1      46.167   6.019  13.164  0.00  0.00    +0.000 A 
ATOM      4  C   UNL     1      46.353   7.385  12.908  0.00  0.00    +0.000 A 
ATOM      5  C   UNL     1      45.688   7.953  11.814  0.00  0.00    +0.000 A 
ATOM      6  C   UNL     1      44.855   7.178  10.996  0.00  0.00    +0.000 A 
ENDROOT
BRANCH   1   7
ATOM      7  C   UNL     1      43.877   4.952  10.306  0.00  0.00    +0.000 C 
BRANCH   7  10
ATOM      8  O   UNL     1      45.187   2.513  10.265  0.00  0.00    +0.000 OA
ATOM      9  C   UNL     1      45.213   3.205   9.250  0.00  0.00    +0.000 C 
ATOM     10  N   UNL     1      44.608   4.446   9.169  0.00  0.00    +0.000 N 
ATOM     11  H   UNL     1      44.640   4.951   8.288  0.00  0.00    +0.000 HD
BRANCH   9  12
ATOM     12  C   UNL     1      45.909   2.715   8.030  0.00  0.00    +0.000 A 
ATOM     13  C   UNL     1      46.381   1.407   7.998  0.00  0.00    +0.000 A 
ATOM     14  N   UNL     1      47.021   0.889   6.918  0.00  0.00    +0.000 NA
ATOM     15  C   UNL     1      47.170   1.739   5.878  0.00  0.00    +0.000 A 
ATOM     16  C   UNL     1      46.701   3.045   5.910  0.00  0.00    +0.000 A 
ATOM     17  N   UNL     1      46.054   3.572   6.981  0.00  0.00    +0.000 NA
ENDBRANCH   9  12
ENDBRANCH   7  10
ENDBRANCH   1   7
BRANCH   4  18
ATOM     18  C   UNL     1      47.228   8.230  13.799  0.00  0.00    +0.000 C 
BRANCH  18  19
ATOM     19  N   UNL     1      47.613   7.569  15.021  0.00  0.00    +0.000 N 
ATOM     20  C   UNL     1      48.827   6.914  15.126  0.00  0.00    +0.000 C 
ATOM     21  O   UNL     1      49.618   6.845  14.191  0.00  0.00    +0.000 OA
ATOM     22  H   UNL     1      47.016   7.566  15.841  0.00  0.00    +0.000 HD
BRANCH  20  23
ATOM     23  C   UNL     1      49.081   6.328  16.456  0.00  0.00    +0.000 A 
ATOM     24  N   UNL     1      49.676   5.113  16.576  0.00  0.00    +0.000 NA
ATOM     25  N   UNL     1      49.713   4.891  17.908  0.00  0.00    +0.000 N 
ATOM     26  C   UNL     1      49.182   5.906  18.641  0.00  0.00    +0.000 A 
ATOM     27  N   UNL     1      49.093   5.930  19.993  0.00  0.00    +0.000 NA
ATOM     28  C   UNL     1      48.534   7.015  20.434  0.00  0.00    +0.000 A 
ATOM     29  N   UNL     1      48.076   8.047  19.640  0.00  0.00    +0.000 N 
ATOM     30  C   UNL     1      48.170   8.058  18.256  0.00  0.00    +0.000 A 
ATOM     31  O   UNL     1      47.782   9.012  17.602  0.00  0.00    +0.000 OA
ATOM     32  C   UNL     1      48.772   6.856  17.735  0.00  0.00    +0.000 A 
ATOM     33  H   UNL     1      50.109   4.028  18.259  0.00  0.00    +0.000 HD
ATOM     34  H   UNL     1      47.658   8.868  20.052  0.00  0.00    +0.000 HD
ENDBRANCH  20  23
ENDBRANCH  18  19
ENDBRANCH   4  18
TORSDOF 6
ENDMDL
MODEL 7
REMARK VINA RESULT:    -7.130      4.704      7.068
REMARK INTER + INTRA:         -10.414
REMARK INTER:                  -9.597
REMARK INTRA:                  -0.818
REMARK UNBOUND:                -0.783
REMARK  Name = 
REMARK  6 active torsions:
REMARK  status: ('A' for Active; 'I' for Inactive)
REMARK    1  A    between atoms: C_2  and  C_25
REMARK    2  A    between atoms: N_3  and  C_4
REMARK    3  A    between atoms: C_4  and  C_5
REMARK    4  A    between atoms: C_8  and  C_9
REMARK    5  A    between atoms: C_9  and  N_10
REMARK    6  A    between atoms: C_11  and  C_13
REMARK                            x       y       z     vdW  Elec       q    Type
REMARK                         _______ _______ _______ _____ _____    ______ ____
ROOT
ATOM      1  C   UNL     1      52.007   8.240  11.680  0.00  0.00    +0.000 A 
ATOM      2  C   UNL     1      52.061   8.503  13.056  0.00  0.00    +0.000 A 
ATOM      3  C   UNL     1      50.934   8.316  13.867  0.00  0.00    +0.000 A 
ATOM      4  C   UNL     1      49.731   7.842  13.325  0.00  0.00    +0.000 A 
ATOM      5  C   UNL     1      49.683   7.565  11.952  0.00  0.00    +0.000 A 
ATOM      6  C   UNL     1      50.809   7.753  11.141  0.00  0.00    +0.000 A 
ENDROOT
BRANCH   1   7
ATOM      7  C   UNL     1      53.184   8.547  10.795  0.00  0.00    +0.000 C 
BRANCH   7  10
ATOM      8  O   UNL     1      54.522   6.123  10.755  0.00  0.00    +0.000 OA
ATOM      9  C   UNL     1      53.977   6.505   9.722  0.00  0.00    +0.000 C 
ATOM     10  N   UNL     1      53.299   7.707   9.628  0.00  0.00    +0.000 N 
ATOM     11  H   UNL     1      52.843   7.945   8.753  0.00  0.00    +0.000 HD
BRANCH   9  12
ATOM     12  C   UNL     1      54.018   5.658   8.499  0.00  0.00    +0.000 A 
ATOM     13  C   UNL     1      53.060   5.849   7.510  0.00  0.00    +0.000 A 
ATOM     14  N   UNL     1      53.037   5.117   6.366  0.00  0.00    +0.000 NA
ATOM     15  C   UNL     1      54.011   4.186   6.262  0.00  0.00    +0.000 A 
ATOM     16  C   UNL     1      54.967   3.994   7.250  0.00  0.00    +0.000 A 
ATOM     17  N   UNL     1      55.004   4.723   8.394  0.00  0.00    +0.000 NA
ENDBRANCH   9  12
ENDBRANCH   7  10
ENDBRANCH   1   7
BRANCH   4  18
ATOM     18  C   UNL     1      48.522   7.613  14.197  0.00  0.00    +0.000 C 
BRANCH  18  19
ATOM     19  N   UNL     1      47.569   6.693  13.628  0.00  0.00    +0.000 N 
ATOM     20  C   UNL     1      47.376   5.437  14.172  0.00  0.00    +0.000 C 
ATOM     21  O   UNL     1      48.013   5.038  15.142  0.00  0.00    +0.000 OA
ATOM     22  H   UNL     1      47.006   6.936  12.818  0.00  0.00    +0.000 HD
BRANCH  20  23
ATOM     23  C   UNL     1      46.336   4.640  13.494  0.00  0.00    +0.000 A 
ATOM     24  N   UNL     1      46.421   3.286  13.446  0.00  0.00    +0.000 NA
ATOM     25  N   UNL     1      45.337   2.909  12.732  0.00  0.00    +0.000 N 
ATOM     26  C   UNL     1      44.563   3.953  12.334  0.00  0.00    +0.000 A 
ATOM     27  N   UNL     1      43.426   3.847  11.604  0.00  0.00    +0.000 NA
ATOM     28  C   UNL     1      42.889   5.002  11.354  0.00  0.00    +0.000 A 
ATOM     29  N   UNL     1      43.393   6.216  11.774  0.00  0.00    +0.000 N 
ATOM     30  C   UNL     1      44.543   6.352  12.536  0.00  0.00    +0.000 A 
ATOM     31  O   UNL     1      44.928   7.448  12.913  0.00  0.00    +0.000 OA
ATOM     32  C   UNL     1      45.173   5.086  12.816  0.00  0.00    +0.000 A 
ATOM     33  H   UNL     1      45.180   1.926  12.546  0.00  0.00    +0.000 HD
ATOM     34  H   UNL     1      42.917   7.077  11.550  0.00  0.00    +0.000 HD
ENDBRANCH  20  23
ENDBRANCH  18  19
ENDBRANCH   4  18
TORSDOF 6
ENDMDL
MODEL 8
REMARK VINA RESULT:    -7.118      1.794      2.258
REMARK INTER + INTRA:         -10.398
REMARK INTER:                  -9.626
REMARK INTRA:                  -0.771
REMARK UNBOUND:                -0.783
REMARK  Name = 
REMARK  6 active torsions:
REMARK  status: ('A' for Active; 'I' for Inactive)
REMARK    1  A    between atoms: C_2  and  C_25
REMARK    2  A    between atoms: N_3  and  C_4
REMARK    3  A    between atoms: C_4  and  C_5
REMARK    4  A    between atoms: C_8  and  C_9
REMARK    5  A    between atoms: C_9  and  N_10
REMARK    6  A    between atoms: C_11  and  C_13
REMARK                            x       y       z     vdW  Elec       q    Type
REMARK                         _______ _______ _______ _____ _____    ______ ____
ROOT
ATOM      1  C   UNL     1      45.203   6.505  11.682  0.00  0.00    +0.000 A 
ATOM      2  C   UNL     1      46.198   5.866  12.435  0.00  0.00    +0.000 A 
ATOM      3  C   UNL     1      47.018   6.596  13.306  0.00  0.00    +0.000 A 
ATOM      4  C   UNL     1      46.850   7.979  13.459  0.00  0.00    +0.000 A 
ATOM      5  C   UNL     1      45.846   8.614  12.717  0.00  0.00    +0.000 A 
ATOM      6  C   UNL     1      45.026   7.885  11.847  0.00  0.00    +0.000 A 
ENDROOT
BRANCH   1   7
ATOM      7  C   UNL     1      44.399   5.738  10.669  0.00  0.00    +0.000 C 
BRANCH   7  10
ATOM      8  O   UNL     1      43.786   3.126   9.984  0.00  0.00    +0.000 OA
ATOM      9  C   UNL     1      44.774   3.646   9.472  0.00  0.00    +0.000 C 
ATOM     10  N   UNL     1      45.180   4.937   9.757  0.00  0.00    +0.000 N 
ATOM     11  H   UNL     1      45.987   5.316   9.272  0.00  0.00    +0.000 HD
BRANCH   9  12
ATOM     12  C   UNL     1      45.590   2.887   8.486  0.00  0.00    +0.000 A 
ATOM     13  C   UNL     1      46.100   3.550   7.375  0.00  0.00    +0.000 A 
ATOM     14  N   UNL     1      46.856   2.924   6.436  0.00  0.00    +0.000 NA
ATOM     15  C   UNL     1      47.072   1.608   6.658  0.00  0.00    +0.000 A 
ATOM     16  C   UNL     1      46.561   0.945   7.765  0.00  0.00    +0.000 A 
ATOM     17  N   UNL     1      45.810   1.561   8.713  0.00  0.00    +0.000 NA
ENDBRANCH   9  12
ENDBRANCH   7  10
ENDBRANCH   1   7
BRANCH   4  18
ATOM     18  C   UNL     1      47.713   8.766  14.414  0.00  0.00    +0.000 C 
BRANCH  18  19
ATOM     19  N   UNL     1      48.068   8.034  15.604  0.00  0.00    +0.000 N 
ATOM     20  C   UNL     1      48.097   8.652  16.841  0.00  0.00    +0.000 C 
ATOM     21  O   UNL     1      47.847   9.844  16.984  0.00  0.00    +0.000 OA
ATOM     22  H   UNL     1      48.300   7.046  15.577  0.00  0.00    +0.000 HD
BRANCH  20  23
ATOM     23  C   UNL     1      48.439   7.750  17.957  0.00  0.00    +0.000 A 
ATOM     24  N   UNL     1      47.881   7.921  19.183  0.00  0.00    +0.000 NA
ATOM     25  N   UNL     1      48.443   6.954  19.942  0.00  0.00    +0.000 N 
ATOM     26  C   UNL     1      49.320   6.171  19.260  0.00  0.00    +0.000 A 
ATOM     27  N   UNL     1      50.019   5.138  19.788  0.00  0.00    +0.000 NA
ATOM     28  C   UNL     1      50.793   4.566  18.917  0.00  0.00    +0.000 A 
ATOM     29  N   UNL     1      50.908   4.944  17.595  0.00  0.00    +0.000 N 
ATOM     30  C   UNL     1      50.193   5.984  17.023  0.00  0.00    +0.000 A 
ATOM     31  O   UNL     1      50.305   6.255  15.838  0.00  0.00    +0.000 OA
ATOM     32  C   UNL     1      49.336   6.651  17.971  0.00  0.00    +0.000 A 
ATOM     33  H   UNL     1      48.191   6.879  20.920  0.00  0.00    +0.000 HD
ATOM     34  H   UNL     1      51.525   4.447  16.969  0.00  0.00    +0.000 HD
ENDBRANCH  20  23
ENDBRANCH  18  19
ENDBRANCH   4  18
TORSDOF 6
ENDMDL
MODEL 9
REMARK VINA RESULT:    -7.081      3.810      5.166
REMARK INTER + INTRA:         -10.347
REMARK INTER:                  -9.424
REMARK INTRA:                  -0.923
REMARK UNBOUND:                -0.783
REMARK  Name = 
REMARK  6 active torsions:
REMARK  status: ('A' for Active; 'I' for Inactive)
REMARK    1  A    between atoms: C_2  and  C_25
REMARK    2  A    between atoms: N_3  and  C_4
REMARK    3  A    between atoms: C_4  and  C_5
REMARK    4  A    between atoms: C_8  and  C_9
REMARK    5  A    between atoms: C_9  and  N_10
REMARK    6  A    between atoms: C_11  and  C_13
REMARK                            x       y       z     vdW  Elec       q    Type
REMARK                         _______ _______ _______ _____ _____    ______ ____
ROOT
ATOM      1  C   UNL     1      44.432   4.959  11.620  0.00  0.00    +0.000 A 
ATOM      2  C   UNL     1      43.847   6.188  11.286  0.00  0.00    +0.000 A 
ATOM      3  C   UNL     1      44.332   7.385  11.830  0.00  0.00    +0.000 A 
ATOM      4  C   UNL     1      45.427   7.383  12.705  0.00  0.00    +0.000 A 
ATOM      5  C   UNL     1      46.020   6.155  13.027  0.00  0.00    +0.000 A 
ATOM      6  C   UNL     1      45.536   4.959  12.483  0.00  0.00    +0.000 A 
ENDROOT
BRANCH   1   7
ATOM      7  C   UNL     1      43.841   3.669  11.121  0.00  0.00    +0.000 C 
BRANCH   7  10
ATOM      8  O   UNL     1      44.224   4.246   8.441  0.00  0.00    +0.000 OA
ATOM      9  C   UNL     1      44.832   3.294   8.924  0.00  0.00    +0.000 C 
ATOM     10  N   UNL     1      44.699   2.908  10.245  0.00  0.00    +0.000 N 
ATOM     11  H   UNL     1      45.257   2.131  10.588  0.00  0.00    +0.000 HD
BRANCH   9  12
ATOM     12  C   UNL     1      45.770   2.502   8.082  0.00  0.00    +0.000 A 
ATOM     13  C   UNL     1      46.327   3.090   6.952  0.00  0.00    +0.000 A 
ATOM     14  N   UNL     1      47.194   2.431   6.140  0.00  0.00    +0.000 NA
ATOM     15  C   UNL     1      47.471   1.160   6.508  0.00  0.00    +0.000 A 
ATOM     16  C   UNL     1      46.913   0.572   7.635  0.00  0.00    +0.000 A 
ATOM     17  N   UNL     1      46.051   1.222   8.458  0.00  0.00    +0.000 NA
ENDBRANCH   9  12
ENDBRANCH   7  10
ENDBRANCH   1   7
BRANCH   4  18
ATOM     18  C   UNL     1      45.969   8.670  13.274  0.00  0.00    +0.000 C 
BRANCH  18  19
ATOM     19  N   UNL     1      47.293   8.994  12.802  0.00  0.00    +0.000 N 
ATOM     20  C   UNL     1      47.496  10.010  11.887  0.00  0.00    +0.000 C 
ATOM     21  O   UNL     1      46.570  10.666  11.420  0.00  0.00    +0.000 OA
ATOM     22  H   UNL     1      48.115   8.495  13.127  0.00  0.00    +0.000 HD
BRANCH  20  23
ATOM     23  C   UNL     1      48.912  10.236  11.543  0.00  0.00    +0.000 A 
ATOM     24  N   UNL     1      49.362  11.481  11.237  0.00  0.00    +0.000 NA
ATOM     25  N   UNL     1      50.669  11.301  10.949  0.00  0.00    +0.000 N 
ATOM     26  C   UNL     1      51.077  10.010  11.066  0.00  0.00    +0.000 A 
ATOM     27  N   UNL     1      52.334   9.563  10.829  0.00  0.00    +0.000 NA
ATOM     28  C   UNL     1      52.446   8.282  11.007  0.00  0.00    +0.000 A 
ATOM     29  N   UNL     1      51.420   7.445  11.396  0.00  0.00    +0.000 N 
ATOM     30  C   UNL     1      50.130   7.877  11.662  0.00  0.00    +0.000 A 
ATOM     31  O   UNL     1      49.266   7.101  12.039  0.00  0.00    +0.000 OA
ATOM     32  C   UNL     1      49.969   9.295  11.457  0.00  0.00    +0.000 A 
ATOM     33  H   UNL     1      51.233  12.097  10.676  0.00  0.00    +0.000 HD
ATOM     34  H   UNL     1      51.581   6.457  11.524  0.00  0.00    +0.000 HD
ENDBRANCH  20  23
ENDBRANCH  18  19
ENDBRANCH   4  18
TORSDOF 6
ENDMDL
