MODEL 1
REMARK VINA RESULT:    -7.205      0.000      0.000
REMARK INTER + INTRA:         -10.598
REMARK INTER:                  -9.522
REMARK INTRA:                  -1.076
REMARK UNBOUND:                -1.076
REMARK  Name = 
REMARK  6 active torsions:
REMARK  status: ('A' for Active; 'I' for Inactive)
REMARK    1  A    between atoms: N_1  and  C_2
REMARK    2  A    between atoms: C_6  and  C_7
REMARK    3  A    between atoms: C_7  and  C_8
REMARK    4  A    between atoms: C_11  and  C_12
REMARK    5  A    between atoms: C_12  and  N_13
REMARK    6  A    between atoms: C_14  and  C_16
REMARK                            x       y       z     vdW  Elec       q    Type
REMARK                         _______ _______ _______ _____ _____    ______ ____
ROOT
ATOM      1  C   UNL     1      47.130   4.994  14.272  0.00  0.00    +0.000 A 
ATOM      2  C   UNL     1      47.814   6.203  14.203  0.00  0.00    +0.000 A 
ATOM      3  C   UNL     1      48.558   6.625  15.304  0.00  0.00    +0.000 A 
ATOM      4  C   UNL     1      48.540   5.885  16.488  0.00  0.00    +0.000 A 
ATOM      5  C   UNL     1      47.783   4.719  16.483  0.00  0.00    +0.000 A 
ATOM      6  N   UNL     1      47.097   4.254  15.408  0.00  0.00    +0.000 NA
ENDROOT
BRANCH   1   7
ATOM      7  C   UNL     1      46.437   4.427  13.053  0.00  0.00    +0.000 C 
BRANCH   7  12
ATOM      8  C   UNL     1      44.007   3.043  11.521  0.00  0.00    +0.000 C 
ATOM      9  C   UNL     1      43.988   3.876  10.232  0.00  0.00    +0.000 C 
ATOM     10  C   UNL     1      45.056   4.966  10.241  0.00  0.00    +0.000 C 
ATOM     11  C   UNL     1      44.934   5.840  11.484  0.00  0.00    +0.000 C 
ATOM     12  C   UNL     1      45.029   5.025  12.788  0.00  0.00    +0.000 C 
ATOM     13  C   UNL     1      43.945   3.929  12.773  0.00  0.00    +0.000 C 
BRANCH   8  14
ATOM     14  N   UNL     1      42.882   2.106  11.529  0.00  0.00    +0.000 NA
ATOM     15  H   UNL     1      42.399   2.166  12.426  0.00  0.00    +0.000 HD
ATOM     16  H   UNL     1      43.231   1.150  11.466  0.00  0.00    +0.000 HD
ENDBRANCH   8  14
ENDBRANCH   7  12
ENDBRANCH   1   7
BRANCH   4  17
ATOM     17  C   UNL     1      49.315   6.324  17.699  0.00  0.00    +0.000 C 
BRANCH  17  18
ATOM     18  N   UNL     1      50.326   5.364  18.067  0.00  0.00    +0.000 N 
ATOM     19  C   UNL     1      51.558   5.340  17.460  0.00  0.00    +0.000 C 
ATOM     20  O   UNL     1      51.880   6.144  16.589  0.00  0.00    +0.000 OA
ATOM     21  H   UNL     1      50.002   4.510  18.508  0.00  0.00    +0.000 HD
BRANCH  19  22
ATOM     22  C   UNL     1      52.504   4.325  17.958  0.00  0.00    +0.000 A 
ATOM     23  C   UNL     1      53.680   4.716  18.580  0.00  0.00    +0.000 A 
ATOM     24  S   UNL     1      54.629   3.405  19.127  0.00  0.00    +0.000 S 
ATOM     25  C   UNL     1      53.515   2.270  18.508  0.00  0.00    +0.000 A 
ATOM     26  N   UNL     1      53.745   0.936  18.613  0.00  0.00    +0.000 NA
ATOM     27  C   UNL     1      52.833   0.195  18.073  0.00  0.00    +0.000 A 
ATOM     28  N   UNL     1      51.709   0.668  17.451  0.00  0.00    +0.000 N 
ATOM     29  C   UNL     1      51.423   2.006  17.352  0.00  0.00    +0.000 A 
ATOM     30  O   UNL     1      50.377   2.399  16.837  0.00  0.00    +0.000 OA
ATOM     31  C   UNL     1      52.425   2.887  17.917  0.00  0.00    +0.000 A 
ATOM     32  H   UNL     1      51.025   0.034  17.066  0.00  0.00    +0.000 HD
ENDBRANCH  19  22
ENDBRANCH  17  18
ENDBRANCH   4  17
TORSDOF 6
ENDMDL
MODEL 2
REMARK VINA RESULT:    -6.991      3.059      8.788
REMARK INTER + INTRA:         -10.315
REMARK INTER:                  -9.427
REMARK INTRA:                  -0.887
REMARK UNBOUND:                -1.076
REMARK  Name = 
REMARK  6 active torsions:
REMARK  status: ('A' for Active; 'I' for Inactive)
REMARK    1  A    between atoms: N_1  and  C_2
REMARK    2  A    between atoms: C_6  and  C_7
REMARK    3  A    between atoms: C_7  and  C_8
REMARK    4  A    between atoms: C_11  and  C_12
REMARK    5  A    between atoms: C_12  and  N_13
REMARK    6  A    between atoms: C_14  and  C_16
REMARK                            x       y       z     vdW  Elec       q    Type
REMARK                         _______ _______ _______ _____ _____    ______ ____
ROOT
ATOM      1  C   UNL     1      51.413   2.107  17.351  0.00  0.00    +0.000 A 
ATOM      2  C   UNL     1      51.902   3.355  17.720  0.00  0.00    +0.000 A 
ATOM      3  C   UNL     1      51.017   4.429  17.815  0.00  0.00    +0.000 A 
ATOM      4  C   UNL     1      49.677   4.267  17.457  0.00  0.00    +0.000 A 
ATOM      5  C   UNL     1      49.290   2.996  17.046  0.00  0.00    +0.000 A 
ATOM      6  N   UNL     1      50.117   1.920  17.001  0.00  0.00    +0.000 NA
ENDROOT
BRANCH   1   7
ATOM      7  C   UNL     1      52.307   0.887  17.382  0.00  0.00    +0.000 C 
BRANCH   7  12
ATOM      8  C   UNL     1      54.730  -0.932  16.389  0.00  0.00    +0.000 C 
ATOM      9  C   UNL     1      55.322  -1.358  17.740  0.00  0.00    +0.000 C 
ATOM     10  C   UNL     1      54.563  -0.746  18.914  0.00  0.00    +0.000 C 
ATOM     11  C   UNL     1      54.485   0.771  18.782  0.00  0.00    +0.000 C 
ATOM     12  C   UNL     1      53.823   1.213  17.463  0.00  0.00    +0.000 C 
ATOM     13  C   UNL     1      54.597   0.594  16.282  0.00  0.00    +0.000 C 
BRANCH   8  14
ATOM     14  N   UNL     1      55.570  -1.426  15.296  0.00  0.00    +0.000 NA
ATOM     15  H   UNL     1      55.481  -0.802  14.494  0.00  0.00    +0.000 HD
ATOM     16  H   UNL     1      55.224  -2.332  14.981  0.00  0.00    +0.000 HD
ENDBRANCH   8  14
ENDBRANCH   7  12
ENDBRANCH   1   7
BRANCH   4  17
ATOM     17  C   UNL     1      48.702   5.409  17.529  0.00  0.00    +0.000 C 
BRANCH  17  18
ATOM     18  N   UNL     1      47.915   5.521  16.326  0.00  0.00    +0.000 N 
ATOM     19  C   UNL     1      48.412   6.105  15.186  0.00  0.00    +0.000 C 
ATOM     20  O   UNL     1      49.557   6.543  15.116  0.00  0.00    +0.000 OA
ATOM     21  H   UNL     1      46.907   5.492  16.440  0.00  0.00    +0.000 HD
BRANCH  19  22
ATOM     22  C   UNL     1      47.506   6.124  14.023  0.00  0.00    +0.000 A 
ATOM     23  C   UNL     1      47.227   7.320  13.379  0.00  0.00    +0.000 A 
ATOM     24  S   UNL     1      46.194   7.142  12.031  0.00  0.00    +0.000 S 
ATOM     25  C   UNL     1      46.053   5.461  12.292  0.00  0.00    +0.000 A 
ATOM     26  N   UNL     1      45.270   4.693  11.493  0.00  0.00    +0.000 NA
ATOM     27  C   UNL     1      45.233   3.444  11.826  0.00  0.00    +0.000 A 
ATOM     28  N   UNL     1      45.919   2.895  12.876  0.00  0.00    +0.000 N 
ATOM     29  C   UNL     1      46.746   3.629  13.688  0.00  0.00    +0.000 A 
ATOM     30  O   UNL     1      47.392   3.098  14.589  0.00  0.00    +0.000 OA
ATOM     31  C   UNL     1      46.805   5.044  13.378  0.00  0.00    +0.000 A 
ATOM     32  H   UNL     1      45.862   1.907  13.071  0.00  0.00    +0.000 HD
ENDBRANCH  19  22
ENDBRANCH  17  18
ENDBRANCH   4  17
TORSDOF 6
ENDMDL
MODEL 3
REMARK VINA RESULT:    -6.897      4.812      9.099
REMARK INTER + INTRA:         -10.190
REMARK INTER:                  -9.181
REMARK INTRA:                  -1.008
REMARK UNBOUND:                -1.076
REMARK  Name = 
REMARK  6 active torsions:
REMARK  status: ('A' for Active; 'I' for Inactive)
REMARK    1  A    between atoms: N_1  and  C_2
REMARK    2  A    between atoms: C_6  and  C_7
REMARK    3  A    between atoms: C_7  and  C_8
REMARK    4  A    between atoms: C_11  and  C_12
REMARK    5  A    between atoms: C_12  and  N_13
REMARK    6  A    between atoms: C_14  and  C_16
REMARK                            x       y       z     vdW  Elec       q    Type
REMARK                         _______ _______ _______ _____ _____    ______ ____
ROOT
ATOM      1  C   UNL     1      49.348   7.822  15.710  0.00  0.00    +0.000 A 
ATOM      2  C   UNL     1      48.304   8.716  15.495  0.00  0.00    +0.000 A 
ATOM      3  C   UNL     1      47.629   8.689  14.275  0.00  0.00    +0.000 A 
ATOM      4  C   UNL     1      48.057   7.837  13.255  0.00  0.00    +0.000 A 
ATOM      5  C   UNL     1      49.145   7.019  13.542  0.00  0.00    +0.000 A 
ATOM      6  N   UNL     1      49.783   6.983  14.739  0.00  0.00    +0.000 NA
ENDROOT
BRANCH   1   7
ATOM      7  C   UNL     1      50.006   7.715  17.068  0.00  0.00    +0.000 C 
BRANCH   7  12
ATOM      8  C   UNL     1      47.740   6.164  18.689  0.00  0.00    +0.000 C 
ATOM      9  C   UNL     1      48.376   6.135  20.086  0.00  0.00    +0.000 C 
ATOM     10  C   UNL     1      49.751   6.796  20.100  0.00  0.00    +0.000 C 
ATOM     11  C   UNL     1      50.665   6.178  19.048  0.00  0.00    +0.000 C 
ATOM     12  C   UNL     1      50.073   6.269  17.629  0.00  0.00    +0.000 C 
ATOM     13  C   UNL     1      48.686   5.596  17.621  0.00  0.00    +0.000 C 
BRANCH   8  14
ATOM     14  N   UNL     1      46.491   5.400  18.691  0.00  0.00    +0.000 NA
ATOM     15  H   UNL     1      46.704   4.405  18.762  0.00  0.00    +0.000 HD
ATOM     16  H   UNL     1      46.015   5.518  17.797  0.00  0.00    +0.000 HD
ENDBRANCH   8  14
ENDBRANCH   7  12
ENDBRANCH   1   7
BRANCH   4  17
ATOM     17  C   UNL     1      47.364   7.798  11.922  0.00  0.00    +0.000 C 
BRANCH  17  18
ATOM     18  N   UNL     1      46.686   6.544  11.705  0.00  0.00    +0.000 N 
ATOM     19  C   UNL     1      45.319   6.469  11.591  0.00  0.00    +0.000 C 
ATOM     20  O   UNL     1      44.598   7.462  11.645  0.00  0.00    +0.000 OA
ATOM     21  H   UNL     1      47.182   5.705  11.988  0.00  0.00    +0.000 HD
BRANCH  19  22
ATOM     22  C   UNL     1      44.764   5.127  11.340  0.00  0.00    +0.000 A 
ATOM     23  C   UNL     1      43.997   4.499  12.311  0.00  0.00    +0.000 A 
ATOM     24  S   UNL     1      43.406   2.971  11.827  0.00  0.00    +0.000 S 
ATOM     25  C   UNL     1      44.196   3.082  10.319  0.00  0.00    +0.000 A 
ATOM     26  N   UNL     1      44.125   2.071   9.417  0.00  0.00    +0.000 NA
ATOM     27  C   UNL     1      44.795   2.277   8.331  0.00  0.00    +0.000 A 
ATOM     28  N   UNL     1      45.518   3.409   8.063  0.00  0.00    +0.000 N 
ATOM     29  C   UNL     1      45.589   4.468   8.932  0.00  0.00    +0.000 A 
ATOM     30  O   UNL     1      46.200   5.494   8.640  0.00  0.00    +0.000 OA
ATOM     31  C   UNL     1      44.877   4.280  10.181  0.00  0.00    +0.000 A 
ATOM     32  H   UNL     1      46.005   3.517   7.185  0.00  0.00    +0.000 HD
ENDBRANCH  19  22
ENDBRANCH  17  18
ENDBRANCH   4  17
TORSDOF 6
ENDMDL
MODEL 4
REMARK VINA RESULT:    -6.489      4.553      8.777
REMARK INTER + INTRA:          -9.652
REMARK INTER:                  -8.716
REMARK INTRA:                  -0.936
REMARK UNBOUND:                -1.076
REMARK  Name = 
REMARK  6 active torsions:
REMARK  status: ('A' for Active; 'I' for Inactive)
REMARK    1  A    between atoms: N_1  and  C_2
REMARK    2  A    between atoms: C_6  and  C_7
REMARK    3  A    between atoms: C_7  and  C_8
REMARK    4  A    between atoms: C_11  and  C_12
REMARK    5  A    between atoms: C_12  and  N_13
REMARK    6  A    between atoms: C_14  and  C_16
REMARK                            x       y       z     vdW  Elec       q    Type
REMARK                         _______ _______ _______ _____ _____    ______ ____
ROOT
ATOM      1  C   UNL     1      49.579   7.626  15.988  0.00  0.00    +0.000 A 
ATOM      2  C   UNL     1      48.668   8.674  15.916  0.00  0.00    +0.000 A 
ATOM      3  C   UNL     1      48.011   8.920  14.712  0.00  0.00    +0.000 A 
ATOM      4  C   UNL     1      48.332   8.178  13.573  0.00  0.00    +0.000 A 
ATOM      5  C   UNL     1      49.296   7.187  13.726  0.00  0.00    +0.000 A 
ATOM      6  N   UNL     1      49.909   6.888  14.900  0.00  0.00    +0.000 NA
ENDROOT
BRANCH   1   7
ATOM      7  C   UNL     1      50.200   7.231  17.310  0.00  0.00    +0.000 C 
BRANCH   7  12
ATOM      8  C   UNL     1      47.722   5.757  18.670  0.00  0.00    +0.000 C 
ATOM      9  C   UNL     1      48.317   5.439  20.048  0.00  0.00    +0.000 C 
ATOM     10  C   UNL     1      49.764   5.909  20.167  0.00  0.00    +0.000 C 
ATOM     11  C   UNL     1      50.616   5.343  19.036  0.00  0.00    +0.000 C 
ATOM     12  C   UNL     1      50.072   5.721  17.645  0.00  0.00    +0.000 C 
ATOM     13  C   UNL     1      48.612   5.239  17.531  0.00  0.00    +0.000 C 
BRANCH   8  14
ATOM     14  N   UNL     1      46.387   5.168  18.553  0.00  0.00    +0.000 NA
ATOM     15  H   UNL     1      46.251   4.826  17.601  0.00  0.00    +0.000 HD
ATOM     16  H   UNL     1      45.680   5.888  18.692  0.00  0.00    +0.000 HD
ENDBRANCH   8  14
ENDBRANCH   7  12
ENDBRANCH   1   7
BRANCH   4  17
ATOM     17  C   UNL     1      47.656   8.430  12.255  0.00  0.00    +0.000 C 
BRANCH  17  18
ATOM     18  N   UNL     1      47.114   7.220  11.687  0.00  0.00    +0.000 N 
ATOM     19  C   UNL     1      45.783   7.100  11.372  0.00  0.00    +0.000 C 
ATOM     20  O   UNL     1      44.982   8.018  11.532  0.00  0.00    +0.000 OA
ATOM     21  H   UNL     1      47.638   6.367  11.853  0.00  0.00    +0.000 HD
BRANCH  19  22
ATOM     22  C   UNL     1      45.375   5.818  10.770  0.00  0.00    +0.000 A 
ATOM     23  C   UNL     1      45.672   5.547   9.443  0.00  0.00    +0.000 A 
ATOM     24  S   UNL     1      45.159   3.999   8.933  0.00  0.00    +0.000 S 
ATOM     25  C   UNL     1      44.484   3.659  10.463  0.00  0.00    +0.000 A 
ATOM     26  N   UNL     1      43.845   2.485  10.699  0.00  0.00    +0.000 NA
ATOM     27  C   UNL     1      43.357   2.376  11.892  0.00  0.00    +0.000 A 
ATOM     28  N   UNL     1      43.461   3.329  12.869  0.00  0.00    +0.000 N 
ATOM     29  C   UNL     1      44.126   4.514  12.682  0.00  0.00    +0.000 A 
ATOM     30  O   UNL     1      44.251   5.327  13.596  0.00  0.00    +0.000 OA
ATOM     31  C   UNL     1      44.672   4.704  11.352  0.00  0.00    +0.000 A 
ATOM     32  H   UNL     1      43.073   3.173  13.787  0.00  0.00    +0.000 HD
ENDBRANCH  19  22
ENDBRANCH  17  18
ENDBRANCH   4  17
TORSDOF 6
ENDMDL
MODEL 5
REMARK VINA RESULT:    -6.444      3.277      9.244
REMARK INTER + INTRA:          -9.591
REMARK INTER:                  -8.742
REMARK INTRA:                  -0.849
REMARK UNBOUND:                -1.076
REMARK  Name = 
REMARK  6 active torsions:
REMARK  status: ('A' for Active; 'I' for Inactive)
REMARK    1  A    between atoms: N_1  and  C_2
REMARK    2  A    between atoms: C_6  and  C_7
REMARK    3  A    between atoms: C_7  and  C_8
REMARK    4  A    between atoms: C_11  and  C_12
REMARK    5  A    between atoms: C_12  and  N_13
REMARK    6  A    between atoms: C_14  and  C_16
REMARK                            x       y       z     vdW  Elec       q    Type
REMARK                         _______ _______ _______ _____ _____    ______ ____
ROOT
ATOM      1  C   UNL     1      51.258   3.560  18.165  0.00  0.00    +0.000 A 
ATOM      2  C   UNL     1      50.834   2.516  17.350  0.00  0.00    +0.000 A 
ATOM      3  C   UNL     1      49.502   2.476  16.939  0.00  0.00    +0.000 A 
ATOM      4  C   UNL     1      48.592   3.422  17.416  0.00  0.00    +0.000 A 
ATOM      5  C   UNL     1      49.095   4.396  18.272  0.00  0.00    +0.000 A 
ATOM      6  N   UNL     1      50.398   4.493  18.641  0.00  0.00    +0.000 NA
ENDROOT
BRANCH   1   7
ATOM      7  C   UNL     1      52.722   3.725  18.509  0.00  0.00    +0.000 C 
BRANCH   7  12
ATOM      8  C   UNL     1      54.455   5.570  16.572  0.00  0.00    +0.000 C 
ATOM      9  C   UNL     1      55.767   5.643  17.365  0.00  0.00    +0.000 C 
ATOM     10  C   UNL     1      55.682   4.871  18.679  0.00  0.00    +0.000 C 
ATOM     11  C   UNL     1      54.489   5.335  19.509  0.00  0.00    +0.000 C 
ATOM     12  C   UNL     1      53.156   5.196  18.751  0.00  0.00    +0.000 C 
ATOM     13  C   UNL     1      53.248   5.981  17.427  0.00  0.00    +0.000 C 
BRANCH   8  14
ATOM     14  N   UNL     1      54.534   6.435  15.393  0.00  0.00    +0.000 NA
ATOM     15  H   UNL     1      55.156   7.220  15.590  0.00  0.00    +0.000 HD
ATOM     16  H   UNL     1      53.620   6.847  15.207  0.00  0.00    +0.000 HD
ENDBRANCH   8  14
ENDBRANCH   7  12
ENDBRANCH   1   7
BRANCH   4  17
ATOM     17  C   UNL     1      47.146   3.394  17.008  0.00  0.00    +0.000 C 
BRANCH  17  18
ATOM     18  N   UNL     1      46.852   4.382  15.999  0.00  0.00    +0.000 N 
ATOM     19  C   UNL     1      46.949   4.100  14.658  0.00  0.00    +0.000 C 
ATOM     20  O   UNL     1      47.268   2.991  14.239  0.00  0.00    +0.000 OA
ATOM     21  H   UNL     1      46.921   5.354  16.283  0.00  0.00    +0.000 HD
BRANCH  19  22
ATOM     22  C   UNL     1      46.590   5.196  13.740  0.00  0.00    +0.000 A 
ATOM     23  C   UNL     1      47.480   6.236  13.516  0.00  0.00    +0.000 A 
ATOM     24  S   UNL     1      46.911   7.390  12.393  0.00  0.00    +0.000 S 
ATOM     25  C   UNL     1      45.434   6.556  12.203  0.00  0.00    +0.000 A 
ATOM     26  N   UNL     1      44.461   7.035  11.388  0.00  0.00    +0.000 NA
ATOM     27  C   UNL     1      43.385   6.318  11.364  0.00  0.00    +0.000 A 
ATOM     28  N   UNL     1      43.202   5.161  12.073  0.00  0.00    +0.000 N 
ATOM     29  C   UNL     1      44.171   4.625  12.882  0.00  0.00    +0.000 A 
ATOM     30  O   UNL     1      43.999   3.554  13.462  0.00  0.00    +0.000 OA
ATOM     31  C   UNL     1      45.392   5.402  12.968  0.00  0.00    +0.000 A 
ATOM     32  H   UNL     1      42.343   4.637  11.995  0.00  0.00    +0.000 HD
ENDBRANCH  19  22
ENDBRANCH  17  18
ENDBRANCH   4  17
TORSDOF 6
ENDMDL
MODEL 6
REMARK VINA RESULT:    -6.374      1.544      2.674
REMARK INTER + INTRA:          -9.500
REMARK INTER:                  -8.789
REMARK INTRA:                  -0.710
REMARK UNBOUND:                -1.076
REMARK  Name = 
REMARK  6 active torsions:
REMARK  status: ('A' for Active; 'I' for Inactive)
REMARK    1  A    between atoms: N_1  and  C_2
REMARK    2  A    between atoms: C_6  and  C_7
REMARK    3  A    between atoms: C_7  and  C_8
REMARK    4  A    between atoms: C_11  and  C_12
REMARK    5  A    between atoms: C_12  and  N_13
REMARK    6  A    between atoms: C_14  and  C_16
REMARK                            x       y       z     vdW  Elec       q    Type
REMARK                         _______ _______ _______ _____ _____    ______ ____
ROOT
ATOM      1  C   UNL     1      47.394   4.969  14.383  0.00  0.00    +0.000 A 
ATOM      2  C   UNL     1      47.847   5.790  15.411  0.00  0.00    +0.000 A 
ATOM      3  C   UNL     1      48.283   5.208  16.601  0.00  0.00    +0.000 A 
ATOM      4  C   UNL     1      48.181   3.828  16.785  0.00  0.00    +0.000 A 
ATOM      5  C   UNL     1      47.665   3.093  15.723  0.00  0.00    +0.000 A 
ATOM      6  N   UNL     1      47.287   3.626  14.534  0.00  0.00    +0.000 NA
ENDROOT
BRANCH   1   7
ATOM      7  C   UNL     1      47.055   5.546  13.027  0.00  0.00    +0.000 C 
BRANCH   7  12
ATOM      8  C   UNL     1      44.734   3.571  12.091  0.00  0.00    +0.000 C 
ATOM      9  C   UNL     1      44.457   4.121  10.686  0.00  0.00    +0.000 C 
ATOM     10  C   UNL     1      45.336   5.326  10.362  0.00  0.00    +0.000 C 
ATOM     11  C   UNL     1      45.201   6.404  11.432  0.00  0.00    +0.000 C 
ATOM     12  C   UNL     1      45.551   5.884  12.838  0.00  0.00    +0.000 C 
ATOM     13  C   UNL     1      44.657   4.670  13.160  0.00  0.00    +0.000 C 
BRANCH   8  14
ATOM     14  N   UNL     1      43.777   2.510  12.411  0.00  0.00    +0.000 NA
ATOM     15  H   UNL     1      44.274   1.716  12.816  0.00  0.00    +0.000 HD
ATOM     16  H   UNL     1      43.351   2.161  11.553  0.00  0.00    +0.000 HD
ENDBRANCH   8  14
ENDBRANCH   7  12
ENDBRANCH   1   7
BRANCH   4  17
ATOM     17  C   UNL     1      48.625   3.172  18.063  0.00  0.00    +0.000 C 
BRANCH  17  18
ATOM     18  N   UNL     1      50.052   3.262  18.247  0.00  0.00    +0.000 N 
ATOM     19  C   UNL     1      50.927   2.495  17.516  0.00  0.00    +0.000 C 
ATOM     20  O   UNL     1      50.550   1.707  16.651  0.00  0.00    +0.000 OA
ATOM     21  H   UNL     1      50.373   3.620  19.140  0.00  0.00    +0.000 HD
BRANCH  19  22
ATOM     22  C   UNL     1      52.359   2.712  17.787  0.00  0.00    +0.000 A 
ATOM     23  C   UNL     1      53.161   1.652  18.184  0.00  0.00    +0.000 A 
ATOM     24  S   UNL     1      54.797   2.084  18.411  0.00  0.00    +0.000 S 
ATOM     25  C   UNL     1      54.476   3.716  18.028  0.00  0.00    +0.000 A 
ATOM     26  N   UNL     1      55.461   4.649  18.065  0.00  0.00    +0.000 NA
ATOM     27  C   UNL     1      55.069   5.849  17.781  0.00  0.00    +0.000 A 
ATOM     28  N   UNL     1      53.785   6.193  17.453  0.00  0.00    +0.000 N 
ATOM     29  C   UNL     1      52.768   5.277  17.373  0.00  0.00    +0.000 A 
ATOM     30  O   UNL     1      51.636   5.607  17.021  0.00  0.00    +0.000 OA
ATOM     31  C   UNL     1      53.144   3.917  17.707  0.00  0.00    +0.000 A 
ATOM     32  H   UNL     1      53.548   7.147  17.224  0.00  0.00    +0.000 HD
ENDBRANCH  19  22
ENDBRANCH  17  18
ENDBRANCH   4  17
TORSDOF 6
ENDMDL
MODEL 7
REMARK VINA RESULT:    -6.319      3.297      4.074
REMARK INTER + INTRA:          -9.427
REMARK INTER:                  -8.141
REMARK INTRA:                  -1.286
REMARK UNBOUND:                -1.076
REMARK  Name = 
REMARK  6 active torsions:
REMARK  status: ('A' for Active; 'I' for Inactive)
REMARK    1  A    between atoms: N_1  and  C_2
REMARK    2  A    between atoms: C_6  and  C_7
REMARK    3  A    between atoms: C_7  and  C_8
REMARK    4  A    between atoms: C_11  and  C_12
REMARK    5  A    between atoms: C_12  and  N_13
REMARK    6  A    between atoms: C_14  and  C_16
REMARK                            x       y       z     vdW  Elec       q    Type
REMARK                         _______ _______ _______ _____ _____    ______ ____
ROOT
ATOM      1  C   UNL     1      46.293   7.476  11.954  0.00  0.00    +0.000 A 
ATOM      2  C   UNL     1      47.588   6.998  11.786  0.00  0.00    +0.000 A 
ATOM      3  C   UNL     1      48.584   7.416  12.667  0.00  0.00    +0.000 A 
ATOM      4  C   UNL     1      48.299   8.370  13.647  0.00  0.00    +0.000 A 
ATOM      5  C   UNL     1      46.989   8.833  13.705  0.00  0.00    +0.000 A 
ATOM      6  N   UNL     1      45.987   8.400  12.898  0.00  0.00    +0.000 NA
ENDROOT
BRANCH   1   7
ATOM      7  C   UNL     1      45.155   6.935  11.117  0.00  0.00    +0.000 C 
BRANCH   7  12
ATOM      8  C   UNL     1      45.335   3.888  12.037  0.00  0.00    +0.000 C 
ATOM      9  C   UNL     1      44.283   3.261  11.112  0.00  0.00    +0.000 C 
ATOM     10  C   UNL     1      43.616   4.303  10.218  0.00  0.00    +0.000 C 
ATOM     11  C   UNL     1      43.036   5.443  11.048  0.00  0.00    +0.000 C 
ATOM     12  C   UNL     1      44.099   6.132  11.924  0.00  0.00    +0.000 C 
ATOM     13  C   UNL     1      44.765   5.074  12.827  0.00  0.00    +0.000 C 
BRANCH   8  14
ATOM     14  N   UNL     1      45.846   2.880  12.969  0.00  0.00    +0.000 NA
ATOM     15  H   UNL     1      45.142   2.154  13.101  0.00  0.00    +0.000 HD
ATOM     16  H   UNL     1      45.984   3.301  13.887  0.00  0.00    +0.000 HD
ENDBRANCH   8  14
ENDBRANCH   7  12
ENDBRANCH   1   7
BRANCH   4  17
ATOM     17  C   UNL     1      49.356   8.855  14.600  0.00  0.00    +0.000 C 
BRANCH  17  18
ATOM     18  N   UNL     1      49.430   8.035  15.784  0.00  0.00    +0.000 N 
ATOM     19  C   UNL     1      48.720   8.338  16.921  0.00  0.00    +0.000 C 
ATOM     20  O   UNL     1      47.967   9.305  16.990  0.00  0.00    +0.000 OA
ATOM     21  H   UNL     1      50.259   7.459  15.886  0.00  0.00    +0.000 HD
BRANCH  19  22
ATOM     22  C   UNL     1      48.869   7.395  18.045  0.00  0.00    +0.000 A 
ATOM     23  C   UNL     1      49.188   7.867  19.310  0.00  0.00    +0.000 A 
ATOM     24  S   UNL     1      49.277   6.637  20.492  0.00  0.00    +0.000 S 
ATOM     25  C   UNL     1      48.933   5.428  19.337  0.00  0.00    +0.000 A 
ATOM     26  N   UNL     1      48.891   4.118  19.689  0.00  0.00    +0.000 NA
ATOM     27  C   UNL     1      48.651   3.310  18.708  0.00  0.00    +0.000 A 
ATOM     28  N   UNL     1      48.437   3.698  17.413  0.00  0.00    +0.000 N 
ATOM     29  C   UNL     1      48.438   5.012  17.021  0.00  0.00    +0.000 A 
ATOM     30  O   UNL     1      48.187   5.333  15.860  0.00  0.00    +0.000 OA
ATOM     31  C   UNL     1      48.730   5.962  18.076  0.00  0.00    +0.000 A 
ATOM     32  H   UNL     1      48.234   3.017  16.696  0.00  0.00    +0.000 HD
ENDBRANCH  19  22
ENDBRANCH  17  18
ENDBRANCH   4  17
TORSDOF 6
ENDMDL
MODEL 8
REMARK VINA RESULT:    -5.993      2.542      3.631
REMARK INTER + INTRA:          -8.995
REMARK INTER:                  -7.952
REMARK INTRA:                  -1.043
REMARK UNBOUND:                -1.076
REMARK  Name = 
REMARK  6 active torsions:
REMARK  status: ('A' for Active; 'I' for Inactive)
REMARK    1  A    between atoms: N_1  and  C_2
REMARK    2  A    between atoms: C_6  and  C_7
REMARK    3  A    between atoms: C_7  and  C_8
REMARK    4  A    between atoms: C_11  and  C_12
REMARK    5  A    between atoms: C_12  and  N_13
REMARK    6  A    between atoms: C_14  and  C_16
REMARK                            x       y       z     vdW  Elec       q    Type
REMARK                         _______ _______ _______ _____ _____    ______ ____
ROOT
ATOM      1  C   UNL     1      46.094   7.384  12.088  0.00  0.00    +0.000 A 
ATOM      2  C   UNL     1      46.250   8.394  13.031  0.00  0.00    +0.000 A 
ATOM      3  C   UNL     1      47.527   8.890  13.287  0.00  0.00    +0.000 A 
ATOM      4  C   UNL     1      48.640   8.316  12.669  0.00  0.00    +0.000 A 
ATOM      5  C   UNL     1      48.392   7.273  11.783  0.00  0.00    +0.000 A 
ATOM      6  N   UNL     1      47.155   6.809  11.471  0.00  0.00    +0.000 NA
ENDROOT
BRANCH   1   7
ATOM      7  C   UNL     1      44.714   6.922  11.672  0.00  0.00    +0.000 C 
BRANCH   7  12
ATOM      8  C   UNL     1      45.236   3.852  12.353  0.00  0.00    +0.000 C 
ATOM      9  C   UNL     1      43.956   3.225  11.783  0.00  0.00    +0.000 C 
ATOM     10  C   UNL     1      43.020   4.276  11.193  0.00  0.00    +0.000 C 
ATOM     11  C   UNL     1      42.713   5.368  12.212  0.00  0.00    +0.000 C 
ATOM     12  C   UNL     1      43.986   6.058  12.736  0.00  0.00    +0.000 C 
ATOM     13  C   UNL     1      44.924   4.991  13.334  0.00  0.00    +0.000 C 
BRANCH   8  14
ATOM     14  N   UNL     1      46.036   2.829  13.031  0.00  0.00    +0.000 NA
ATOM     15  H   UNL     1      46.980   2.829  12.645  0.00  0.00    +0.000 HD
ATOM     16  H   UNL     1      45.655   1.906  12.829  0.00  0.00    +0.000 HD
ENDBRANCH   8  14
ENDBRANCH   7  12
ENDBRANCH   1   7
BRANCH   4  17
ATOM     17  C   UNL     1      50.032   8.815  12.938  0.00  0.00    +0.000 C 
BRANCH  17  18
ATOM     18  N   UNL     1      50.769   7.918  13.794  0.00  0.00    +0.000 N 
ATOM     19  C   UNL     1      50.787   8.071  15.159  0.00  0.00    +0.000 C 
ATOM     20  O   UNL     1      50.162   8.960  15.732  0.00  0.00    +0.000 OA
ATOM     21  H   UNL     1      51.537   7.411  13.366  0.00  0.00    +0.000 HD
BRANCH  19  22
ATOM     22  C   UNL     1      51.557   7.063  15.911  0.00  0.00    +0.000 A 
ATOM     23  C   UNL     1      52.944   7.093  15.895  0.00  0.00    +0.000 A 
ATOM     24  S   UNL     1      53.662   5.877  16.855  0.00  0.00    +0.000 S 
ATOM     25  C   UNL     1      52.138   5.244  17.290  0.00  0.00    +0.000 A 
ATOM     26  N   UNL     1      52.038   4.150  18.087  0.00  0.00    +0.000 NA
ATOM     27  C   UNL     1      50.824   3.763  18.309  0.00  0.00    +0.000 A 
ATOM     28  N   UNL     1      49.705   4.378  17.814  0.00  0.00    +0.000 N 
ATOM     29  C   UNL     1      49.761   5.503  17.032  0.00  0.00    +0.000 A 
ATOM     30  O   UNL     1      48.737   6.067  16.649  0.00  0.00    +0.000 OA
ATOM     31  C   UNL     1      51.101   5.968  16.728  0.00  0.00    +0.000 A 
ATOM     32  H   UNL     1      48.784   4.036  18.042  0.00  0.00    +0.000 HD
ENDBRANCH  19  22
ENDBRANCH  17  18
ENDBRANCH   4  17
TORSDOF 6
ENDMDL
MODEL 9
REMARK VINA RESULT:    -5.825      3.229      9.016
REMARK INTER + INTRA:          -8.773
REMARK INTER:                  -7.916
REMARK INTRA:                  -0.858
REMARK UNBOUND:                -1.076
REMARK  Name = 
REMARK  6 active torsions:
REMARK  status: ('A' for Active; 'I' for Inactive)
REMARK    1  A    between atoms: N_1  and  C_2
REMARK    2  A    between atoms: C_6  and  C_7
REMARK    3  A    between atoms: C_7  and  C_8
REMARK    4  A    between atoms: C_11  and  C_12
REMARK    5  A    between atoms: C_12  and  N_13
REMARK    6  A    between atoms: C_14  and  C_16
REMARK                            x       y       z     vdW  Elec       q    Type
REMARK                         _______ _______ _______ _____ _____    ______ ____
ROOT
ATOM      1  C   UNL     1      50.860   5.083  17.211  0.00  0.00    +0.000 A 
ATOM      2  C   UNL     1      49.485   5.145  17.408  0.00  0.00    +0.000 A 
ATOM      3  C   UNL     1      48.753   6.143  16.767  0.00  0.00    +0.000 A 
ATOM      4  C   UNL     1      49.408   7.118  16.010  0.00  0.00    +0.000 A 
ATOM      5  C   UNL     1      50.791   7.007  15.915  0.00  0.00    +0.000 A 
ATOM      6  N   UNL     1      51.522   6.013  16.480  0.00  0.00    +0.000 NA
ENDROOT
BRANCH   1   7
ATOM      7  C   UNL     1      51.668   3.930  17.766  0.00  0.00    +0.000 C 
BRANCH   7  12
ATOM      8  C   UNL     1      53.923   1.987  18.908  0.00  0.00    +0.000 C 
ATOM      9  C   UNL     1      54.263   2.706  20.220  0.00  0.00    +0.000 C 
ATOM     10  C   UNL     1      53.449   3.984  20.398  0.00  0.00    +0.000 C 
ATOM     11  C   UNL     1      53.603   4.902  19.190  0.00  0.00    +0.000 C 
ATOM     12  C   UNL     1      53.190   4.217  17.874  0.00  0.00    +0.000 C 
ATOM     13  C   UNL     1      54.020   2.929  17.700  0.00  0.00    +0.000 C 
BRANCH   8  14
ATOM     14  N   UNL     1      54.822   0.848  18.713  0.00  0.00    +0.000 NA
ATOM     15  H   UNL     1      54.289  -0.019  18.782  0.00  0.00    +0.000 HD
ATOM     16  H   UNL     1      55.503   0.815  19.471  0.00  0.00    +0.000 HD
ENDBRANCH   8  14
ENDBRANCH   7  12
ENDBRANCH   1   7
BRANCH   4  17
ATOM     17  C   UNL     1      48.650   8.218  15.322  0.00  0.00    +0.000 C 
BRANCH  17  18
ATOM     18  N   UNL     1      47.513   7.713  14.593  0.00  0.00    +0.000 N 
ATOM     19  C   UNL     1      47.650   7.091  13.376  0.00  0.00    +0.000 C 
ATOM     20  O   UNL     1      48.744   6.906  12.849  0.00  0.00    +0.000 OA
ATOM     21  H   UNL     1      46.613   8.130  14.810  0.00  0.00    +0.000 HD
BRANCH  19  22
ATOM     22  C   UNL     1      46.405   6.598  12.758  0.00  0.00    +0.000 A 
ATOM     23  C   UNL     1      45.532   7.487  12.150  0.00  0.00    +0.000 A 
ATOM     24  S   UNL     1      44.167   6.732  11.454  0.00  0.00    +0.000 S 
ATOM     25  C   UNL     1      44.680   5.193  11.984  0.00  0.00    +0.000 A 
ATOM     26  N   UNL     1      43.934   4.086  11.742  0.00  0.00    +0.000 NA
ATOM     27  C   UNL     1      44.428   2.994  12.228  0.00  0.00    +0.000 A 
ATOM     28  N   UNL     1      45.607   2.911  12.920  0.00  0.00    +0.000 N 
ATOM     29  C   UNL     1      46.407   3.999  13.157  0.00  0.00    +0.000 A 
ATOM     30  O   UNL     1      47.488   3.884  13.733  0.00  0.00    +0.000 OA
ATOM     31  C   UNL     1      45.888   5.258  12.659  0.00  0.00    +0.000 A 
ATOM     32  H   UNL     1      45.947   2.022  13.256  0.00  0.00    +0.000 HD
ENDBRANCH  19  22
ENDBRANCH  17  18
ENDBRANCH   4  17
TORSDOF 6
ENDMDL
