MODEL 1
REMARK VINA RESULT:    -5.945      0.000      0.000
REMARK INTER + INTRA:         -10.516
REMARK INTER:                  -8.725
REMARK INTRA:                  -1.791
REMARK UNBOUND:                -1.791
REMARK  Name = 
REMARK  10 active torsions:
REMARK  status: ('A' for Active; 'I' for Inactive)
REMARK    1  A    between atoms: C_1  and  O_2
REMARK    2  A    between atoms: O_2  and  C_3
REMARK    3  A    between atoms: C_10  and  C_11
REMARK    4  A    between atoms: N_13  and  C_14
REMARK    5  A    between atoms: C_14  and  C_15
REMARK    6  A    between atoms: C_18  and  C_19
REMARK    7  A    between atoms: C_19  and  N_20
REMARK    8  A    between atoms: N_20  and  C_21
REMARK    9  A    between atoms: C_21  and  C_22
REMARK   10  A    between atoms: C_26  and  C_27
REMARK                            x       y       z     vdW  Elec       q    Type
REMARK                         _______ _______ _______ _____ _____    ______ ____
ROOT
ATOM      1  C   UNL     1      49.568   8.699  15.627  0.00  0.00    +0.000 A 
ATOM      2  C   UNL     1      50.745   8.997  16.324  0.00  0.00    +0.000 A 
ATOM      3  C   UNL     1      50.756   9.022  17.722  0.00  0.00    +0.000 A 
ATOM      4  C   UNL     1      49.593   8.767  18.468  0.00  0.00    +0.000 A 
ATOM      5  C   UNL     1      48.426   8.429  17.767  0.00  0.00    +0.000 A 
ATOM      6  C   UNL     1      48.416   8.393  16.364  0.00  0.00    +0.000 A 
ENDROOT
BRANCH   1   7
ATOM      7  C   UNL     1      49.565   8.648  14.120  0.00  0.00    +0.000 C 
BRANCH   7  10
ATOM      8  C   UNL     1      48.078   7.024  13.014  0.00  0.00    +0.000 C 
ATOM      9  O   UNL     1      49.004   6.233  12.849  0.00  0.00    +0.000 OA
ATOM     10  N   UNL     1      48.277   8.237  13.624  0.00  0.00    +0.000 N 
ATOM     11  H   UNL     1      47.525   8.904  13.675  0.00  0.00    +0.000 HD
BRANCH   8  19
ATOM     12  C   UNL     1      46.152   4.172  13.146  0.00  0.00    +0.000 A 
ATOM     13  N   UNL     1      45.220   3.206  13.019  0.00  0.00    +0.000 NA
ATOM     14  C   UNL     1      44.077   3.512  12.398  0.00  0.00    +0.000 A 
ATOM     15  N   UNL     1      43.738   4.690  11.884  0.00  0.00    +0.000 NA
ATOM     16  C   UNL     1      44.691   5.626  12.033  0.00  0.00    +0.000 A 
ATOM     17  S   UNL     1      44.422   7.197  11.450  0.00  0.00    +0.000 S 
ATOM     18  C   UNL     1      45.961   7.703  11.960  0.00  0.00    +0.000 A 
ATOM     19  C   UNL     1      46.708   6.706  12.578  0.00  0.00    +0.000 A 
ATOM     20  C   UNL     1      45.933   5.466  12.641  0.00  0.00    +0.000 A 
BRANCH  12  22
ATOM     21  C   UNL     1      47.192   4.162  15.245  0.00  0.00    +0.000 C 
ATOM     22  O   UNL     1      47.297   3.878  13.853  0.00  0.00    +0.000 OA
ENDBRANCH  12  22
ENDBRANCH   8  19
ENDBRANCH   7  10
ENDBRANCH   1   7
BRANCH   4  23
ATOM     23  C   UNL     1      49.609   8.821  19.989  0.00  0.00    +0.000 C 
BRANCH  23  24
ATOM     24  N   UNL     1      49.598   7.466  20.546  0.00  0.00    +0.000 NA
ATOM     25  H   UNL     1      48.912   6.924  20.021  0.00  0.00    +0.000 HD
BRANCH  24  26
ATOM     26  C   UNL     1      50.887   6.776  20.517  0.00  0.00    +0.000 C 
BRANCH  26  27
ATOM     27  C   UNL     1      50.625   5.262  20.298  0.00  0.00    +0.000 C 
ATOM     28  C   UNL     1      51.916   4.403  20.173  0.00  0.00    +0.000 C 
ATOM     29  C   UNL     1      52.405   4.126  18.746  0.00  0.00    +0.000 C 
ATOM     30  N   UNL     1      51.291   3.825  17.854  0.00  0.00    +0.000 N 
ATOM     31  C   UNL     1      50.932   2.593  17.327  0.00  0.00    +0.000 C 
ATOM     32  C   UNL     1      51.793   1.380  17.575  0.00  0.00    +0.000 C 
ATOM     33  O   UNL     1      49.916   2.453  16.637  0.00  0.00    +0.000 OA
ATOM     34  C   UNL     1      50.314   4.905  17.788  0.00  0.00    +0.000 C 
ATOM     35  C   UNL     1      49.632   5.012  19.144  0.00  0.00    +0.000 C 
ENDBRANCH  26  27
ENDBRANCH  24  26
ENDBRANCH  23  24
ENDBRANCH   4  23
TORSDOF 8
ENDMDL
MODEL 2
REMARK VINA RESULT:    -5.637      6.377      9.346
REMARK INTER + INTRA:         -10.064
REMARK INTER:                  -8.951
REMARK INTRA:                  -1.113
REMARK UNBOUND:                -1.791
REMARK  Name = 
REMARK  10 active torsions:
REMARK  status: ('A' for Active; 'I' for Inactive)
REMARK    1  A    between atoms: C_1  and  O_2
REMARK    2  A    between atoms: O_2  and  C_3
REMARK    3  A    between atoms: C_10  and  C_11
REMARK    4  A    between atoms: N_13  and  C_14
REMARK    5  A    between atoms: C_14  and  C_15
REMARK    6  A    between atoms: C_18  and  C_19
REMARK    7  A    between atoms: C_19  and  N_20
REMARK    8  A    between atoms: N_20  and  C_21
REMARK    9  A    between atoms: C_21  and  C_22
REMARK   10  A    between atoms: C_26  and  C_27
REMARK                            x       y       z     vdW  Elec       q    Type
REMARK                         _______ _______ _______ _____ _____    ______ ____
ROOT
ATOM      1  C   UNL     1      51.314   8.806  11.032  0.00  0.00    +0.000 A 
ATOM      2  C   UNL     1      50.775  10.098  11.069  0.00  0.00    +0.000 A 
ATOM      3  C   UNL     1      49.439  10.300  11.430  0.00  0.00    +0.000 A 
ATOM      4  C   UNL     1      48.596   9.223  11.748  0.00  0.00    +0.000 A 
ATOM      5  C   UNL     1      49.151   7.934  11.749  0.00  0.00    +0.000 A 
ATOM      6  C   UNL     1      50.494   7.730  11.397  0.00  0.00    +0.000 A 
ENDROOT
BRANCH   1   7
ATOM      7  C   UNL     1      52.763   8.593  10.667  0.00  0.00    +0.000 C 
BRANCH   7  10
ATOM      8  C   UNL     1      52.808   7.816   8.330  0.00  0.00    +0.000 C 
ATOM      9  O   UNL     1      52.483   6.679   8.663  0.00  0.00    +0.000 OA
ATOM     10  N   UNL     1      52.974   8.811   9.260  0.00  0.00    +0.000 N 
ATOM     11  H   UNL     1      53.321   9.713   8.976  0.00  0.00    +0.000 HD
BRANCH   8  19
ATOM     12  C   UNL     1      54.473   6.289   5.731  0.00  0.00    +0.000 A 
ATOM     13  N   UNL     1      55.084   5.948   4.578  0.00  0.00    +0.000 NA
ATOM     14  C   UNL     1      54.989   6.789   3.544  0.00  0.00    +0.000 A 
ATOM     15  N   UNL     1      54.341   7.949   3.514  0.00  0.00    +0.000 NA
ATOM     16  C   UNL     1      53.745   8.251   4.680  0.00  0.00    +0.000 A 
ATOM     17  S   UNL     1      52.857   9.691   4.820  0.00  0.00    +0.000 S 
ATOM     18  C   UNL     1      52.489   9.365   6.445  0.00  0.00    +0.000 A 
ATOM     19  C   UNL     1      53.024   8.171   6.917  0.00  0.00    +0.000 A 
ATOM     20  C   UNL     1      53.757   7.493   5.848  0.00  0.00    +0.000 A 
BRANCH  12  22
ATOM     21  C   UNL     1      53.715   4.225   6.540  0.00  0.00    +0.000 C 
ATOM     22  O   UNL     1      54.506   5.387   6.772  0.00  0.00    +0.000 OA
ENDBRANCH  12  22
ENDBRANCH   8  19
ENDBRANCH   7  10
ENDBRANCH   1   7
BRANCH   4  23
ATOM     23  C   UNL     1      47.136   9.450  12.115  0.00  0.00    +0.000 C 
BRANCH  23  24
ATOM     24  N   UNL     1      46.701   8.460  13.103  0.00  0.00    +0.000 NA
ATOM     25  H   UNL     1      46.647   8.931  14.006  0.00  0.00    +0.000 HD
BRANCH  24  26
ATOM     26  C   UNL     1      45.419   7.819  12.812  0.00  0.00    +0.000 C 
BRANCH  26  27
ATOM     27  C   UNL     1      45.669   6.301  12.604  0.00  0.00    +0.000 C 
ATOM     28  C   UNL     1      46.137   5.923  11.169  0.00  0.00    +0.000 C 
ATOM     29  C   UNL     1      45.036   5.477  10.199  0.00  0.00    +0.000 C 
ATOM     30  N   UNL     1      44.070   4.606  10.858  0.00  0.00    +0.000 N 
ATOM     31  C   UNL     1      43.922   3.234  10.711  0.00  0.00    +0.000 C 
ATOM     32  C   UNL     1      44.752   2.484   9.700  0.00  0.00    +0.000 C 
ATOM     33  O   UNL     1      43.109   2.593  11.385  0.00  0.00    +0.000 OA
ATOM     34  C   UNL     1      43.425   5.242  12.000  0.00  0.00    +0.000 C 
ATOM     35  C   UNL     1      44.474   5.452  13.083  0.00  0.00    +0.000 C 
ENDBRANCH  26  27
ENDBRANCH  24  26
ENDBRANCH  23  24
ENDBRANCH   4  23
TORSDOF 8
ENDMDL
MODEL 3
REMARK VINA RESULT:    -5.298      5.936      9.113
REMARK INTER + INTRA:          -9.566
REMARK INTER:                  -8.129
REMARK INTRA:                  -1.437
REMARK UNBOUND:                -1.791
REMARK  Name = 
REMARK  10 active torsions:
REMARK  status: ('A' for Active; 'I' for Inactive)
REMARK    1  A    between atoms: C_1  and  O_2
REMARK    2  A    between atoms: O_2  and  C_3
REMARK    3  A    between atoms: C_10  and  C_11
REMARK    4  A    between atoms: N_13  and  C_14
REMARK    5  A    between atoms: C_14  and  C_15
REMARK    6  A    between atoms: C_18  and  C_19
REMARK    7  A    between atoms: C_19  and  N_20
REMARK    8  A    between atoms: N_20  and  C_21
REMARK    9  A    between atoms: C_21  and  C_22
REMARK   10  A    between atoms: C_26  and  C_27
REMARK                            x       y       z     vdW  Elec       q    Type
REMARK                         _______ _______ _______ _____ _____    ______ ____
ROOT
ATOM      1  C   UNL     1      51.766   8.716  11.307  0.00  0.00    +0.000 A 
ATOM      2  C   UNL     1      51.376  10.051  11.145  0.00  0.00    +0.000 A 
ATOM      3  C   UNL     1      50.038  10.425  11.302  0.00  0.00    +0.000 A 
ATOM      4  C   UNL     1      49.045   9.480  11.609  0.00  0.00    +0.000 A 
ATOM      5  C   UNL     1      49.445   8.151  11.810  0.00  0.00    +0.000 A 
ATOM      6  C   UNL     1      50.790   7.776  11.664  0.00  0.00    +0.000 A 
ENDROOT
BRANCH   1   7
ATOM      7  C   UNL     1      53.214   8.320  11.162  0.00  0.00    +0.000 C 
BRANCH   7  10
ATOM      8  C   UNL     1      53.514   6.834   9.219  0.00  0.00    +0.000 C 
ATOM      9  O   UNL     1      53.213   5.845   9.883  0.00  0.00    +0.000 OA
ATOM     10  N   UNL     1      53.545   8.087   9.781  0.00  0.00    +0.000 N 
ATOM     11  H   UNL     1      53.874   8.871   9.243  0.00  0.00    +0.000 HD
BRANCH   8  19
ATOM     12  C   UNL     1      53.046   8.924   6.522  0.00  0.00    +0.000 A 
ATOM     13  N   UNL     1      52.942   9.506   5.310  0.00  0.00    +0.000 NA
ATOM     14  C   UNL     1      53.391   8.831   4.248  0.00  0.00    +0.000 A 
ATOM     15  N   UNL     1      53.949   7.625   4.245  0.00  0.00    +0.000 NA
ATOM     16  C   UNL     1      54.037   7.081   5.471  0.00  0.00    +0.000 A 
ATOM     17  S   UNL     1      54.739   5.546   5.658  0.00  0.00    +0.000 S 
ATOM     18  C   UNL     1      54.467   5.572   7.334  0.00  0.00    +0.000 A 
ATOM     19  C   UNL     1      53.844   6.730   7.788  0.00  0.00    +0.000 A 
ATOM     20  C   UNL     1      53.609   7.643   6.669  0.00  0.00    +0.000 A 
BRANCH  12  22
ATOM     21  C   UNL     1      52.265  10.985   7.315  0.00  0.00    +0.000 C 
ATOM     22  O   UNL     1      52.654   9.650   7.625  0.00  0.00    +0.000 OA
ENDBRANCH  12  22
ENDBRANCH   8  19
ENDBRANCH   7  10
ENDBRANCH   1   7
BRANCH   4  23
ATOM     23  C   UNL     1      47.587   9.892  11.753  0.00  0.00    +0.000 C 
BRANCH  23  24
ATOM     24  N   UNL     1      46.870   8.935  12.599  0.00  0.00    +0.000 NA
ATOM     25  H   UNL     1      46.904   9.285  13.557  0.00  0.00    +0.000 HD
BRANCH  24  26
ATOM     26  C   UNL     1      45.478   8.695  12.219  0.00  0.00    +0.000 C 
BRANCH  26  27
ATOM     27  C   UNL     1      45.394   7.311  11.523  0.00  0.00    +0.000 C 
ATOM     28  C   UNL     1      43.953   6.732  11.427  0.00  0.00    +0.000 C 
ATOM     29  C   UNL     1      43.544   5.760  12.540  0.00  0.00    +0.000 C 
ATOM     30  N   UNL     1      44.631   4.845  12.872  0.00  0.00    +0.000 N 
ATOM     31  C   UNL     1      44.735   3.498  12.558  0.00  0.00    +0.000 C 
ATOM     32  C   UNL     1      43.593   2.786  11.877  0.00  0.00    +0.000 C 
ATOM     33  O   UNL     1      45.747   2.844  12.832  0.00  0.00    +0.000 OA
ATOM     34  C   UNL     1      45.837   5.539  13.308  0.00  0.00    +0.000 C 
ATOM     35  C   UNL     1      46.400   6.306  12.119  0.00  0.00    +0.000 C 
ENDBRANCH  26  27
ENDBRANCH  24  26
ENDBRANCH  23  24
ENDBRANCH   4  23
TORSDOF 8
ENDMDL
MODEL 4
REMARK VINA RESULT:    -5.233      5.429     10.549
REMARK INTER + INTRA:          -9.472
REMARK INTER:                  -8.677
REMARK INTRA:                  -0.794
REMARK UNBOUND:                -1.791
REMARK  Name = 
REMARK  10 active torsions:
REMARK  status: ('A' for Active; 'I' for Inactive)
REMARK    1  A    between atoms: C_1  and  O_2
REMARK    2  A    between atoms: O_2  and  C_3
REMARK    3  A    between atoms: C_10  and  C_11
REMARK    4  A    between atoms: N_13  and  C_14
REMARK    5  A    between atoms: C_14  and  C_15
REMARK    6  A    between atoms: C_18  and  C_19
REMARK    7  A    between atoms: C_19  and  N_20
REMARK    8  A    between atoms: N_20  and  C_21
REMARK    9  A    between atoms: C_21  and  C_22
REMARK   10  A    between atoms: C_26  and  C_27
REMARK                            x       y       z     vdW  Elec       q    Type
REMARK                         _______ _______ _______ _____ _____    ______ ____
ROOT
ATOM      1  C   UNL     1      52.486   1.811  17.869  0.00  0.00    +0.000 A 
ATOM      2  C   UNL     1      51.329   1.225  17.343  0.00  0.00    +0.000 A 
ATOM      3  C   UNL     1      50.186   1.995  17.107  0.00  0.00    +0.000 A 
ATOM      4  C   UNL     1      50.155   3.368  17.403  0.00  0.00    +0.000 A 
ATOM      5  C   UNL     1      51.329   3.960  17.891  0.00  0.00    +0.000 A 
ATOM      6  C   UNL     1      52.481   3.190  18.119  0.00  0.00    +0.000 A 
ENDROOT
BRANCH   1   7
ATOM      7  C   UNL     1      53.725   0.983  18.099  0.00  0.00    +0.000 C 
BRANCH   7  10
ATOM      8  C   UNL     1      54.323  -1.307  18.786  0.00  0.00    +0.000 C 
ATOM      9  O   UNL     1      55.517  -1.023  18.826  0.00  0.00    +0.000 OA
ATOM     10  N   UNL     1      53.380  -0.376  18.428  0.00  0.00    +0.000 N 
ATOM     11  H   UNL     1      52.417  -0.650  18.320  0.00  0.00    +0.000 HD
BRANCH   8  19
ATOM     12  C   UNL     1      54.332  -4.322  17.121  0.00  0.00    +0.000 A 
ATOM     13  N   UNL     1      54.155  -5.585  16.686  0.00  0.00    +0.000 NA
ATOM     14  C   UNL     1      53.511  -6.441  17.484  0.00  0.00    +0.000 A 
ATOM     15  N   UNL     1      53.016  -6.190  18.692  0.00  0.00    +0.000 NA
ATOM     16  C   UNL     1      53.215  -4.922  19.090  0.00  0.00    +0.000 A 
ATOM     17  S   UNL     1      52.662  -4.426  20.617  0.00  0.00    +0.000 S 
ATOM     18  C   UNL     1      53.227  -2.845  20.363  0.00  0.00    +0.000 A 
ATOM     19  C   UNL     1      53.841  -2.656  19.130  0.00  0.00    +0.000 A 
ATOM     20  C   UNL     1      53.852  -3.911  18.378  0.00  0.00    +0.000 A 
BRANCH  12  22
ATOM     21  C   UNL     1      54.610  -3.408  14.982  0.00  0.00    +0.000 C 
ATOM     22  O   UNL     1      55.063  -3.461  16.332  0.00  0.00    +0.000 OA
ENDBRANCH  12  22
ENDBRANCH   8  19
ENDBRANCH   7  10
ENDBRANCH   1   7
BRANCH   4  23
ATOM     23  C   UNL     1      48.898   4.194  17.166  0.00  0.00    +0.000 C 
BRANCH  23  24
ATOM     24  N   UNL     1      48.056   3.559  16.149  0.00  0.00    +0.000 NA
ATOM     25  H   UNL     1      47.514   2.829  16.612  0.00  0.00    +0.000 HD
BRANCH  24  26
ATOM     26  C   UNL     1      47.150   4.464  15.444  0.00  0.00    +0.000 C 
BRANCH  26  27
ATOM     27  C   UNL     1      47.375   4.288  13.918  0.00  0.00    +0.000 C 
ATOM     28  C   UNL     1      47.412   5.624  13.122  0.00  0.00    +0.000 C 
ATOM     29  C   UNL     1      46.090   6.062  12.480  0.00  0.00    +0.000 C 
ATOM     30  N   UNL     1      45.387   4.930  11.888  0.00  0.00    +0.000 N 
ATOM     31  C   UNL     1      45.245   4.625  10.542  0.00  0.00    +0.000 C 
ATOM     32  C   UNL     1      45.765   5.571   9.490  0.00  0.00    +0.000 C 
ATOM     33  O   UNL     1      44.686   3.589  10.167  0.00  0.00    +0.000 OA
ATOM     34  C   UNL     1      45.086   3.884  12.859  0.00  0.00    +0.000 C 
ATOM     35  C   UNL     1      46.400   3.260  13.309  0.00  0.00    +0.000 C 
ENDBRANCH  26  27
ENDBRANCH  24  26
ENDBRANCH  23  24
ENDBRANCH   4  23
TORSDOF 8
ENDMDL
MODEL 5
REMARK VINA RESULT:    -4.581     11.502     13.423
REMARK INTER + INTRA:          -8.515
REMARK INTER:                  -7.065
REMARK INTRA:                  -1.449
REMARK UNBOUND:                -1.791
REMARK  Name = 
REMARK  10 active torsions:
REMARK  status: ('A' for Active; 'I' for Inactive)
REMARK    1  A    between atoms: C_1  and  O_2
REMARK    2  A    between atoms: O_2  and  C_3
REMARK    3  A    between atoms: C_10  and  C_11
REMARK    4  A    between atoms: N_13  and  C_14
REMARK    5  A    between atoms: C_14  and  C_15
REMARK    6  A    between atoms: C_18  and  C_19
REMARK    7  A    between atoms: C_19  and  N_20
REMARK    8  A    between atoms: N_20  and  C_21
REMARK    9  A    between atoms: C_21  and  C_22
REMARK   10  A    between atoms: C_26  and  C_27
REMARK                            x       y       z     vdW  Elec       q    Type
REMARK                         _______ _______ _______ _____ _____    ______ ____
ROOT
ATOM      1  C   UNL     1      41.166  -3.600  14.487  0.00  0.00    +0.000 A 
ATOM      2  C   UNL     1      40.543  -2.397  14.840  0.00  0.00    +0.000 A 
ATOM      3  C   UNL     1      40.360  -2.059  16.184  0.00  0.00    +0.000 A 
ATOM      4  C   UNL     1      40.777  -2.914  17.217  0.00  0.00    +0.000 A 
ATOM      5  C   UNL     1      41.437  -4.099  16.861  0.00  0.00    +0.000 A 
ATOM      6  C   UNL     1      41.631  -4.435  15.512  0.00  0.00    +0.000 A 
ENDROOT
BRANCH   1   7
ATOM      7  C   UNL     1      41.385  -3.952  13.037  0.00  0.00    +0.000 C 
BRANCH   7  10
ATOM      8  C   UNL     1      40.232  -2.461  11.449  0.00  0.00    +0.000 C 
ATOM      9  O   UNL     1      41.202  -1.709  11.394  0.00  0.00    +0.000 OA
ATOM     10  N   UNL     1      40.243  -3.582  12.242  0.00  0.00    +0.000 N 
ATOM     11  H   UNL     1      39.410  -4.139  12.338  0.00  0.00    +0.000 HD
BRANCH   8  19
ATOM     12  C   UNL     1      38.660  -4.169   8.905  0.00  0.00    +0.000 A 
ATOM     13  N   UNL     1      37.889  -4.591   7.884  0.00  0.00    +0.000 NA
ATOM     14  C   UNL     1      36.856  -3.826   7.518  0.00  0.00    +0.000 A 
ATOM     15  N   UNL     1      36.485  -2.670   8.062  0.00  0.00    +0.000 NA
ATOM     16  C   UNL     1      37.278  -2.287   9.077  0.00  0.00    +0.000 A 
ATOM     17  S   UNL     1      36.944  -0.841   9.901  0.00  0.00    +0.000 S 
ATOM     18  C   UNL     1      38.288  -1.050  10.916  0.00  0.00    +0.000 A 
ATOM     19  C   UNL     1      39.015  -2.207  10.659  0.00  0.00    +0.000 A 
ATOM     20  C   UNL     1      38.392  -2.959   9.570  0.00  0.00    +0.000 A 
BRANCH  12  22
ATOM     21  C   UNL     1      39.214  -6.194   9.945  0.00  0.00    +0.000 C 
ATOM     22  O   UNL     1      39.678  -4.995   9.332  0.00  0.00    +0.000 OA
ENDBRANCH  12  22
ENDBRANCH   8  19
ENDBRANCH   7  10
ENDBRANCH   1   7
BRANCH   4  23
ATOM     23  C   UNL     1      40.551  -2.548  18.678  0.00  0.00    +0.000 C 
BRANCH  23  24
ATOM     24  N   UNL     1      39.230  -1.938  18.851  0.00  0.00    +0.000 NA
ATOM     25  H   UNL     1      38.669  -2.576  19.414  0.00  0.00    +0.000 HD
BRANCH  24  26
ATOM     26  C   UNL     1      39.237  -0.616  19.476  0.00  0.00    +0.000 C 
BRANCH  26  27
ATOM     27  C   UNL     1      37.985   0.160  18.989  0.00  0.00    +0.000 C 
ATOM     28  C   UNL     1      37.376  -0.381  17.663  0.00  0.00    +0.000 C 
ATOM     29  C   UNL     1      37.830   0.323  16.379  0.00  0.00    +0.000 C 
ATOM     30  N   UNL     1      37.901   1.768  16.562  0.00  0.00    +0.000 N 
ATOM     31  C   UNL     1      37.033   2.732  16.069  0.00  0.00    +0.000 C 
ATOM     32  C   UNL     1      35.908   2.340  15.144  0.00  0.00    +0.000 C 
ATOM     33  O   UNL     1      37.159   3.927  16.358  0.00  0.00    +0.000 OA
ATOM     34  C   UNL     1      38.816   2.156  17.629  0.00  0.00    +0.000 C 
ATOM     35  C   UNL     1      38.231   1.682  18.952  0.00  0.00    +0.000 C 
ENDBRANCH  26  27
ENDBRANCH  24  26
ENDBRANCH  23  24
ENDBRANCH   4  23
TORSDOF 8
ENDMDL
MODEL 6
REMARK VINA RESULT:    -4.564     11.458     13.680
REMARK INTER + INTRA:          -8.489
REMARK INTER:                  -6.586
REMARK INTRA:                  -1.903
REMARK UNBOUND:                -1.791
REMARK  Name = 
REMARK  10 active torsions:
REMARK  status: ('A' for Active; 'I' for Inactive)
REMARK    1  A    between atoms: C_1  and  O_2
REMARK    2  A    between atoms: O_2  and  C_3
REMARK    3  A    between atoms: C_10  and  C_11
REMARK    4  A    between atoms: N_13  and  C_14
REMARK    5  A    between atoms: C_14  and  C_15
REMARK    6  A    between atoms: C_18  and  C_19
REMARK    7  A    between atoms: C_19  and  N_20
REMARK    8  A    between atoms: N_20  and  C_21
REMARK    9  A    between atoms: C_21  and  C_22
REMARK   10  A    between atoms: C_26  and  C_27
REMARK                            x       y       z     vdW  Elec       q    Type
REMARK                         _______ _______ _______ _____ _____    ______ ____
ROOT
ATOM      1  C   UNL     1      40.773  -3.309  18.831  0.00  0.00    +0.000 A 
ATOM      2  C   UNL     1      41.380  -2.966  17.617  0.00  0.00    +0.000 A 
ATOM      3  C   UNL     1      42.140  -3.906  16.912  0.00  0.00    +0.000 A 
ATOM      4  C   UNL     1      42.332  -5.207  17.403  0.00  0.00    +0.000 A 
ATOM      5  C   UNL     1      41.689  -5.559  18.599  0.00  0.00    +0.000 A 
ATOM      6  C   UNL     1      40.917  -4.621  19.302  0.00  0.00    +0.000 A 
ENDROOT
BRANCH   1   7
ATOM      7  C   UNL     1      39.933  -2.301  19.576  0.00  0.00    +0.000 C 
BRANCH   7  10
ATOM      8  C   UNL     1      38.310  -1.274  18.033  0.00  0.00    +0.000 C 
ATOM      9  O   UNL     1      37.544  -2.229  18.144  0.00  0.00    +0.000 OA
ATOM     10  N   UNL     1      39.509  -1.241  18.700  0.00  0.00    +0.000 N 
ATOM     11  H   UNL     1      40.157  -0.489  18.531  0.00  0.00    +0.000 HD
BRANCH   8  19
ATOM     12  C   UNL     1      38.474   2.131  18.518  0.00  0.00    +0.000 A 
ATOM     13  N   UNL     1      38.381   3.475  18.460  0.00  0.00    +0.000 NA
ATOM     14  C   UNL     1      37.871   4.023  17.353  0.00  0.00    +0.000 A 
ATOM     15  N   UNL     1      37.440   3.384  16.270  0.00  0.00    +0.000 NA
ATOM     16  C   UNL     1      37.551   2.047  16.367  0.00  0.00    +0.000 A 
ATOM     17  S   UNL     1      37.062   1.070  15.068  0.00  0.00    +0.000 S 
ATOM     18  C   UNL     1      37.465  -0.345  15.917  0.00  0.00    +0.000 A 
ATOM     19  C   UNL     1      37.974  -0.114  17.190  0.00  0.00    +0.000 A 
ATOM     20  C   UNL     1      38.046   1.325  17.448  0.00  0.00    +0.000 A 
BRANCH  12  22
ATOM     21  C   UNL     1      38.230   1.560  20.776  0.00  0.00    +0.000 C 
ATOM     22  O   UNL     1      39.070   1.570  19.626  0.00  0.00    +0.000 OA
ENDBRANCH  12  22
ENDBRANCH   8  19
ENDBRANCH   7  10
ENDBRANCH   1   7
BRANCH   4  23
ATOM     23  C   UNL     1      43.182  -6.216  16.643  0.00  0.00    +0.000 C 
BRANCH  23  24
ATOM     24  N   UNL     1      42.686  -6.368  15.272  0.00  0.00    +0.000 NA
ATOM     25  H   UNL     1      43.295  -7.034  14.797  0.00  0.00    +0.000 HD
BRANCH  24  26
ATOM     26  C   UNL     1      41.298  -6.814  15.163  0.00  0.00    +0.000 C 
BRANCH  26  27
ATOM     27  C   UNL     1      40.712  -6.265  13.834  0.00  0.00    +0.000 C 
ATOM     28  C   UNL     1      41.708  -5.400  13.009  0.00  0.00    +0.000 C 
ATOM     29  C   UNL     1      41.618  -3.884  13.220  0.00  0.00    +0.000 C 
ATOM     30  N   UNL     1      40.231  -3.442  13.303  0.00  0.00    +0.000 N 
ATOM     31  C   UNL     1      39.500  -2.747  12.351  0.00  0.00    +0.000 C 
ATOM     32  C   UNL     1      40.165  -2.266  11.085  0.00  0.00    +0.000 C 
ATOM     33  O   UNL     1      38.301  -2.494  12.510  0.00  0.00    +0.000 OA
ATOM     34  C   UNL     1      39.498  -4.087  14.387  0.00  0.00    +0.000 C 
ATOM     35  C   UNL     1      39.355  -5.565  14.050  0.00  0.00    +0.000 C 
ENDBRANCH  26  27
ENDBRANCH  24  26
ENDBRANCH  23  24
ENDBRANCH   4  23
TORSDOF 8
ENDMDL
MODEL 7
REMARK VINA RESULT:    -4.520     11.487     13.808
REMARK INTER + INTRA:          -8.425
REMARK INTER:                  -6.259
REMARK INTRA:                  -2.166
REMARK UNBOUND:                -1.791
REMARK  Name = 
REMARK  10 active torsions:
REMARK  status: ('A' for Active; 'I' for Inactive)
REMARK    1  A    between atoms: C_1  and  O_2
REMARK    2  A    between atoms: O_2  and  C_3
REMARK    3  A    between atoms: C_10  and  C_11
REMARK    4  A    between atoms: N_13  and  C_14
REMARK    5  A    between atoms: C_14  and  C_15
REMARK    6  A    between atoms: C_18  and  C_19
REMARK    7  A    between atoms: C_19  and  N_20
REMARK    8  A    between atoms: N_20  and  C_21
REMARK    9  A    between atoms: C_21  and  C_22
REMARK   10  A    between atoms: C_26  and  C_27
REMARK                            x       y       z     vdW  Elec       q    Type
REMARK                         _______ _______ _______ _____ _____    ______ ____
ROOT
ATOM      1  C   UNL     1      36.815  -0.028  12.441  0.00  0.00    +0.000 A 
ATOM      2  C   UNL     1      37.593   0.077  11.282  0.00  0.00    +0.000 A 
ATOM      3  C   UNL     1      38.053  -1.070  10.628  0.00  0.00    +0.000 A 
ATOM      4  C   UNL     1      37.766  -2.355  11.116  0.00  0.00    +0.000 A 
ATOM      5  C   UNL     1      36.952  -2.458  12.254  0.00  0.00    +0.000 A 
ATOM      6  C   UNL     1      36.481  -1.307  12.906  0.00  0.00    +0.000 A 
ENDROOT
BRANCH   1   7
ATOM      7  C   UNL     1      36.298   1.210  13.130  0.00  0.00    +0.000 C 
BRANCH   7  10
ATOM      8  C   UNL     1      36.536   2.322  15.316  0.00  0.00    +0.000 C 
ATOM      9  O   UNL     1      35.529   2.999  15.123  0.00  0.00    +0.000 OA
ATOM     10  N   UNL     1      36.983   1.425  14.378  0.00  0.00    +0.000 N 
ATOM     11  H   UNL     1      37.855   0.942  14.519  0.00  0.00    +0.000 HD
BRANCH   8  19
ATOM     12  C   UNL     1      37.640   0.015  17.622  0.00  0.00    +0.000 A 
ATOM     13  N   UNL     1      38.133  -0.650  18.686  0.00  0.00    +0.000 NA
ATOM     14  C   UNL     1      38.724   0.058  19.652  0.00  0.00    +0.000 A 
ATOM     15  N   UNL     1      38.894   1.377  19.687  0.00  0.00    +0.000 NA
ATOM     16  C   UNL     1      38.391   2.002  18.608  0.00  0.00    +0.000 A 
ATOM     17  S   UNL     1      38.533   3.688  18.476  0.00  0.00    +0.000 S 
ATOM     18  C   UNL     1      37.706   3.691  16.993  0.00  0.00    +0.000 A 
ATOM     19  C   UNL     1      37.306   2.429  16.567  0.00  0.00    +0.000 A 
ATOM     20  C   UNL     1      37.741   1.415  17.528  0.00  0.00    +0.000 A 
BRANCH  12  22
ATOM     21  C   UNL     1      36.911  -2.096  16.915  0.00  0.00    +0.000 C 
ATOM     22  O   UNL     1      37.101  -0.722  16.590  0.00  0.00    +0.000 OA
ENDBRANCH  12  22
ENDBRANCH   8  19
ENDBRANCH   7  10
ENDBRANCH   1   7
BRANCH   4  23
ATOM     23  C   UNL     1      38.292  -3.598  10.412  0.00  0.00    +0.000 C 
BRANCH  23  24
ATOM     24  N   UNL     1      39.705  -3.808  10.738  0.00  0.00    +0.000 NA
ATOM     25  H   UNL     1      40.092  -2.907  11.020  0.00  0.00    +0.000 HD
BRANCH  24  26
ATOM     26  C   UNL     1      39.958  -4.794  11.788  0.00  0.00    +0.000 C 
BRANCH  26  27
ATOM     27  C   UNL     1      41.002  -4.202  12.772  0.00  0.00    +0.000 C 
ATOM     28  C   UNL     1      41.567  -5.229  13.795  0.00  0.00    +0.000 C 
ATOM     29  C   UNL     1      40.877  -5.264  15.164  0.00  0.00    +0.000 C 
ATOM     30  N   UNL     1      40.572  -3.919  15.639  0.00  0.00    +0.000 N 
ATOM     31  C   UNL     1      41.205  -3.208  16.647  0.00  0.00    +0.000 C 
ATOM     32  C   UNL     1      42.288  -3.859  17.471  0.00  0.00    +0.000 C 
ATOM     33  O   UNL     1      40.900  -2.039  16.908  0.00  0.00    +0.000 OA
ATOM     34  C   UNL     1      39.709  -3.181  14.723  0.00  0.00    +0.000 C 
ATOM     35  C   UNL     1      40.491  -2.912  13.445  0.00  0.00    +0.000 C 
ENDBRANCH  26  27
ENDBRANCH  24  26
ENDBRANCH  23  24
ENDBRANCH   4  23
TORSDOF 8
ENDMDL
MODEL 8
REMARK VINA RESULT:    -4.486     12.086     14.207
REMARK INTER + INTRA:          -8.376
REMARK INTER:                  -6.218
REMARK INTRA:                  -2.158
REMARK UNBOUND:                -1.791
REMARK  Name = 
REMARK  10 active torsions:
REMARK  status: ('A' for Active; 'I' for Inactive)
REMARK    1  A    between atoms: C_1  and  O_2
REMARK    2  A    between atoms: O_2  and  C_3
REMARK    3  A    between atoms: C_10  and  C_11
REMARK    4  A    between atoms: N_13  and  C_14
REMARK    5  A    between atoms: C_14  and  C_15
REMARK    6  A    between atoms: C_18  and  C_19
REMARK    7  A    between atoms: C_19  and  N_20
REMARK    8  A    between atoms: N_20  and  C_21
REMARK    9  A    between atoms: C_21  and  C_22
REMARK   10  A    between atoms: C_26  and  C_27
REMARK                            x       y       z     vdW  Elec       q    Type
REMARK                         _______ _______ _______ _____ _____    ______ ____
ROOT
ATOM      1  C   UNL     1      39.570  -6.149  12.446  0.00  0.00    +0.000 A 
ATOM      2  C   UNL     1      39.213  -6.647  13.705  0.00  0.00    +0.000 A 
ATOM      3  C   UNL     1      40.063  -6.478  14.803  0.00  0.00    +0.000 A 
ATOM      4  C   UNL     1      41.300  -5.826  14.677  0.00  0.00    +0.000 A 
ATOM      5  C   UNL     1      41.636  -5.293  13.424  0.00  0.00    +0.000 A 
ATOM      6  C   UNL     1      40.780  -5.451  12.323  0.00  0.00    +0.000 A 
ENDROOT
BRANCH   1   7
ATOM      7  C   UNL     1      38.641  -6.309  11.269  0.00  0.00    +0.000 C 
BRANCH   7  10
ATOM      8  C   UNL     1      38.403  -4.539   9.572  0.00  0.00    +0.000 C 
ATOM      9  O   UNL     1      39.084  -5.169   8.766  0.00  0.00    +0.000 OA
ATOM     10  N   UNL     1      38.148  -5.031  10.828  0.00  0.00    +0.000 N 
ATOM     11  H   UNL     1      37.659  -4.463  11.501  0.00  0.00    +0.000 HD
BRANCH   8  19
ATOM     12  C   UNL     1      38.556  -1.419  11.023  0.00  0.00    +0.000 A 
ATOM     13  N   UNL     1      38.399  -0.135  11.403  0.00  0.00    +0.000 NA
ATOM     14  C   UNL     1      37.601   0.644  10.669  0.00  0.00    +0.000 A 
ATOM     15  N   UNL     1      36.929   0.297   9.575  0.00  0.00    +0.000 NA
ATOM     16  C   UNL     1      37.114  -0.989   9.229  0.00  0.00    +0.000 A 
ATOM     17  S   UNL     1      36.344  -1.603   7.846  0.00  0.00    +0.000 S 
ATOM     18  C   UNL     1      37.007  -3.145   8.101  0.00  0.00    +0.000 A 
ATOM     19  C   UNL     1      37.818  -3.232   9.228  0.00  0.00    +0.000 A 
ATOM     20  C   UNL     1      37.898  -1.929   9.889  0.00  0.00    +0.000 A 
BRANCH  12  22
ATOM     21  C   UNL     1      40.787  -2.078  11.293  0.00  0.00    +0.000 C 
ATOM     22  O   UNL     1      39.439  -2.202  11.734  0.00  0.00    +0.000 OA
ENDBRANCH  12  22
ENDBRANCH   8  19
ENDBRANCH   7  10
ENDBRANCH   1   7
BRANCH   4  23
ATOM     23  C   UNL     1      42.230  -5.669  15.872  0.00  0.00    +0.000 C 
BRANCH  23  24
ATOM     24  N   UNL     1      42.275  -4.269  16.302  0.00  0.00    +0.000 NA
ATOM     25  H   UNL     1      42.256  -3.690  15.463  0.00  0.00    +0.000 HD
BRANCH  24  26
ATOM     26  C   UNL     1      41.193  -3.862  17.198  0.00  0.00    +0.000 C 
BRANCH  26  27
ATOM     27  C   UNL     1      40.886  -2.363  16.941  0.00  0.00    +0.000 C 
ATOM     28  C   UNL     1      39.953  -1.713  18.003  0.00  0.00    +0.000 C 
ATOM     29  C   UNL     1      38.460  -1.676  17.654  0.00  0.00    +0.000 C 
ATOM     30  N   UNL     1      38.251  -1.328  16.253  0.00  0.00    +0.000 N 
ATOM     31  C   UNL     1      37.788  -0.129  15.734  0.00  0.00    +0.000 C 
ATOM     32  C   UNL     1      37.331   0.973  16.656  0.00  0.00    +0.000 C 
ATOM     33  O   UNL     1      37.725   0.070  14.516  0.00  0.00    +0.000 OA
ATOM     34  C   UNL     1      38.899  -2.262  15.340  0.00  0.00    +0.000 C 
ATOM     35  C   UNL     1      40.406  -2.114  15.497  0.00  0.00    +0.000 C 
ENDBRANCH  26  27
ENDBRANCH  24  26
ENDBRANCH  23  24
ENDBRANCH   4  23
TORSDOF 8
ENDMDL
MODEL 9
REMARK VINA RESULT:    -4.429     11.524     14.491
REMARK INTER + INTRA:          -8.291
REMARK INTER:                  -6.784
REMARK INTRA:                  -1.508
REMARK UNBOUND:                -1.791
REMARK  Name = 
REMARK  10 active torsions:
REMARK  status: ('A' for Active; 'I' for Inactive)
REMARK    1  A    between atoms: C_1  and  O_2
REMARK    2  A    between atoms: O_2  and  C_3
REMARK    3  A    between atoms: C_10  and  C_11
REMARK    4  A    between atoms: N_13  and  C_14
REMARK    5  A    between atoms: C_14  and  C_15
REMARK    6  A    between atoms: C_18  and  C_19
REMARK    7  A    between atoms: C_19  and  N_20
REMARK    8  A    between atoms: N_20  and  C_21
REMARK    9  A    between atoms: C_21  and  C_22
REMARK   10  A    between atoms: C_26  and  C_27
REMARK                            x       y       z     vdW  Elec       q    Type
REMARK                         _______ _______ _______ _____ _____    ______ ____
ROOT
ATOM      1  C   UNL     1      40.623  -3.000  17.146  0.00  0.00    +0.000 A 
ATOM      2  C   UNL     1      41.273  -4.187  16.791  0.00  0.00    +0.000 A 
ATOM      3  C   UNL     1      41.567  -4.463  15.452  0.00  0.00    +0.000 A 
ATOM      4  C   UNL     1      41.209  -3.574  14.425  0.00  0.00    +0.000 A 
ATOM      5  C   UNL     1      40.594  -2.367  14.789  0.00  0.00    +0.000 A 
ATOM      6  C   UNL     1      40.307  -2.084  16.133  0.00  0.00    +0.000 A 
ENDROOT
BRANCH   1   7
ATOM      7  C   UNL     1      40.329  -2.693  18.593  0.00  0.00    +0.000 C 
BRANCH   7  10
ATOM      8  C   UNL     1      38.891  -0.905  19.491  0.00  0.00    +0.000 C 
ATOM      9  O   UNL     1      38.143  -1.723  20.023  0.00  0.00    +0.000 OA
ATOM     10  N   UNL     1      39.983  -1.306  18.763  0.00  0.00    +0.000 N 
ATOM     11  H   UNL     1      40.534  -0.625  18.266  0.00  0.00    +0.000 HD
BRANCH   8  19
ATOM     12  C   UNL     1      38.277   1.603  17.212  0.00  0.00    +0.000 A 
ATOM     13  N   UNL     1      38.084   2.761  16.550  0.00  0.00    +0.000 NA
ATOM     14  C   UNL     1      38.030   3.891  17.261  0.00  0.00    +0.000 A 
ATOM     15  N   UNL     1      38.138   4.011  18.581  0.00  0.00    +0.000 NA
ATOM     16  C   UNL     1      38.326   2.835  19.204  0.00  0.00    +0.000 A 
ATOM     17  S   UNL     1      38.471   2.795  20.895  0.00  0.00    +0.000 S 
ATOM     18  C   UNL     1      38.690   1.112  20.886  0.00  0.00    +0.000 A 
ATOM     19  C   UNL     1      38.660   0.544  19.617  0.00  0.00    +0.000 A 
ATOM     20  C   UNL     1      38.418   1.579  18.611  0.00  0.00    +0.000 A 
BRANCH  12  22
ATOM     21  C   UNL     1      37.381   0.476  15.364  0.00  0.00    +0.000 C 
ATOM     22  O   UNL     1      38.256   0.431  16.488  0.00  0.00    +0.000 OA
ENDBRANCH  12  22
ENDBRANCH   8  19
ENDBRANCH   7  10
ENDBRANCH   1   7
BRANCH   4  23
ATOM     23  C   UNL     1      41.511  -3.894  12.968  0.00  0.00    +0.000 C 
BRANCH  23  24
ATOM     24  N   UNL     1      40.642  -4.975  12.494  0.00  0.00    +0.000 NA
ATOM     25  H   UNL     1      40.626  -5.695  13.217  0.00  0.00    +0.000 HD
BRANCH  24  26
ATOM     26  C   UNL     1      39.272  -4.574  12.178  0.00  0.00    +0.000 C 
BRANCH  26  27
ATOM     27  C   UNL     1      39.329  -3.286  11.313  0.00  0.00    +0.000 C 
ATOM     28  C   UNL     1      38.353  -2.166  11.773  0.00  0.00    +0.000 C 
ATOM     29  C   UNL     1      36.998  -2.118  11.056  0.00  0.00    +0.000 C 
ATOM     30  N   UNL     1      37.147  -2.353   9.625  0.00  0.00    +0.000 N 
ATOM     31  C   UNL     1      37.047  -1.429   8.595  0.00  0.00    +0.000 C 
ATOM     32  C   UNL     1      36.645  -0.005   8.888  0.00  0.00    +0.000 C 
ATOM     33  O   UNL     1      37.270  -1.739   7.420  0.00  0.00    +0.000 OA
ATOM     34  C   UNL     1      37.764  -3.641   9.327  0.00  0.00    +0.000 C 
ATOM     35  C   UNL     1      39.207  -3.600   9.808  0.00  0.00    +0.000 C 
ENDBRANCH  26  27
ENDBRANCH  24  26
ENDBRANCH  23  24
ENDBRANCH   4  23
TORSDOF 8
ENDMDL
