MODEL 1
REMARK VINA RESULT:    -7.090      0.000      0.000
REMARK INTER + INTRA:         -11.498
REMARK INTER:                  -9.992
REMARK INTRA:                  -1.507
REMARK UNBOUND:                -1.507
REMARK  Name = 
REMARK  7 active torsions:
REMARK  status: ('A' for Active; 'I' for Inactive)
REMARK    1  A    between atoms: C_2  and  C_4
REMARK    2  A    between atoms: C_7  and  C_8
REMARK    3  A    between atoms: N_10  and  C_11
REMARK    4  A    between atoms: C_11  and  C_12
REMARK    5  A    between atoms: C_15  and  C_16
REMARK    6  A    between atoms: C_16  and  N_17
REMARK    7  A    between atoms: C_18  and  C_20
REMARK                            x       y       z     vdW  Elec       q    Type
REMARK                         _______ _______ _______ _____ _____    ______ ____
ROOT
ATOM      1  C   UNL     1      47.813   9.047  11.808  0.00  0.00    +0.000 C 
ATOM      2  C   UNL     1      48.751  10.253  11.878  0.00  0.00    +0.000 C 
ATOM      3  C   UNL     1      49.842  10.070  12.920  0.00  0.00    +0.000 C 
ATOM      4  C   UNL     1      50.618   8.753  12.746  0.00  0.00    +0.000 C 
ATOM      5  C   UNL     1      49.677   7.544  12.628  0.00  0.00    +0.000 C 
ATOM      6  C   UNL     1      48.609   7.763  11.565  0.00  0.00    +0.000 C 
ENDROOT
BRANCH   1   7
ATOM      7  C   UNL     1      46.929   8.919  13.066  0.00  0.00    +0.000 C 
BRANCH   7  10
ATOM      8  C   UNL     1      45.284   7.130  12.865  0.00  0.00    +0.000 C 
ATOM      9  O   UNL     1      44.506   7.880  12.277  0.00  0.00    +0.000 OA
ATOM     10  N   UNL     1      46.507   7.559  13.319  0.00  0.00    +0.000 N 
ATOM     11  H   UNL     1      47.080   6.965  13.902  0.00  0.00    +0.000 HD
BRANCH   8  15
ATOM     12  C   UNL     1      44.219   4.498  10.484  0.00  0.00    +0.000 C 
ATOM     13  C   UNL     1      43.255   5.414  11.249  0.00  0.00    +0.000 C 
ATOM     14  C   UNL     1      43.497   5.387  12.762  0.00  0.00    +0.000 C 
ATOM     15  C   UNL     1      44.958   5.672  13.138  0.00  0.00    +0.000 C 
ATOM     16  C   UNL     1      45.922   4.746  12.390  0.00  0.00    +0.000 C 
ATOM     17  C   UNL     1      45.684   4.748  10.877  0.00  0.00    +0.000 C 
BRANCH  12  19
ATOM     18  N   UNL     1      44.517   2.155   9.880  0.00  0.00    +0.000 N 
ATOM     19  C   UNL     1      43.828   3.041  10.653  0.00  0.00    +0.000 C 
ATOM     20  O   UNL     1      42.958   2.639  11.423  0.00  0.00    +0.000 OA
ATOM     21  H   UNL     1      44.304   1.175  10.007  0.00  0.00    +0.000 HD
ATOM     22  H   UNL     1      45.357   2.410   9.377  0.00  0.00    +0.000 HD
ENDBRANCH  12  19
ENDBRANCH   8  15
ENDBRANCH   7  10
ENDBRANCH   1   7
BRANCH   4  23
ATOM     23  C   UNL     1      51.601   8.523  13.902  0.00  0.00    +0.000 C 
BRANCH  23  24
ATOM     24  N   UNL     1      51.259   7.359  14.690  0.00  0.00    +0.000 N 
ATOM     25  C   UNL     1      51.526   7.289  16.035  0.00  0.00    +0.000 C 
ATOM     26  O   UNL     1      52.053   8.213  16.653  0.00  0.00    +0.000 OA
ATOM     27  H   UNL     1      51.061   6.502  14.181  0.00  0.00    +0.000 HD
BRANCH  25  28
ATOM     28  C   UNL     1      51.104   6.070  16.721  0.00  0.00    +0.000 A 
ATOM     29  C   UNL     1      52.050   5.299  17.382  0.00  0.00    +0.000 A 
ATOM     30  S   UNL     1      51.393   3.930  18.154  0.00  0.00    +0.000 S 
ATOM     31  C   UNL     1      49.829   4.297  17.591  0.00  0.00    +0.000 A 
ATOM     32  N   UNL     1      48.775   3.487  17.876  0.00  0.00    +0.000 NA
ATOM     33  C   UNL     1      47.654   3.873  17.363  0.00  0.00    +0.000 A 
ATOM     34  N   UNL     1      47.489   5.000  16.600  0.00  0.00    +0.000 N 
ATOM     35  C   UNL     1      48.518   5.861  16.308  0.00  0.00    +0.000 A 
ATOM     36  O   UNL     1      48.331   6.891  15.665  0.00  0.00    +0.000 OA
ATOM     37  C   UNL     1      49.804   5.462  16.847  0.00  0.00    +0.000 A 
ATOM     38  H   UNL     1      46.580   5.253  16.242  0.00  0.00    +0.000 HD
ENDBRANCH  25  28
ENDBRANCH  23  24
ENDBRANCH   4  23
TORSDOF 7
ENDMDL
MODEL 2
REMARK VINA RESULT:    -6.845      3.181      6.914
REMARK INTER + INTRA:         -11.152
REMARK INTER:                 -10.405
REMARK INTRA:                  -0.748
REMARK UNBOUND:                -1.507
REMARK  Name = 
REMARK  7 active torsions:
REMARK  status: ('A' for Active; 'I' for Inactive)
REMARK    1  A    between atoms: C_2  and  C_4
REMARK    2  A    between atoms: C_7  and  C_8
REMARK    3  A    between atoms: N_10  and  C_11
REMARK    4  A    between atoms: C_11  and  C_12
REMARK    5  A    between atoms: C_15  and  C_16
REMARK    6  A    between atoms: C_16  and  N_17
REMARK    7  A    between atoms: C_18  and  C_20
REMARK                            x       y       z     vdW  Elec       q    Type
REMARK                         _______ _______ _______ _____ _____    ______ ____
ROOT
ATOM      1  C   UNL     1      48.433   9.164  18.504  0.00  0.00    +0.000 C 
ATOM      2  C   UNL     1      49.920   8.806  18.497  0.00  0.00    +0.000 C 
ATOM      3  C   UNL     1      50.305   7.979  17.280  0.00  0.00    +0.000 C 
ATOM      4  C   UNL     1      49.869   8.630  15.956  0.00  0.00    +0.000 C 
ATOM      5  C   UNL     1      48.386   9.034  15.977  0.00  0.00    +0.000 C 
ATOM      6  C   UNL     1      48.047   9.871  17.203  0.00  0.00    +0.000 C 
ENDROOT
BRANCH   1   7
ATOM      7  C   UNL     1      47.536   7.934  18.752  0.00  0.00    +0.000 C 
BRANCH   7  10
ATOM      8  C   UNL     1      47.895   5.528  18.929  0.00  0.00    +0.000 C 
ATOM      9  O   UNL     1      46.922   5.307  18.209  0.00  0.00    +0.000 OA
ATOM     10  N   UNL     1      48.270   6.803  19.276  0.00  0.00    +0.000 N 
ATOM     11  H   UNL     1      48.995   6.960  19.961  0.00  0.00    +0.000 HD
BRANCH   8  15
ATOM     12  C   UNL     1      50.370   3.394  17.183  0.00  0.00    +0.000 C 
ATOM     13  C   UNL     1      48.884   3.046  17.337  0.00  0.00    +0.000 C 
ATOM     14  C   UNL     1      48.420   3.089  18.796  0.00  0.00    +0.000 C 
ATOM     15  C   UNL     1      48.759   4.414  19.492  0.00  0.00    +0.000 C 
ATOM     16  C   UNL     1      50.247   4.755  19.358  0.00  0.00    +0.000 C 
ATOM     17  C   UNL     1      50.733   4.701  17.907  0.00  0.00    +0.000 C 
BRANCH  12  19
ATOM     18  N   UNL     1      52.375   2.584  18.311  0.00  0.00    +0.000 N 
ATOM     19  C   UNL     1      51.245   2.237  17.632  0.00  0.00    +0.000 C 
ATOM     20  O   UNL     1      50.991   1.052  17.424  0.00  0.00    +0.000 OA
ATOM     21  H   UNL     1      52.950   1.828  18.657  0.00  0.00    +0.000 HD
ATOM     22  H   UNL     1      52.531   3.518  18.665  0.00  0.00    +0.000 HD
ENDBRANCH  12  19
ENDBRANCH   8  15
ENDBRANCH   7  10
ENDBRANCH   1   7
BRANCH   4  23
ATOM     23  C   UNL     1      50.127   7.701  14.762  0.00  0.00    +0.000 C 
BRANCH  23  24
ATOM     24  N   UNL     1      48.932   7.462  13.983  0.00  0.00    +0.000 N 
ATOM     25  C   UNL     1      48.112   6.388  14.223  0.00  0.00    +0.000 C 
ATOM     26  O   UNL     1      48.332   5.576  15.121  0.00  0.00    +0.000 OA
ATOM     27  H   UNL     1      48.856   7.952  13.095  0.00  0.00    +0.000 HD
BRANCH  25  28
ATOM     28  C   UNL     1      46.920   6.276  13.385  0.00  0.00    +0.000 A 
ATOM     29  C   UNL     1      46.329   7.427  12.884  0.00  0.00    +0.000 A 
ATOM     30  S   UNL     1      44.969   7.122  11.904  0.00  0.00    +0.000 S 
ATOM     31  C   UNL     1      45.099   5.443  12.154  0.00  0.00    +0.000 A 
ATOM     32  N   UNL     1      44.200   4.583  11.605  0.00  0.00    +0.000 NA
ATOM     33  C   UNL     1      44.404   3.342  11.899  0.00  0.00    +0.000 A 
ATOM     34  N   UNL     1      45.429   2.882  12.685  0.00  0.00    +0.000 N 
ATOM     35  C   UNL     1      46.374   3.709  13.240  0.00  0.00    +0.000 A 
ATOM     36  O   UNL     1      47.311   3.265  13.897  0.00  0.00    +0.000 OA
ATOM     37  C   UNL     1      46.179   5.118  12.953  0.00  0.00    +0.000 A 
ATOM     38  H   UNL     1      45.540   1.895  12.864  0.00  0.00    +0.000 HD
ENDBRANCH  25  28
ENDBRANCH  23  24
ENDBRANCH   4  23
TORSDOF 7
ENDMDL
MODEL 3
REMARK VINA RESULT:    -6.759      2.865      7.816
REMARK INTER + INTRA:         -11.031
REMARK INTER:                  -9.430
REMARK INTRA:                  -1.602
REMARK UNBOUND:                -1.507
REMARK  Name = 
REMARK  7 active torsions:
REMARK  status: ('A' for Active; 'I' for Inactive)
REMARK    1  A    between atoms: C_2  and  C_4
REMARK    2  A    between atoms: C_7  and  C_8
REMARK    3  A    between atoms: N_10  and  C_11
REMARK    4  A    between atoms: C_11  and  C_12
REMARK    5  A    between atoms: C_15  and  C_16
REMARK    6  A    between atoms: C_16  and  N_17
REMARK    7  A    between atoms: C_18  and  C_20
REMARK                            x       y       z     vdW  Elec       q    Type
REMARK                         _______ _______ _______ _____ _____    ______ ____
ROOT
ATOM      1  C   UNL     1      49.356   5.760  19.929  0.00  0.00    +0.000 C 
ATOM      2  C   UNL     1      48.294   6.538  19.149  0.00  0.00    +0.000 C 
ATOM      3  C   UNL     1      47.923   5.851  17.845  0.00  0.00    +0.000 C 
ATOM      4  C   UNL     1      47.521   4.379  18.041  0.00  0.00    +0.000 C 
ATOM      5  C   UNL     1      48.563   3.605  18.865  0.00  0.00    +0.000 C 
ATOM      6  C   UNL     1      48.896   4.320  20.167  0.00  0.00    +0.000 C 
ENDROOT
BRANCH   1   7
ATOM      7  C   UNL     1      50.733   5.793  19.235  0.00  0.00    +0.000 C 
BRANCH   7  10
ATOM      8  C   UNL     1      51.403   6.934  17.187  0.00  0.00    +0.000 C 
ATOM      9  O   UNL     1      51.670   5.861  16.649  0.00  0.00    +0.000 OA
ATOM     10  N   UNL     1      50.951   7.008  18.482  0.00  0.00    +0.000 N 
ATOM     11  H   UNL     1      50.852   7.900  18.945  0.00  0.00    +0.000 HD
BRANCH   8  15
ATOM     12  C   UNL     1      48.949   8.714  15.057  0.00  0.00    +0.000 C 
ATOM     13  C   UNL     1      49.978   7.704  14.532  0.00  0.00    +0.000 C 
ATOM     14  C   UNL     1      51.409   8.054  14.953  0.00  0.00    +0.000 C 
ATOM     15  C   UNL     1      51.551   8.263  16.468  0.00  0.00    +0.000 C 
ATOM     16  C   UNL     1      50.537   9.286  16.991  0.00  0.00    +0.000 C 
ATOM     17  C   UNL     1      49.103   8.961  16.566  0.00  0.00    +0.000 C 
BRANCH  12  19
ATOM     18  N   UNL     1      48.642  11.130  14.942  0.00  0.00    +0.000 N 
ATOM     19  C   UNL     1      49.007  10.006  14.262  0.00  0.00    +0.000 C 
ATOM     20  O   UNL     1      49.355  10.085  13.086  0.00  0.00    +0.000 OA
ATOM     21  H   UNL     1      48.715  12.008  14.446  0.00  0.00    +0.000 HD
ATOM     22  H   UNL     1      48.530  11.145  15.947  0.00  0.00    +0.000 HD
ENDBRANCH  12  19
ENDBRANCH   8  15
ENDBRANCH   7  10
ENDBRANCH   1   7
BRANCH   4  23
ATOM     23  C   UNL     1      47.307   3.672  16.695  0.00  0.00    +0.000 C 
BRANCH  23  24
ATOM     24  N   UNL     1      46.793   4.565  15.681  0.00  0.00    +0.000 N 
ATOM     25  C   UNL     1      46.780   4.223  14.352  0.00  0.00    +0.000 C 
ATOM     26  O   UNL     1      47.185   3.135  13.945  0.00  0.00    +0.000 OA
ATOM     27  H   UNL     1      46.689   5.543  15.940  0.00  0.00    +0.000 HD
BRANCH  25  28
ATOM     28  C   UNL     1      46.208   5.203  13.431  0.00  0.00    +0.000 A 
ATOM     29  C   UNL     1      46.956   6.314  13.067  0.00  0.00    +0.000 A 
ATOM     30  S   UNL     1      46.159   7.341  11.967  0.00  0.00    +0.000 S 
ATOM     31  C   UNL     1      44.769   6.359  11.976  0.00  0.00    +0.000 A 
ATOM     32  N   UNL     1      43.670   6.695  11.249  0.00  0.00    +0.000 NA
ATOM     33  C   UNL     1      42.681   5.874  11.370  0.00  0.00    +0.000 A 
ATOM     34  N   UNL     1      42.692   4.743  12.145  0.00  0.00    +0.000 N 
ATOM     35  C   UNL     1      43.786   4.350  12.875  0.00  0.00    +0.000 A 
ATOM     36  O   UNL     1      43.786   3.304  13.519  0.00  0.00    +0.000 OA
ATOM     37  C   UNL     1      44.921   5.249  12.787  0.00  0.00    +0.000 A 
ATOM     38  H   UNL     1      41.888   4.135  12.183  0.00  0.00    +0.000 HD
ENDBRANCH  25  28
ENDBRANCH  23  24
ENDBRANCH   4  23
TORSDOF 7
ENDMDL
MODEL 4
REMARK VINA RESULT:    -6.611      2.954      7.843
REMARK INTER + INTRA:         -10.823
REMARK INTER:                  -9.799
REMARK INTRA:                  -1.024
REMARK UNBOUND:                -1.507
REMARK  Name = 
REMARK  7 active torsions:
REMARK  status: ('A' for Active; 'I' for Inactive)
REMARK    1  A    between atoms: C_2  and  C_4
REMARK    2  A    between atoms: C_7  and  C_8
REMARK    3  A    between atoms: N_10  and  C_11
REMARK    4  A    between atoms: C_11  and  C_12
REMARK    5  A    between atoms: C_15  and  C_16
REMARK    6  A    between atoms: C_16  and  N_17
REMARK    7  A    between atoms: C_18  and  C_20
REMARK                            x       y       z     vdW  Elec       q    Type
REMARK                         _______ _______ _______ _____ _____    ______ ____
ROOT
ATOM      1  C   UNL     1      49.798   7.920  15.879  0.00  0.00    +0.000 C 
ATOM      2  C   UNL     1      49.612   6.769  14.889  0.00  0.00    +0.000 C 
ATOM      3  C   UNL     1      48.221   6.760  14.276  0.00  0.00    +0.000 C 
ATOM      4  C   UNL     1      47.835   8.114  13.656  0.00  0.00    +0.000 C 
ATOM      5  C   UNL     1      48.066   9.278  14.632  0.00  0.00    +0.000 C 
ATOM      6  C   UNL     1      49.473   9.257  15.212  0.00  0.00    +0.000 C 
ENDROOT
BRANCH   1   7
ATOM      7  C   UNL     1      48.966   7.726  17.164  0.00  0.00    +0.000 C 
BRANCH   7  10
ATOM      8  C   UNL     1      48.645   5.539  18.194  0.00  0.00    +0.000 C 
ATOM      9  O   UNL     1      47.504   5.467  17.740  0.00  0.00    +0.000 OA
ATOM     10  N   UNL     1      49.446   6.635  17.982  0.00  0.00    +0.000 N 
ATOM     11  H   UNL     1      50.331   6.728  18.460  0.00  0.00    +0.000 HD
BRANCH   8  15
ATOM     12  C   UNL     1      51.011   2.888  17.145  0.00  0.00    +0.000 C 
ATOM     13  C   UNL     1      49.483   2.747  17.112  0.00  0.00    +0.000 C 
ATOM     14  C   UNL     1      48.836   3.063  18.465  0.00  0.00    +0.000 C 
ATOM     15  C   UNL     1      49.261   4.428  19.025  0.00  0.00    +0.000 C 
ATOM     16  C   UNL     1      50.786   4.564  19.078  0.00  0.00    +0.000 C 
ATOM     17  C   UNL     1      51.452   4.235  17.738  0.00  0.00    +0.000 C 
BRANCH  12  19
ATOM     18  N   UNL     1      52.757   2.009  18.603  0.00  0.00    +0.000 N 
ATOM     19  C   UNL     1      51.646   1.715  17.871  0.00  0.00    +0.000 C 
ATOM     20  O   UNL     1      51.221   0.561  17.834  0.00  0.00    +0.000 OA
ATOM     21  H   UNL     1      53.171   1.252  19.130  0.00  0.00    +0.000 HD
ATOM     22  H   UNL     1      53.033   2.959  18.815  0.00  0.00    +0.000 HD
ENDBRANCH  12  19
ENDBRANCH   8  15
ENDBRANCH   7  10
ENDBRANCH   1   7
BRANCH   4  23
ATOM     23  C   UNL     1      46.372   8.122  13.189  0.00  0.00    +0.000 C 
BRANCH  23  24
ATOM     24  N   UNL     1      45.904   6.802  12.829  0.00  0.00    +0.000 N 
ATOM     25  C   UNL     1      44.930   6.610  11.880  0.00  0.00    +0.000 C 
ATOM     26  O   UNL     1      44.412   7.543  11.268  0.00  0.00    +0.000 OA
ATOM     27  H   UNL     1      46.119   6.046  13.475  0.00  0.00    +0.000 HD
BRANCH  25  28
ATOM     28  C   UNL     1      44.566   5.226  11.588  0.00  0.00    +0.000 A 
ATOM     29  C   UNL     1      43.842   4.500  12.524  0.00  0.00    +0.000 A 
ATOM     30  S   UNL     1      43.474   2.915  12.018  0.00  0.00    +0.000 S 
ATOM     31  C   UNL     1      44.310   3.132  10.552  0.00  0.00    +0.000 A 
ATOM     32  N   UNL     1      44.409   2.121   9.647  0.00  0.00    +0.000 NA
ATOM     33  C   UNL     1      45.093   2.417   8.592  0.00  0.00    +0.000 A 
ATOM     34  N   UNL     1      45.680   3.633   8.355  0.00  0.00    +0.000 N 
ATOM     35  C   UNL     1      45.586   4.690   9.227  0.00  0.00    +0.000 A 
ATOM     36  O   UNL     1      46.077   5.784   8.964  0.00  0.00    +0.000 OA
ATOM     37  C   UNL     1      44.841   4.403  10.438  0.00  0.00    +0.000 A 
ATOM     38  H   UNL     1      46.189   3.803   7.501  0.00  0.00    +0.000 HD
ENDBRANCH  25  28
ENDBRANCH  23  24
ENDBRANCH   4  23
TORSDOF 7
ENDMDL
MODEL 5
REMARK VINA RESULT:    -6.573      2.820      7.302
REMARK INTER + INTRA:         -10.770
REMARK INTER:                  -9.247
REMARK INTRA:                  -1.523
REMARK UNBOUND:                -1.507
REMARK  Name = 
REMARK  7 active torsions:
REMARK  status: ('A' for Active; 'I' for Inactive)
REMARK    1  A    between atoms: C_2  and  C_4
REMARK    2  A    between atoms: C_7  and  C_8
REMARK    3  A    between atoms: N_10  and  C_11
REMARK    4  A    between atoms: C_11  and  C_12
REMARK    5  A    between atoms: C_15  and  C_16
REMARK    6  A    between atoms: C_16  and  N_17
REMARK    7  A    between atoms: C_18  and  C_20
REMARK                            x       y       z     vdW  Elec       q    Type
REMARK                         _______ _______ _______ _____ _____    ______ ____
ROOT
ATOM      1  C   UNL     1      45.273   3.439  12.530  0.00  0.00    +0.000 C 
ATOM      2  C   UNL     1      44.086   4.062  13.267  0.00  0.00    +0.000 C 
ATOM      3  C   UNL     1      44.005   5.565  13.056  0.00  0.00    +0.000 C 
ATOM      4  C   UNL     1      44.024   5.960  11.570  0.00  0.00    +0.000 C 
ATOM      5  C   UNL     1      45.189   5.298  10.815  0.00  0.00    +0.000 C 
ATOM      6  C   UNL     1      45.224   3.793  11.043  0.00  0.00    +0.000 C 
ENDROOT
BRANCH   1   7
ATOM      7  C   UNL     1      46.626   3.845  13.151  0.00  0.00    +0.000 C 
BRANCH   7  10
ATOM      8  C   UNL     1      47.356   3.539  15.458  0.00  0.00    +0.000 C 
ATOM      9  O   UNL     1      48.172   2.686  15.110  0.00  0.00    +0.000 OA
ATOM     10  N   UNL     1      46.524   4.160  14.559  0.00  0.00    +0.000 N 
ATOM     11  H   UNL     1      45.782   4.767  14.876  0.00  0.00    +0.000 HD
BRANCH   8  15
ATOM     12  C   UNL     1      49.952   4.729  17.818  0.00  0.00    +0.000 C 
ATOM     13  C   UNL     1      49.538   3.260  17.656  0.00  0.00    +0.000 C 
ATOM     14  C   UNL     1      48.028   3.056  17.816  0.00  0.00    +0.000 C 
ATOM     15  C   UNL     1      47.202   3.975  16.904  0.00  0.00    +0.000 C 
ATOM     16  C   UNL     1      47.600   5.445  17.078  0.00  0.00    +0.000 C 
ATOM     17  C   UNL     1      49.109   5.665  16.938  0.00  0.00    +0.000 C 
BRANCH  12  19
ATOM     18  N   UNL     1      50.539   4.290  20.144  0.00  0.00    +0.000 N 
ATOM     19  C   UNL     1      49.918   5.141  19.279  0.00  0.00    +0.000 C 
ATOM     20  O   UNL     1      49.382   6.164  19.701  0.00  0.00    +0.000 OA
ATOM     21  H   UNL     1      50.567   4.567  21.116  0.00  0.00    +0.000 HD
ATOM     22  H   UNL     1      51.146   3.544  19.831  0.00  0.00    +0.000 HD
ENDBRANCH  12  19
ENDBRANCH   8  15
ENDBRANCH   7  10
ENDBRANCH   1   7
BRANCH   4  23
ATOM     23  C   UNL     1      44.103   7.483  11.394  0.00  0.00    +0.000 C 
BRANCH  23  24
ATOM     24  N   UNL     1      45.457   7.979  11.503  0.00  0.00    +0.000 N 
ATOM     25  C   UNL     1      45.740   9.200  12.061  0.00  0.00    +0.000 C 
ATOM     26  O   UNL     1      44.866   9.937  12.518  0.00  0.00    +0.000 OA
ATOM     27  H   UNL     1      46.160   7.526  10.924  0.00  0.00    +0.000 HD
BRANCH  25  28
ATOM     28  C   UNL     1      47.151   9.573  12.138  0.00  0.00    +0.000 A 
ATOM     29  C   UNL     1      47.574  10.762  11.560  0.00  0.00    +0.000 A 
ATOM     30  S   UNL     1      49.238  11.062  11.762  0.00  0.00    +0.000 S 
ATOM     31  C   UNL     1      49.458   9.590  12.588  0.00  0.00    +0.000 A 
ATOM     32  N   UNL     1      50.689   9.207  13.022  0.00  0.00    +0.000 NA
ATOM     33  C   UNL     1      50.712   8.057  13.608  0.00  0.00    +0.000 A 
ATOM     34  N   UNL     1      49.617   7.258  13.808  0.00  0.00    +0.000 N 
ATOM     35  C   UNL     1      48.351   7.612  13.411  0.00  0.00    +0.000 A 
ATOM     36  O   UNL     1      47.380   6.900  13.650  0.00  0.00    +0.000 OA
ATOM     37  C   UNL     1      48.273   8.891  12.730  0.00  0.00    +0.000 A 
ATOM     38  H   UNL     1      49.702   6.375  14.289  0.00  0.00    +0.000 HD
ENDBRANCH  25  28
ENDBRANCH  23  24
ENDBRANCH   4  23
TORSDOF 7
ENDMDL
MODEL 6
REMARK VINA RESULT:    -6.405      2.675      6.085
REMARK INTER + INTRA:         -10.533
REMARK INTER:                  -8.888
REMARK INTRA:                  -1.645
REMARK UNBOUND:                -1.507
REMARK  Name = 
REMARK  7 active torsions:
REMARK  status: ('A' for Active; 'I' for Inactive)
REMARK    1  A    between atoms: C_2  and  C_4
REMARK    2  A    between atoms: C_7  and  C_8
REMARK    3  A    between atoms: N_10  and  C_11
REMARK    4  A    between atoms: C_11  and  C_12
REMARK    5  A    between atoms: C_15  and  C_16
REMARK    6  A    between atoms: C_16  and  N_17
REMARK    7  A    between atoms: C_18  and  C_20
REMARK                            x       y       z     vdW  Elec       q    Type
REMARK                         _______ _______ _______ _____ _____    ______ ____
ROOT
ATOM      1  C   UNL     1      46.149   7.919  11.824  0.00  0.00    +0.000 C 
ATOM      2  C   UNL     1      47.406   7.047  11.790  0.00  0.00    +0.000 C 
ATOM      3  C   UNL     1      47.444   6.052  12.939  0.00  0.00    +0.000 C 
ATOM      4  C   UNL     1      46.164   5.204  13.035  0.00  0.00    +0.000 C 
ATOM      5  C   UNL     1      44.897   6.074  13.021  0.00  0.00    +0.000 C 
ATOM      6  C   UNL     1      44.893   7.045  11.848  0.00  0.00    +0.000 C 
ENDROOT
BRANCH   1   7
ATOM      7  C   UNL     1      46.157   8.911  13.005  0.00  0.00    +0.000 C 
BRANCH   7  10
ATOM      8  C   UNL     1      48.189   9.485  14.224  0.00  0.00    +0.000 C 
ATOM      9  O   UNL     1      47.858   8.762  15.162  0.00  0.00    +0.000 OA
ATOM     10  N   UNL     1      47.399   9.644  13.112  0.00  0.00    +0.000 N 
ATOM     11  H   UNL     1      47.629  10.331  12.408  0.00  0.00    +0.000 HD
BRANCH   8  15
ATOM     12  C   UNL     1      51.437   8.558  12.702  0.00  0.00    +0.000 C 
ATOM     13  C   UNL     1      51.027   8.216  14.140  0.00  0.00    +0.000 C 
ATOM     14  C   UNL     1      50.585   9.450  14.932  0.00  0.00    +0.000 C 
ATOM     15  C   UNL     1      49.495  10.260  14.216  0.00  0.00    +0.000 C 
ATOM     16  C   UNL     1      49.910  10.620  12.786  0.00  0.00    +0.000 C 
ATOM     17  C   UNL     1      50.371   9.400  11.984  0.00  0.00    +0.000 C 
BRANCH  12  19
ATOM     18  N   UNL     1      53.794   8.560  13.327  0.00  0.00    +0.000 N 
ATOM     19  C   UNL     1      52.800   9.226  12.673  0.00  0.00    +0.000 C 
ATOM     20  O   UNL     1      53.041  10.292  12.110  0.00  0.00    +0.000 OA
ATOM     21  H   UNL     1      54.720   8.964  13.284  0.00  0.00    +0.000 HD
ATOM     22  H   UNL     1      53.693   7.604  13.640  0.00  0.00    +0.000 HD
ENDBRANCH  12  19
ENDBRANCH   8  15
ENDBRANCH   7  10
ENDBRANCH   1   7
BRANCH   4  23
ATOM     23  C   UNL     1      46.165   4.326  14.294  0.00  0.00    +0.000 C 
BRANCH  23  24
ATOM     24  N   UNL     1      47.283   4.616  15.165  0.00  0.00    +0.000 N 
ATOM     25  C   UNL     1      47.368   4.100  16.434  0.00  0.00    +0.000 C 
ATOM     26  O   UNL     1      46.512   3.349  16.900  0.00  0.00    +0.000 OA
ATOM     27  H   UNL     1      47.865   5.412  14.916  0.00  0.00    +0.000 HD
BRANCH  25  28
ATOM     28  C   UNL     1      48.562   4.446  17.202  0.00  0.00    +0.000 A 
ATOM     29  C   UNL     1      48.624   5.673  17.847  0.00  0.00    +0.000 A 
ATOM     30  S   UNL     1      50.068   5.909  18.720  0.00  0.00    +0.000 S 
ATOM     31  C   UNL     1      50.676   4.399  18.226  0.00  0.00    +0.000 A 
ATOM     32  N   UNL     1      51.914   3.984  18.607  0.00  0.00    +0.000 NA
ATOM     33  C   UNL     1      52.257   2.831  18.138  0.00  0.00    +0.000 A 
ATOM     34  N   UNL     1      51.473   2.051  17.329  0.00  0.00    +0.000 N 
ATOM     35  C   UNL     1      50.207   2.415  16.940  0.00  0.00    +0.000 A 
ATOM     36  O   UNL     1      49.506   1.672  16.258  0.00  0.00    +0.000 OA
ATOM     37  C   UNL     1      49.781   3.712  17.427  0.00  0.00    +0.000 A 
ATOM     38  H   UNL     1      51.796   1.150  17.009  0.00  0.00    +0.000 HD
ENDBRANCH  25  28
ENDBRANCH  23  24
ENDBRANCH   4  23
TORSDOF 7
ENDMDL
MODEL 7
REMARK VINA RESULT:    -6.331      2.303      2.712
REMARK INTER + INTRA:         -10.428
REMARK INTER:                  -8.991
REMARK INTRA:                  -1.436
REMARK UNBOUND:                -1.507
REMARK  Name = 
REMARK  7 active torsions:
REMARK  status: ('A' for Active; 'I' for Inactive)
REMARK    1  A    between atoms: C_2  and  C_4
REMARK    2  A    between atoms: C_7  and  C_8
REMARK    3  A    between atoms: N_10  and  C_11
REMARK    4  A    between atoms: C_11  and  C_12
REMARK    5  A    between atoms: C_15  and  C_16
REMARK    6  A    between atoms: C_16  and  N_17
REMARK    7  A    between atoms: C_18  and  C_20
REMARK                            x       y       z     vdW  Elec       q    Type
REMARK                         _______ _______ _______ _____ _____    ______ ____
ROOT
ATOM      1  C   UNL     1      48.981   9.396  11.592  0.00  0.00    +0.000 C 
ATOM      2  C   UNL     1      48.242   9.995  12.790  0.00  0.00    +0.000 C 
ATOM      3  C   UNL     1      48.847   9.559  14.114  0.00  0.00    +0.000 C 
ATOM      4  C   UNL     1      50.362   9.817  14.191  0.00  0.00    +0.000 C 
ATOM      5  C   UNL     1      51.102   9.257  12.965  0.00  0.00    +0.000 C 
ATOM      6  C   UNL     1      50.472   9.730  11.662  0.00  0.00    +0.000 C 
ENDROOT
BRANCH   1   7
ATOM      7  C   UNL     1      48.760   7.874  11.471  0.00  0.00    +0.000 C 
BRANCH   7  10
ATOM      8  C   UNL     1      47.389   6.366  12.810  0.00  0.00    +0.000 C 
ATOM      9  O   UNL     1      48.379   5.704  13.119  0.00  0.00    +0.000 OA
ATOM     10  N   UNL     1      47.472   7.453  11.975  0.00  0.00    +0.000 N 
ATOM     11  H   UNL     1      46.636   7.910  11.639  0.00  0.00    +0.000 HD
BRANCH   8  15
ATOM     12  C   UNL     1      45.049   3.730  11.669  0.00  0.00    +0.000 C 
ATOM     13  C   UNL     1      45.087   5.156  11.105  0.00  0.00    +0.000 C 
ATOM     14  C   UNL     1      44.971   6.223  12.199  0.00  0.00    +0.000 C 
ATOM     15  C   UNL     1      45.999   6.037  13.324  0.00  0.00    +0.000 C 
ATOM     16  C   UNL     1      45.949   4.619  13.903  0.00  0.00    +0.000 C 
ATOM     17  C   UNL     1      46.048   3.540  12.822  0.00  0.00    +0.000 C 
BRANCH  12  19
ATOM     18  N   UNL     1      42.645   4.127  11.555  0.00  0.00    +0.000 N 
ATOM     19  C   UNL     1      43.636   3.348  12.074  0.00  0.00    +0.000 C 
ATOM     20  O   UNL     1      43.356   2.407  12.815  0.00  0.00    +0.000 OA
ATOM     21  H   UNL     1      41.695   3.864  11.776  0.00  0.00    +0.000 HD
ATOM     22  H   UNL     1      42.808   4.785  10.805  0.00  0.00    +0.000 HD
ENDBRANCH  12  19
ENDBRANCH   8  15
ENDBRANCH   7  10
ENDBRANCH   1   7
BRANCH   4  23
ATOM     23  C   UNL     1      50.970   9.223  15.469  0.00  0.00    +0.000 C 
BRANCH  23  24
ATOM     24  N   UNL     1      50.014   8.435  16.216  0.00  0.00    +0.000 N 
ATOM     25  C   UNL     1      50.134   7.073  16.340  0.00  0.00    +0.000 C 
ATOM     26  O   UNL     1      51.067   6.444  15.841  0.00  0.00    +0.000 OA
ATOM     27  H   UNL     1      49.119   8.872  16.421  0.00  0.00    +0.000 HD
BRANCH  25  28
ATOM     28  C   UNL     1      49.119   6.398  17.145  0.00  0.00    +0.000 A 
ATOM     29  C   UNL     1      48.408   5.340  16.596  0.00  0.00    +0.000 A 
ATOM     30  S   UNL     1      47.285   4.645  17.672  0.00  0.00    +0.000 S 
ATOM     31  C   UNL     1      47.679   5.765  18.891  0.00  0.00    +0.000 A 
ATOM     32  N   UNL     1      47.042   5.745  20.093  0.00  0.00    +0.000 NA
ATOM     33  C   UNL     1      47.423   6.668  20.912  0.00  0.00    +0.000 A 
ATOM     34  N   UNL     1      48.388   7.604  20.643  0.00  0.00    +0.000 N 
ATOM     35  C   UNL     1      49.075   7.648  19.455  0.00  0.00    +0.000 A 
ATOM     36  O   UNL     1      49.971   8.465  19.262  0.00  0.00    +0.000 OA
ATOM     37  C   UNL     1      48.672   6.641  18.492  0.00  0.00    +0.000 A 
ATOM     38  H   UNL     1      48.649   8.290  21.336  0.00  0.00    +0.000 HD
ENDBRANCH  25  28
ENDBRANCH  23  24
ENDBRANCH   4  23
TORSDOF 7
ENDMDL
MODEL 8
REMARK VINA RESULT:    -6.314      2.849      6.789
REMARK INTER + INTRA:         -10.405
REMARK INTER:                  -9.078
REMARK INTRA:                  -1.327
REMARK UNBOUND:                -1.507
REMARK  Name = 
REMARK  7 active torsions:
REMARK  status: ('A' for Active; 'I' for Inactive)
REMARK    1  A    between atoms: C_2  and  C_4
REMARK    2  A    between atoms: C_7  and  C_8
REMARK    3  A    between atoms: N_10  and  C_11
REMARK    4  A    between atoms: C_11  and  C_12
REMARK    5  A    between atoms: C_15  and  C_16
REMARK    6  A    between atoms: C_16  and  N_17
REMARK    7  A    between atoms: C_18  and  C_20
REMARK                            x       y       z     vdW  Elec       q    Type
REMARK                         _______ _______ _______ _____ _____    ______ ____
ROOT
ATOM      1  C   UNL     1      49.405   9.326  17.702  0.00  0.00    +0.000 C 
ATOM      2  C   UNL     1      50.062   8.343  16.731  0.00  0.00    +0.000 C 
ATOM      3  C   UNL     1      49.383   8.342  15.371  0.00  0.00    +0.000 C 
ATOM      4  C   UNL     1      49.263   9.749  14.763  0.00  0.00    +0.000 C 
ATOM      5  C   UNL     1      48.647  10.751  15.753  0.00  0.00    +0.000 C 
ATOM      6  C   UNL     1      49.364  10.730  17.096  0.00  0.00    +0.000 C 
ENDROOT
BRANCH   1   7
ATOM      7  C   UNL     1      47.997   8.869  18.134  0.00  0.00    +0.000 C 
BRANCH   7  10
ATOM      8  C   UNL     1      48.048   6.662  19.171  0.00  0.00    +0.000 C 
ATOM      9  O   UNL     1      48.429   7.147  20.236  0.00  0.00    +0.000 OA
ATOM     10  N   UNL     1      47.826   7.435  18.057  0.00  0.00    +0.000 N 
ATOM     11  H   UNL     1      47.630   7.008  17.163  0.00  0.00    +0.000 HD
BRANCH   8  15
ATOM     12  C   UNL     1      50.148   4.122  17.478  0.00  0.00    +0.000 C 
ATOM     13  C   UNL     1      49.048   4.936  16.785  0.00  0.00    +0.000 C 
ATOM     14  C   UNL     1      47.700   4.833  17.505  0.00  0.00    +0.000 C 
ATOM     15  C   UNL     1      47.794   5.175  18.999  0.00  0.00    +0.000 C 
ATOM     16  C   UNL     1      48.879   4.349  19.698  0.00  0.00    +0.000 C 
ATOM     17  C   UNL     1      50.229   4.428  18.982  0.00  0.00    +0.000 C 
BRANCH  12  19
ATOM     18  N   UNL     1      50.789   1.811  17.921  0.00  0.00    +0.000 N 
ATOM     19  C   UNL     1      49.971   2.638  17.210  0.00  0.00    +0.000 C 
ATOM     20  O   UNL     1      49.157   2.166  16.418  0.00  0.00    +0.000 OA
ATOM     21  H   UNL     1      50.658   0.817  17.792  0.00  0.00    +0.000 HD
ATOM     22  H   UNL     1      51.335   2.133  18.709  0.00  0.00    +0.000 HD
ENDBRANCH  12  19
ENDBRANCH   8  15
ENDBRANCH   7  10
ENDBRANCH   1   7
BRANCH   4  23
ATOM     23  C   UNL     1      48.435   9.735  13.470  0.00  0.00    +0.000 C 
BRANCH  23  24
ATOM     24  N   UNL     1      47.525   8.612  13.414  0.00  0.00    +0.000 N 
ATOM     25  C   UNL     1      47.710   7.571  12.540  0.00  0.00    +0.000 C 
ATOM     26  O   UNL     1      48.666   7.518  11.767  0.00  0.00    +0.000 OA
ATOM     27  H   UNL     1      46.612   8.739  13.845  0.00  0.00    +0.000 HD
BRANCH  25  28
ATOM     28  C   UNL     1      46.735   6.484  12.602  0.00  0.00    +0.000 A 
ATOM     29  C   UNL     1      47.114   5.258  13.131  0.00  0.00    +0.000 A 
ATOM     30  S   UNL     1      45.855   4.111  13.159  0.00  0.00    +0.000 S 
ATOM     31  C   UNL     1      44.775   5.200  12.422  0.00  0.00    +0.000 A 
ATOM     32  N   UNL     1      43.500   4.829  12.126  0.00  0.00    +0.000 NA
ATOM     33  C   UNL     1      42.800   5.745  11.546  0.00  0.00    +0.000 A 
ATOM     34  N   UNL     1      43.255   7.002  11.241  0.00  0.00    +0.000 N 
ATOM     35  C   UNL     1      44.524   7.430  11.543  0.00  0.00    +0.000 A 
ATOM     36  O   UNL     1      44.888   8.579  11.306  0.00  0.00    +0.000 OA
ATOM     37  C   UNL     1      45.358   6.430  12.182  0.00  0.00    +0.000 A 
ATOM     38  H   UNL     1      42.650   7.678  10.800  0.00  0.00    +0.000 HD
ENDBRANCH  25  28
ENDBRANCH  23  24
ENDBRANCH   4  23
TORSDOF 7
ENDMDL
MODEL 9
REMARK VINA RESULT:    -6.078      2.698      5.997
REMARK INTER + INTRA:         -10.071
REMARK INTER:                  -7.902
REMARK INTRA:                  -2.169
REMARK UNBOUND:                -1.507
REMARK  Name = 
REMARK  7 active torsions:
REMARK  status: ('A' for Active; 'I' for Inactive)
REMARK    1  A    between atoms: C_2  and  C_4
REMARK    2  A    between atoms: C_7  and  C_8
REMARK    3  A    between atoms: N_10  and  C_11
REMARK    4  A    between atoms: C_11  and  C_12
REMARK    5  A    between atoms: C_15  and  C_16
REMARK    6  A    between atoms: C_16  and  N_17
REMARK    7  A    between atoms: C_18  and  C_20
REMARK                            x       y       z     vdW  Elec       q    Type
REMARK                         _______ _______ _______ _____ _____    ______ ____
ROOT
ATOM      1  C   UNL     1      45.668   7.642  11.801  0.00  0.00    +0.000 C 
ATOM      2  C   UNL     1      47.017   6.976  11.524  0.00  0.00    +0.000 C 
ATOM      3  C   UNL     1      47.406   5.993  12.616  0.00  0.00    +0.000 C 
ATOM      4  C   UNL     1      46.307   4.956  12.903  0.00  0.00    +0.000 C 
ATOM      5  C   UNL     1      44.940   5.619  13.136  0.00  0.00    +0.000 C 
ATOM      6  C   UNL     1      44.583   6.585  12.013  0.00  0.00    +0.000 C 
ENDROOT
BRANCH   1   7
ATOM      7  C   UNL     1      45.732   8.617  12.995  0.00  0.00    +0.000 C 
BRANCH   7  10
ATOM      8  C   UNL     1      47.842   9.469  13.870  0.00  0.00    +0.000 C 
ATOM      9  O   UNL     1      47.788   8.691  14.822  0.00  0.00    +0.000 OA
ATOM     10  N   UNL     1      46.855   9.525  12.918  0.00  0.00    +0.000 N 
ATOM     11  H   UNL     1      46.857  10.248  12.213  0.00  0.00    +0.000 HD
BRANCH   8  15
ATOM     12  C   UNL     1      50.931   9.007  11.876  0.00  0.00    +0.000 C 
ATOM     13  C   UNL     1      50.794   8.635  13.358  0.00  0.00    +0.000 C 
ATOM     14  C   UNL     1      50.295   9.805  14.212  0.00  0.00    +0.000 C 
ATOM     15  C   UNL     1      49.001  10.430  13.670  0.00  0.00    +0.000 C 
ATOM     16  C   UNL     1      49.141  10.820  12.195  0.00  0.00    +0.000 C 
ATOM     17  C   UNL     1      49.655   9.667  11.329  0.00  0.00    +0.000 C 
BRANCH  12  19
ATOM     18  N   UNL     1      53.217   9.615  12.467  0.00  0.00    +0.000 N 
ATOM     19  C   UNL     1      52.159   9.869  11.647  0.00  0.00    +0.000 C 
ATOM     20  O   UNL     1      52.241  10.748  10.790  0.00  0.00    +0.000 OA
ATOM     21  H   UNL     1      54.061  10.147  12.304  0.00  0.00    +0.000 HD
ATOM     22  H   UNL     1      53.266   8.791  13.052  0.00  0.00    +0.000 HD
ENDBRANCH  12  19
ENDBRANCH   8  15
ENDBRANCH   7  10
ENDBRANCH   1   7
BRANCH   4  23
ATOM     23  C   UNL     1      46.662   4.082  14.114  0.00  0.00    +0.000 C 
BRANCH  23  24
ATOM     24  N   UNL     1      47.004   4.869  15.278  0.00  0.00    +0.000 N 
ATOM     25  C   UNL     1      47.385   4.287  16.462  0.00  0.00    +0.000 C 
ATOM     26  O   UNL     1      47.476   3.067  16.599  0.00  0.00    +0.000 OA
ATOM     27  H   UNL     1      46.704   5.840  15.280  0.00  0.00    +0.000 HD
BRANCH  25  28
ATOM     28  C   UNL     1      47.732   5.193  17.554  0.00  0.00    +0.000 A 
ATOM     29  C   UNL     1      46.990   5.164  18.725  0.00  0.00    +0.000 A 
ATOM     30  S   UNL     1      47.540   6.260  19.907  0.00  0.00    +0.000 S 
ATOM     31  C   UNL     1      48.761   6.843  18.875  0.00  0.00    +0.000 A 
ATOM     32  N   UNL     1      49.596   7.841  19.271  0.00  0.00    +0.000 NA
ATOM     33  C   UNL     1      50.456   8.201  18.378  0.00  0.00    +0.000 A 
ATOM     34  N   UNL     1      50.564   7.649  17.128  0.00  0.00    +0.000 N 
ATOM     35  C   UNL     1      49.762   6.623  16.693  0.00  0.00    +0.000 A 
ATOM     36  O   UNL     1      49.916   6.112  15.587  0.00  0.00    +0.000 OA
ATOM     37  C   UNL     1      48.765   6.192  17.654  0.00  0.00    +0.000 A 
ATOM     38  H   UNL     1      51.271   7.967  16.482  0.00  0.00    +0.000 HD
ENDBRANCH  25  28
ENDBRANCH  23  24
ENDBRANCH   4  23
TORSDOF 7
ENDMDL
