MODEL 1
REMARK VINA RESULT:    -8.334      0.000      0.000
REMARK INTER + INTRA:         -12.669
REMARK INTER:                 -11.745
REMARK INTRA:                  -0.924
REMARK UNBOUND:                -0.924
REMARK  Name = 
REMARK  7 active torsions:
REMARK  status: ('A' for Active; 'I' for Inactive)
REMARK    1  A    between atoms: C_2  and  C_4
REMARK    2  A    between atoms: C_7  and  C_8
REMARK    3  A    between atoms: C_8  and  C_9
REMARK    4  A    between atoms: C_9  and  O_10
REMARK    5  A    between atoms: O_10  and  C_11
REMARK    6  A    between atoms: C_15  and  O_16
REMARK    7  A    between atoms: O_16  and  C_17
REMARK                            x       y       z     vdW  Elec       q    Type
REMARK                         _______ _______ _______ _____ _____    ______ ____
ROOT
ATOM      1  C   UNL     1      43.401   4.224  11.411  0.00  0.00    +0.000 C 
ENDROOT
BRANCH   1   2
ATOM      2  C   UNL     1      43.688   4.767  10.014  0.00  0.00    +0.000 C 
BRANCH   2   6
ATOM      3  C   UNL     1      46.448   2.460   7.755  0.00  0.00    +0.000 A 
ATOM      4  C   UNL     1      45.680   1.820   8.727  0.00  0.00    +0.000 A 
ATOM      5  C   UNL     1      44.788   2.571   9.488  0.00  0.00    +0.000 A 
ATOM      6  C   UNL     1      44.684   3.941   9.252  0.00  0.00    +0.000 A 
ATOM      7  N   UNL     1      45.445   4.584   8.332  0.00  0.00    +0.000 NA
ATOM      8  C   UNL     1      46.316   3.834   7.614  0.00  0.00    +0.000 A 
BRANCH   3  10
ATOM      9  N   UNL     1      48.492   2.431   6.450  0.00  0.00    +0.000 N 
ATOM     10  C   UNL     1      47.390   1.737   6.878  0.00  0.00    +0.000 C 
ATOM     11  O   UNL     1      47.225   0.566   6.584  0.00  0.00    +0.000 OA
ATOM     12  H   UNL     1      49.188   1.901   5.942  0.00  0.00    +0.000 HD
ATOM     13  H   UNL     1      48.781   3.301   6.873  0.00  0.00    +0.000 HD
ENDBRANCH   3  10
ENDBRANCH   2   6
ENDBRANCH   1   2
BRANCH   1  14
ATOM     14  O   UNL     1      43.531   5.254  12.402  0.00  0.00    +0.000 OA
BRANCH  14  15
ATOM     15  C   UNL     1      44.821   5.482  12.818  0.00  0.00    +0.000 A 
ATOM     16  C   UNL     1      45.497   6.689  12.645  0.00  0.00    +0.000 A 
ATOM     17  C   UNL     1      46.797   6.846  13.130  0.00  0.00    +0.000 A 
ATOM     18  C   UNL     1      47.432   5.796  13.796  0.00  0.00    +0.000 A 
ATOM     19  C   UNL     1      46.763   4.587  13.974  0.00  0.00    +0.000 A 
ATOM     20  C   UNL     1      45.454   4.439  13.500  0.00  0.00    +0.000 A 
BRANCH  19  21
ATOM     21  O   UNL     1      47.287   3.501  14.634  0.00  0.00    +0.000 OA
BRANCH  21  22
ATOM     22  C   UNL     1      47.963   3.704  15.898  0.00  0.00    +0.000 C 
ATOM     23  C   UNL     1      48.504   2.446  16.617  0.00  0.00    +0.000 C 
ATOM     24  C   UNL     1      47.829   2.908  17.915  0.00  0.00    +0.000 C 
ATOM     25  C   UNL     1      47.011   3.918  17.102  0.00  0.00    +0.000 C 
ENDBRANCH  21  22
ENDBRANCH  19  21
ENDBRANCH  14  15
ENDBRANCH   1  14
TORSDOF 7
ENDMDL
MODEL 2
REMARK VINA RESULT:    -8.285      1.107      1.515
REMARK INTER + INTRA:         -12.599
REMARK INTER:                 -11.517
REMARK INTRA:                  -1.082
REMARK UNBOUND:                -0.924
REMARK  Name = 
REMARK  7 active torsions:
REMARK  status: ('A' for Active; 'I' for Inactive)
REMARK    1  A    between atoms: C_2  and  C_4
REMARK    2  A    between atoms: C_7  and  C_8
REMARK    3  A    between atoms: C_8  and  C_9
REMARK    4  A    between atoms: C_9  and  O_10
REMARK    5  A    between atoms: O_10  and  C_11
REMARK    6  A    between atoms: C_15  and  O_16
REMARK    7  A    between atoms: O_16  and  C_17
REMARK                            x       y       z     vdW  Elec       q    Type
REMARK                         _______ _______ _______ _____ _____    ______ ____
ROOT
ATOM      1  C   UNL     1      43.567   4.865  11.067  0.00  0.00    +0.000 C 
ENDROOT
BRANCH   1   2
ATOM      2  C   UNL     1      43.742   3.392  10.711  0.00  0.00    +0.000 C 
BRANCH   2   6
ATOM      3  C   UNL     1      46.465   2.724   7.519  0.00  0.00    +0.000 A 
ATOM      4  C   UNL     1      46.015   4.022   7.753  0.00  0.00    +0.000 A 
ATOM      5  C   UNL     1      45.106   4.249   8.783  0.00  0.00    +0.000 A 
ATOM      6  C   UNL     1      44.676   3.170   9.555  0.00  0.00    +0.000 A 
ATOM      7  N   UNL     1      45.080   1.897   9.322  0.00  0.00    +0.000 NA
ATOM      8  C   UNL     1      45.954   1.701   8.305  0.00  0.00    +0.000 A 
BRANCH   3  10
ATOM      9  N   UNL     1      47.377   3.106   5.305  0.00  0.00    +0.000 N 
ATOM     10  C   UNL     1      47.456   2.398   6.475  0.00  0.00    +0.000 C 
ATOM     11  O   UNL     1      48.335   1.573   6.658  0.00  0.00    +0.000 OA
ATOM     12  H   UNL     1      48.123   2.958   4.637  0.00  0.00    +0.000 HD
ATOM     13  H   UNL     1      46.833   3.953   5.220  0.00  0.00    +0.000 HD
ENDBRANCH   3  10
ENDBRANCH   2   6
ENDBRANCH   1   2
BRANCH   1  14
ATOM     14  O   UNL     1      43.996   5.125  12.412  0.00  0.00    +0.000 OA
BRANCH  14  15
ATOM     15  C   UNL     1      45.296   5.559  12.520  0.00  0.00    +0.000 A 
ATOM     16  C   UNL     1      45.916   6.411  11.606  0.00  0.00    +0.000 A 
ATOM     17  C   UNL     1      47.232   6.829  11.813  0.00  0.00    +0.000 A 
ATOM     18  C   UNL     1      47.940   6.401  12.937  0.00  0.00    +0.000 A 
ATOM     19  C   UNL     1      47.328   5.550  13.855  0.00  0.00    +0.000 A 
ATOM     20  C   UNL     1      46.003   5.146  13.653  0.00  0.00    +0.000 A 
BRANCH  19  21
ATOM     21  O   UNL     1      47.925   5.089  15.004  0.00  0.00    +0.000 OA
BRANCH  21  22
ATOM     22  C   UNL     1      47.248   4.082  15.795  0.00  0.00    +0.000 C 
ATOM     23  C   UNL     1      47.154   4.330  17.318  0.00  0.00    +0.000 C 
ATOM     24  C   UNL     1      47.675   2.910  17.573  0.00  0.00    +0.000 C 
ATOM     25  C   UNL     1      48.108   2.831  16.105  0.00  0.00    +0.000 C 
ENDBRANCH  21  22
ENDBRANCH  19  21
ENDBRANCH  14  15
ENDBRANCH   1  14
TORSDOF 7
ENDMDL
MODEL 3
REMARK VINA RESULT:    -6.935      3.157      7.822
REMARK INTER + INTRA:         -10.697
REMARK INTER:                  -9.762
REMARK INTRA:                  -0.935
REMARK UNBOUND:                -0.924
REMARK  Name = 
REMARK  7 active torsions:
REMARK  status: ('A' for Active; 'I' for Inactive)
REMARK    1  A    between atoms: C_2  and  C_4
REMARK    2  A    between atoms: C_7  and  C_8
REMARK    3  A    between atoms: C_8  and  C_9
REMARK    4  A    between atoms: C_9  and  O_10
REMARK    5  A    between atoms: O_10  and  C_11
REMARK    6  A    between atoms: C_15  and  O_16
REMARK    7  A    between atoms: O_16  and  C_17
REMARK                            x       y       z     vdW  Elec       q    Type
REMARK                         _______ _______ _______ _____ _____    ______ ____
ROOT
ATOM      1  C   UNL     1      45.857   6.830  12.645  0.00  0.00    +0.000 C 
ENDROOT
BRANCH   1   2
ATOM      2  C   UNL     1      47.328   6.491  12.867  0.00  0.00    +0.000 C 
BRANCH   2   6
ATOM      3  C   UNL     1      48.170   4.524  16.537  0.00  0.00    +0.000 A 
ATOM      4  C   UNL     1      47.220   3.967  15.683  0.00  0.00    +0.000 A 
ATOM      5  C   UNL     1      46.920   4.616  14.488  0.00  0.00    +0.000 A 
ATOM      6  C   UNL     1      47.585   5.801  14.177  0.00  0.00    +0.000 A 
ATOM      7  N   UNL     1      48.490   6.372  15.008  0.00  0.00    +0.000 NA
ATOM      8  C   UNL     1      48.754   5.729  16.173  0.00  0.00    +0.000 A 
BRANCH   3  10
ATOM      9  N   UNL     1      47.626   3.147  18.457  0.00  0.00    +0.000 N 
ATOM     10  C   UNL     1      48.577   3.887  17.804  0.00  0.00    +0.000 C 
ATOM     11  O   UNL     1      49.716   3.972  18.230  0.00  0.00    +0.000 OA
ATOM     12  H   UNL     1      47.939   2.622  19.264  0.00  0.00    +0.000 HD
ATOM     13  H   UNL     1      46.768   2.854  18.011  0.00  0.00    +0.000 HD
ENDBRANCH   3  10
ENDBRANCH   2   6
ENDBRANCH   1   2
BRANCH   1  14
ATOM     14  O   UNL     1      45.495   6.678  11.265  0.00  0.00    +0.000 OA
BRANCH  14  15
ATOM     15  C   UNL     1      45.048   5.422  10.929  0.00  0.00    +0.000 A 
ATOM     16  C   UNL     1      44.375   4.570  11.804  0.00  0.00    +0.000 A 
ATOM     17  C   UNL     1      43.925   3.322  11.368  0.00  0.00    +0.000 A 
ATOM     18  C   UNL     1      44.142   2.916  10.051  0.00  0.00    +0.000 A 
ATOM     19  C   UNL     1      44.813   3.761   9.169  0.00  0.00    +0.000 A 
ATOM     20  C   UNL     1      45.248   5.018   9.606  0.00  0.00    +0.000 A 
BRANCH  19  21
ATOM     21  O   UNL     1      45.058   3.469   7.849  0.00  0.00    +0.000 OA
BRANCH  21  22
ATOM     22  C   UNL     1      46.409   3.147   7.438  0.00  0.00    +0.000 C 
ATOM     23  C   UNL     1      46.662   2.978   5.922  0.00  0.00    +0.000 C 
ATOM     24  C   UNL     1      47.375   1.648   6.198  0.00  0.00    +0.000 C 
ATOM     25  C   UNL     1      46.789   1.655   7.614  0.00  0.00    +0.000 C 
ENDBRANCH  21  22
ENDBRANCH  19  21
ENDBRANCH  14  15
ENDBRANCH   1  14
TORSDOF 7
ENDMDL
MODEL 4
REMARK VINA RESULT:    -6.729      3.756      7.983
REMARK INTER + INTRA:         -10.406
REMARK INTER:                  -9.940
REMARK INTRA:                  -0.467
REMARK UNBOUND:                -0.924
REMARK  Name = 
REMARK  7 active torsions:
REMARK  status: ('A' for Active; 'I' for Inactive)
REMARK    1  A    between atoms: C_2  and  C_4
REMARK    2  A    between atoms: C_7  and  C_8
REMARK    3  A    between atoms: C_8  and  C_9
REMARK    4  A    between atoms: C_9  and  O_10
REMARK    5  A    between atoms: O_10  and  C_11
REMARK    6  A    between atoms: C_15  and  O_16
REMARK    7  A    between atoms: O_16  and  C_17
REMARK                            x       y       z     vdW  Elec       q    Type
REMARK                         _______ _______ _______ _____ _____    ______ ____
ROOT
ATOM      1  C   UNL     1      46.849   3.972  14.378  0.00  0.00    +0.000 C 
ENDROOT
BRANCH   1   2
ATOM      2  C   UNL     1      47.150   4.289  15.840  0.00  0.00    +0.000 C 
BRANCH   2   6
ATOM      3  C   UNL     1      50.682   2.421  17.285  0.00  0.00    +0.000 A 
ATOM      4  C   UNL     1      50.410   3.731  17.677  0.00  0.00    +0.000 A 
ATOM      5  C   UNL     1      49.266   4.360  17.192  0.00  0.00    +0.000 A 
ATOM      6  C   UNL     1      48.422   3.659  16.332  0.00  0.00    +0.000 A 
ATOM      7  N   UNL     1      48.687   2.396  15.916  0.00  0.00    +0.000 NA
ATOM      8  C   UNL     1      49.814   1.810  16.391  0.00  0.00    +0.000 A 
BRANCH   3  10
ATOM      9  N   UNL     1      51.645   0.345  18.086  0.00  0.00    +0.000 N 
ATOM     10  C   UNL     1      51.849   1.665  17.779  0.00  0.00    +0.000 C 
ATOM     11  O   UNL     1      52.953   2.173  17.866  0.00  0.00    +0.000 OA
ATOM     12  H   UNL     1      52.469  -0.196  18.317  0.00  0.00    +0.000 HD
ATOM     13  H   UNL     1      50.821  -0.159  17.790  0.00  0.00    +0.000 HD
ENDBRANCH   3  10
ENDBRANCH   2   6
ENDBRANCH   1   2
BRANCH   1  14
ATOM     14  O   UNL     1      46.493   5.160  13.656  0.00  0.00    +0.000 OA
BRANCH  14  15
ATOM     15  C   UNL     1      45.379   5.030  12.861  0.00  0.00    +0.000 A 
ATOM     16  C   UNL     1      44.348   5.967  12.799  0.00  0.00    +0.000 A 
ATOM     17  C   UNL     1      43.267   5.770  11.936  0.00  0.00    +0.000 A 
ATOM     18  C   UNL     1      43.210   4.636  11.126  0.00  0.00    +0.000 A 
ATOM     19  C   UNL     1      44.237   3.695  11.181  0.00  0.00    +0.000 A 
ATOM     20  C   UNL     1      45.326   3.904  12.036  0.00  0.00    +0.000 A 
BRANCH  19  21
ATOM     21  O   UNL     1      44.290   2.558  10.411  0.00  0.00    +0.000 OA
BRANCH  21  22
ATOM     22  C   UNL     1      44.508   2.683   8.985  0.00  0.00    +0.000 C 
ATOM     23  C   UNL     1      45.797   2.049   8.412  0.00  0.00    +0.000 C 
ATOM     24  C   UNL     1      46.106   3.361   7.678  0.00  0.00    +0.000 C 
ATOM     25  C   UNL     1      45.054   4.065   8.544  0.00  0.00    +0.000 C 
ENDBRANCH  21  22
ENDBRANCH  19  21
ENDBRANCH  14  15
ENDBRANCH   1  14
TORSDOF 7
ENDMDL
MODEL 5
REMARK VINA RESULT:    -6.704      2.523      3.162
REMARK INTER + INTRA:         -10.371
REMARK INTER:                  -9.680
REMARK INTRA:                  -0.692
REMARK UNBOUND:                -0.924
REMARK  Name = 
REMARK  7 active torsions:
REMARK  status: ('A' for Active; 'I' for Inactive)
REMARK    1  A    between atoms: C_2  and  C_4
REMARK    2  A    between atoms: C_7  and  C_8
REMARK    3  A    between atoms: C_8  and  C_9
REMARK    4  A    between atoms: C_9  and  O_10
REMARK    5  A    between atoms: O_10  and  C_11
REMARK    6  A    between atoms: C_15  and  O_16
REMARK    7  A    between atoms: O_16  and  C_17
REMARK                            x       y       z     vdW  Elec       q    Type
REMARK                         _______ _______ _______ _____ _____    ______ ____
ROOT
ATOM      1  C   UNL     1      44.190   4.709  11.471  0.00  0.00    +0.000 C 
ENDROOT
BRANCH   1   2
ATOM      2  C   UNL     1      43.681   4.353  10.077  0.00  0.00    +0.000 C 
BRANCH   2   6
ATOM      3  C   UNL     1      46.597   2.639   7.507  0.00  0.00    +0.000 A 
ATOM      4  C   UNL     1      45.916   1.807   8.393  0.00  0.00    +0.000 A 
ATOM      5  C   UNL     1      44.973   2.361   9.255  0.00  0.00    +0.000 A 
ATOM      6  C   UNL     1      44.734   3.734   9.203  0.00  0.00    +0.000 A 
ATOM      7  N   UNL     1      45.408   4.563   8.368  0.00  0.00    +0.000 NA
ATOM      8  C   UNL     1      46.331   4.001   7.549  0.00  0.00    +0.000 A 
BRANCH   3  10
ATOM      9  N   UNL     1      47.863   2.939   5.460  0.00  0.00    +0.000 N 
ATOM     10  C   UNL     1      47.583   2.133   6.533  0.00  0.00    +0.000 C 
ATOM     11  O   UNL     1      48.159   1.071   6.694  0.00  0.00    +0.000 OA
ATOM     12  H   UNL     1      48.618   2.639   4.856  0.00  0.00    +0.000 HD
ATOM     13  H   UNL     1      47.598   3.913   5.432  0.00  0.00    +0.000 HD
ENDBRANCH   3  10
ENDBRANCH   2   6
ENDBRANCH   1   2
BRANCH   1  14
ATOM     14  O   UNL     1      45.600   4.978  11.452  0.00  0.00    +0.000 OA
BRANCH  14  15
ATOM     15  C   UNL     1      45.933   6.285  11.717  0.00  0.00    +0.000 A 
ATOM     16  C   UNL     1      45.033   7.349  11.664  0.00  0.00    +0.000 A 
ATOM     17  C   UNL     1      45.450   8.642  11.983  0.00  0.00    +0.000 A 
ATOM     18  C   UNL     1      46.771   8.883  12.362  0.00  0.00    +0.000 A 
ATOM     19  C   UNL     1      47.677   7.826  12.419  0.00  0.00    +0.000 A 
ATOM     20  C   UNL     1      47.251   6.528  12.113  0.00  0.00    +0.000 A 
BRANCH  19  21
ATOM     21  O   UNL     1      48.992   7.950  12.800  0.00  0.00    +0.000 OA
BRANCH  21  22
ATOM     22  C   UNL     1      49.297   8.303  14.171  0.00  0.00    +0.000 C 
ATOM     23  C   UNL     1      50.558   9.163  14.413  0.00  0.00    +0.000 C 
ATOM     24  C   UNL     1      51.013   8.177  15.497  0.00  0.00    +0.000 C 
ATOM     25  C   UNL     1      49.977   7.171  14.983  0.00  0.00    +0.000 C 
ENDBRANCH  21  22
ENDBRANCH  19  21
ENDBRANCH  14  15
ENDBRANCH   1  14
TORSDOF 7
ENDMDL
MODEL 6
REMARK VINA RESULT:    -6.666      1.976      4.027
REMARK INTER + INTRA:         -10.319
REMARK INTER:                  -9.632
REMARK INTRA:                  -0.687
REMARK UNBOUND:                -0.924
REMARK  Name = 
REMARK  7 active torsions:
REMARK  status: ('A' for Active; 'I' for Inactive)
REMARK    1  A    between atoms: C_2  and  C_4
REMARK    2  A    between atoms: C_7  and  C_8
REMARK    3  A    between atoms: C_8  and  C_9
REMARK    4  A    between atoms: C_9  and  O_10
REMARK    5  A    between atoms: O_10  and  C_11
REMARK    6  A    between atoms: C_15  and  O_16
REMARK    7  A    between atoms: O_16  and  C_17
REMARK                            x       y       z     vdW  Elec       q    Type
REMARK                         _______ _______ _______ _____ _____    ______ ____
ROOT
ATOM      1  C   UNL     1      44.433   3.064  11.914  0.00  0.00    +0.000 C 
ENDROOT
BRANCH   1   2
ATOM      2  C   UNL     1      43.917   3.609  10.586  0.00  0.00    +0.000 C 
BRANCH   2   6
ATOM      3  C   UNL     1      46.493   2.581   7.368  0.00  0.00    +0.000 A 
ATOM      4  C   UNL     1      46.009   3.886   7.446  0.00  0.00    +0.000 A 
ATOM      5  C   UNL     1      45.146   4.228   8.485  0.00  0.00    +0.000 A 
ATOM      6  C   UNL     1      44.796   3.255   9.420  0.00  0.00    +0.000 A 
ATOM      7  N   UNL     1      45.234   1.974   9.343  0.00  0.00    +0.000 NA
ATOM      8  C   UNL     1      46.060   1.663   8.314  0.00  0.00    +0.000 A 
BRANCH   3  10
ATOM      9  N   UNL     1      48.747   2.519   6.478  0.00  0.00    +0.000 N 
ATOM     10  C   UNL     1      47.439   2.141   6.324  0.00  0.00    +0.000 C 
ATOM     11  O   UNL     1      47.089   1.436   5.394  0.00  0.00    +0.000 OA
ATOM     12  H   UNL     1      49.410   2.124   5.823  0.00  0.00    +0.000 HD
ATOM     13  H   UNL     1      49.108   2.879   7.350  0.00  0.00    +0.000 HD
ENDBRANCH   3  10
ENDBRANCH   2   6
ENDBRANCH   1   2
BRANCH   1  14
ATOM     14  O   UNL     1      44.220   4.006  12.976  0.00  0.00    +0.000 OA
BRANCH  14  15
ATOM     15  C   UNL     1      45.316   4.777  13.282  0.00  0.00    +0.000 A 
ATOM     16  C   UNL     1      46.292   4.417  14.210  0.00  0.00    +0.000 A 
ATOM     17  C   UNL     1      47.392   5.247  14.434  0.00  0.00    +0.000 A 
ATOM     18  C   UNL     1      47.528   6.444  13.729  0.00  0.00    +0.000 A 
ATOM     19  C   UNL     1      46.557   6.811  12.799  0.00  0.00    +0.000 A 
ATOM     20  C   UNL     1      45.463   5.968  12.566  0.00  0.00    +0.000 A 
BRANCH  19  21
ATOM     21  O   UNL     1      46.605   7.953  12.037  0.00  0.00    +0.000 OA
BRANCH  21  22
ATOM     22  C   UNL     1      47.543   8.997  12.392  0.00  0.00    +0.000 C 
ATOM     23  C   UNL     1      47.289  10.403  11.800  0.00  0.00    +0.000 C 
ATOM     24  C   UNL     1      48.753  10.466  11.344  0.00  0.00    +0.000 C 
ATOM     25  C   UNL     1      48.871   8.958  11.593  0.00  0.00    +0.000 C 
ENDBRANCH  21  22
ENDBRANCH  19  21
ENDBRANCH  14  15
ENDBRANCH   1  14
TORSDOF 7
ENDMDL
MODEL 7
REMARK VINA RESULT:    -6.545      3.816      8.398
REMARK INTER + INTRA:         -10.147
REMARK INTER:                  -9.544
REMARK INTRA:                  -0.603
REMARK UNBOUND:                -0.924
REMARK  Name = 
REMARK  7 active torsions:
REMARK  status: ('A' for Active; 'I' for Inactive)
REMARK    1  A    between atoms: C_2  and  C_4
REMARK    2  A    between atoms: C_7  and  C_8
REMARK    3  A    between atoms: C_8  and  C_9
REMARK    4  A    between atoms: C_9  and  O_10
REMARK    5  A    between atoms: O_10  and  C_11
REMARK    6  A    between atoms: C_15  and  O_16
REMARK    7  A    between atoms: O_16  and  C_17
REMARK                            x       y       z     vdW  Elec       q    Type
REMARK                         _______ _______ _______ _____ _____    ______ ____
ROOT
ATOM      1  C   UNL     1      46.811   4.102  13.768  0.00  0.00    +0.000 C 
ENDROOT
BRANCH   1   2
ATOM      2  C   UNL     1      47.418   5.340  14.422  0.00  0.00    +0.000 C 
BRANCH   2   6
ATOM      3  C   UNL     1      48.764   4.686  18.398  0.00  0.00    +0.000 A 
ATOM      4  C   UNL     1      47.998   3.699  17.781  0.00  0.00    +0.000 A 
ATOM      5  C   UNL     1      47.533   3.912  16.485  0.00  0.00    +0.000 A 
ATOM      6  C   UNL     1      47.853   5.106  15.841  0.00  0.00    +0.000 A 
ATOM      7  N   UNL     1      48.572   6.089  16.436  0.00  0.00    +0.000 NA
ATOM      8  C   UNL     1      49.000   5.864  17.703  0.00  0.00    +0.000 A 
BRANCH   3  10
ATOM      9  N   UNL     1      48.496   4.017  20.713  0.00  0.00    +0.000 N 
ATOM     10  C   UNL     1      49.328   4.529  19.752  0.00  0.00    +0.000 C 
ATOM     11  O   UNL     1      50.491   4.797  19.999  0.00  0.00    +0.000 OA
ATOM     12  H   UNL     1      48.918   3.808  21.609  0.00  0.00    +0.000 HD
ATOM     13  H   UNL     1      47.625   3.558  20.487  0.00  0.00    +0.000 HD
ENDBRANCH   3  10
ENDBRANCH   2   6
ENDBRANCH   1   2
BRANCH   1  14
ATOM     14  O   UNL     1      45.389   4.062  13.962  0.00  0.00    +0.000 OA
BRANCH  14  15
ATOM     15  C   UNL     1      44.654   4.406  12.853  0.00  0.00    +0.000 A 
ATOM     16  C   UNL     1      43.302   4.747  12.885  0.00  0.00    +0.000 A 
ATOM     17  C   UNL     1      42.641   5.118  11.712  0.00  0.00    +0.000 A 
ATOM     18  C   UNL     1      43.326   5.155  10.498  0.00  0.00    +0.000 A 
ATOM     19  C   UNL     1      44.678   4.817  10.457  0.00  0.00    +0.000 A 
ATOM     20  C   UNL     1      45.341   4.461  11.637  0.00  0.00    +0.000 A 
BRANCH  19  21
ATOM     21  O   UNL     1      45.450   4.842   9.320  0.00  0.00    +0.000 OA
BRANCH  21  22
ATOM     22  C   UNL     1      45.279   3.800   8.330  0.00  0.00    +0.000 C 
ATOM     23  C   UNL     1      45.547   2.347   8.784  0.00  0.00    +0.000 C 
ATOM     24  C   UNL     1      46.446   2.138   7.558  0.00  0.00    +0.000 C 
ATOM     25  C   UNL     1      46.468   3.656   7.346  0.00  0.00    +0.000 C 
ENDBRANCH  21  22
ENDBRANCH  19  21
ENDBRANCH  14  15
ENDBRANCH   1  14
TORSDOF 7
ENDMDL
MODEL 8
REMARK VINA RESULT:    -6.325      4.201      8.204
REMARK INTER + INTRA:          -9.838
REMARK INTER:                  -9.377
REMARK INTRA:                  -0.460
REMARK UNBOUND:                -0.924
REMARK  Name = 
REMARK  7 active torsions:
REMARK  status: ('A' for Active; 'I' for Inactive)
REMARK    1  A    between atoms: C_2  and  C_4
REMARK    2  A    between atoms: C_7  and  C_8
REMARK    3  A    between atoms: C_8  and  C_9
REMARK    4  A    between atoms: C_9  and  O_10
REMARK    5  A    between atoms: O_10  and  C_11
REMARK    6  A    between atoms: C_15  and  O_16
REMARK    7  A    between atoms: O_16  and  C_17
REMARK                            x       y       z     vdW  Elec       q    Type
REMARK                         _______ _______ _______ _____ _____    ______ ____
ROOT
ATOM      1  C   UNL     1      47.291   4.396  15.920  0.00  0.00    +0.000 C 
ENDROOT
BRANCH   1   2
ATOM      2  C   UNL     1      47.588   3.160  16.763  0.00  0.00    +0.000 C 
BRANCH   2   6
ATOM      3  C   UNL     1      51.681   2.636  17.776  0.00  0.00    +0.000 A 
ATOM      4  C   UNL     1      51.045   3.818  18.153  0.00  0.00    +0.000 A 
ATOM      5  C   UNL     1      49.709   4.009  17.807  0.00  0.00    +0.000 A 
ATOM      6  C   UNL     1      49.045   3.009  17.098  0.00  0.00    +0.000 A 
ATOM      7  N   UNL     1      49.656   1.867  16.698  0.00  0.00    +0.000 NA
ATOM      8  C   UNL     1      50.960   1.711  17.034  0.00  0.00    +0.000 A 
BRANCH   3  10
ATOM      9  N   UNL     1      53.446   2.547  19.436  0.00  0.00    +0.000 N 
ATOM     10  C   UNL     1      53.080   2.333  18.133  0.00  0.00    +0.000 C 
ATOM     11  O   UNL     1      53.864   1.871  17.323  0.00  0.00    +0.000 OA
ATOM     12  H   UNL     1      54.372   2.234  19.701  0.00  0.00    +0.000 HD
ATOM     13  H   UNL     1      52.769   2.684  20.173  0.00  0.00    +0.000 HD
ENDBRANCH   3  10
ENDBRANCH   2   6
ENDBRANCH   1   2
BRANCH   1  14
ATOM     14  O   UNL     1      47.535   4.144  14.529  0.00  0.00    +0.000 OA
BRANCH  14  15
ATOM     15  C   UNL     1      46.933   5.036  13.674  0.00  0.00    +0.000 A 
ATOM     16  C   UNL     1      47.593   6.098  13.059  0.00  0.00    +0.000 A 
ATOM     17  C   UNL     1      46.910   6.937  12.176  0.00  0.00    +0.000 A 
ATOM     18  C   UNL     1      45.560   6.718  11.898  0.00  0.00    +0.000 A 
ATOM     19  C   UNL     1      44.893   5.658  12.508  0.00  0.00    +0.000 A 
ATOM     20  C   UNL     1      45.585   4.810  13.381  0.00  0.00    +0.000 A 
BRANCH  19  21
ATOM     21  O   UNL     1      43.573   5.341  12.287  0.00  0.00    +0.000 OA
BRANCH  21  22
ATOM     22  C   UNL     1      43.236   4.455  11.192  0.00  0.00    +0.000 C 
ATOM     23  C   UNL     1      43.409   2.938  11.436  0.00  0.00    +0.000 C 
ATOM     24  C   UNL     1      44.190   2.824  10.120  0.00  0.00    +0.000 C 
ATOM     25  C   UNL     1      44.330   4.351  10.099  0.00  0.00    +0.000 C 
ENDBRANCH  21  22
ENDBRANCH  19  21
ENDBRANCH  14  15
ENDBRANCH   1  14
TORSDOF 7
ENDMDL
MODEL 9
REMARK VINA RESULT:    -6.182      3.845      7.881
REMARK INTER + INTRA:          -9.636
REMARK INTER:                  -8.880
REMARK INTRA:                  -0.756
REMARK UNBOUND:                -0.924
REMARK  Name = 
REMARK  7 active torsions:
REMARK  status: ('A' for Active; 'I' for Inactive)
REMARK    1  A    between atoms: C_2  and  C_4
REMARK    2  A    between atoms: C_7  and  C_8
REMARK    3  A    between atoms: C_8  and  C_9
REMARK    4  A    between atoms: C_9  and  O_10
REMARK    5  A    between atoms: O_10  and  C_11
REMARK    6  A    between atoms: C_15  and  O_16
REMARK    7  A    between atoms: O_16  and  C_17
REMARK                            x       y       z     vdW  Elec       q    Type
REMARK                         _______ _______ _______ _____ _____    ______ ____
ROOT
ATOM      1  C   UNL     1      46.082   6.490  12.971  0.00  0.00    +0.000 C 
ENDROOT
BRANCH   1   2
ATOM      2  C   UNL     1      47.431   5.779  12.967  0.00  0.00    +0.000 C 
BRANCH   2   6
ATOM      3  C   UNL     1      50.672   8.513  13.233  0.00  0.00    +0.000 A 
ATOM      4  C   UNL     1      50.020   8.366  12.010  0.00  0.00    +0.000 A 
ATOM      5  C   UNL     1      48.971   7.456  11.906  0.00  0.00    +0.000 A 
ATOM      6  C   UNL     1      48.598   6.723  13.032  0.00  0.00    +0.000 A 
ATOM      7  N   UNL     1      49.240   6.832  14.221  0.00  0.00    +0.000 NA
ATOM      8  C   UNL     1      50.268   7.713  14.293  0.00  0.00    +0.000 A 
BRANCH   3  10
ATOM      9  N   UNL     1      51.621  10.714  12.868  0.00  0.00    +0.000 N 
ATOM     10  C   UNL     1      51.767   9.479  13.444  0.00  0.00    +0.000 C 
ATOM     11  O   UNL     1      52.735   9.213  14.135  0.00  0.00    +0.000 OA
ATOM     12  H   UNL     1      52.319  11.408  13.106  0.00  0.00    +0.000 HD
ATOM     13  H   UNL     1      50.735  11.044  12.512  0.00  0.00    +0.000 HD
ENDBRANCH   3  10
ENDBRANCH   2   6
ENDBRANCH   1   2
BRANCH   1  14
ATOM     14  O   UNL     1      45.644   6.772  11.634  0.00  0.00    +0.000 OA
BRANCH  14  15
ATOM     15  C   UNL     1      45.228   5.669  10.927  0.00  0.00    +0.000 A 
ATOM     16  C   UNL     1      44.274   4.760  11.384  0.00  0.00    +0.000 A 
ATOM     17  C   UNL     1      43.885   3.684  10.584  0.00  0.00    +0.000 A 
ATOM     18  C   UNL     1      44.445   3.508   9.318  0.00  0.00    +0.000 A 
ATOM     19  C   UNL     1      45.398   4.412   8.853  0.00  0.00    +0.000 A 
ATOM     20  C   UNL     1      45.774   5.499   9.652  0.00  0.00    +0.000 A 
BRANCH  19  21
ATOM     21  O   UNL     1      45.994   4.344   7.616  0.00  0.00    +0.000 OA
BRANCH  21  22
ATOM     22  C   UNL     1      46.051   3.070   6.931  0.00  0.00    +0.000 C 
ATOM     23  C   UNL     1      47.006   2.002   7.513  0.00  0.00    +0.000 C 
ATOM     24  C   UNL     1      47.594   1.777   6.113  0.00  0.00    +0.000 C 
ATOM     25  C   UNL     1      46.922   3.075   5.649  0.00  0.00    +0.000 C 
ENDBRANCH  21  22
ENDBRANCH  19  21
ENDBRANCH  14  15
ENDBRANCH   1  14
TORSDOF 7
ENDMDL
