MODEL 1
REMARK VINA RESULT:    -7.420      0.000      0.000
REMARK INTER + INTRA:         -10.113
REMARK INTER:                  -9.155
REMARK INTRA:                  -0.958
REMARK UNBOUND:                -0.958
REMARK  Name = 
REMARK  5 active torsions:
REMARK  status: ('A' for Active; 'I' for Inactive)
REMARK    1  A    between atoms: C_1  and  C_2
REMARK    2  A    between atoms: C_2  and  C_3
REMARK    3  A    between atoms: C_7  and  C_8
REMARK    4  A    between atoms: C_8  and  C_9
REMARK    5  A    between atoms: C_9  and  N_10
REMARK                            x       y       z     vdW  Elec       q    Type
REMARK                         _______ _______ _______ _____ _____    ______ ____
ROOT
ATOM      1  C   UNL     1      47.027   6.362  13.284  0.00  0.00    +0.000 A 
ATOM      2  C   UNL     1      47.513   5.098  13.663  0.00  0.00    +0.000 A 
ATOM      3  C   UNL     1      46.721   3.955  13.530  0.00  0.00    +0.000 A 
ATOM      4  C   UNL     1      45.419   4.056  13.040  0.00  0.00    +0.000 A 
ATOM      5  C   UNL     1      44.893   5.304  12.686  0.00  0.00    +0.000 A 
ATOM      6  C   UNL     1      45.714   6.439  12.779  0.00  0.00    +0.000 A 
ENDROOT
BRANCH   1   8
ATOM      7  C   UNL     1      48.620   7.564  14.819  0.00  0.00    +0.000 C 
ATOM      8  C   UNL     1      47.886   7.615  13.469  0.00  0.00    +0.000 C 
ATOM      9  C   UNL     1      48.852   7.815  12.329  0.00  0.00    +0.000 C 
ATOM     10  C   UNL     1      48.666   8.976  11.702  0.00  0.00    +0.000 C 
ATOM     11  C   UNL     1      47.567   9.554  12.460  0.00  0.00    +0.000 C 
ATOM     12  N   UNL     1      47.087   8.879  13.456  0.00  0.00    +0.000 NA
ENDBRANCH   1   8
BRANCH   5  13
ATOM     13  C   UNL     1      43.455   5.438  12.238  0.00  0.00    +0.000 C 
BRANCH  13  14
ATOM     14  C   UNL     1      43.171   4.694  10.932  0.00  0.00    +0.000 C 
BRANCH  14  15
ATOM     15  N   UNL     1      44.046   5.170   9.847  0.00  0.00    +0.000 N 
ATOM     16  C   UNL     1      44.764   4.120   9.240  0.00  0.00    +0.000 A 
ATOM     17  C   UNL     1      45.635   4.407   8.196  0.00  0.00    +0.000 A 
ATOM     18  C   UNL     1      46.335   3.364   7.576  0.00  0.00    +0.000 A 
ATOM     19  C   UNL     1      46.145   2.065   8.021  0.00  0.00    +0.000 A 
ATOM     20 CL   UNL     1      46.980   0.749   7.305  0.00  0.00    +0.000 Cl
ATOM     21  C   UNL     1      45.258   1.861   9.057  0.00  0.00    +0.000 A 
ATOM     22  N   UNL     1      44.569   2.853   9.664  0.00  0.00    +0.000 NA
ATOM     23  H   UNL     1      44.710   5.871  10.165  0.00  0.00    +0.000 HD
ENDBRANCH  14  15
ENDBRANCH  13  14
ENDBRANCH   5  13
TORSDOF 4
ENDMDL
MODEL 2
REMARK VINA RESULT:    -7.219      1.592      2.700
REMARK INTER + INTRA:          -9.865
REMARK INTER:                  -9.139
REMARK INTRA:                  -0.726
REMARK UNBOUND:                -0.958
REMARK  Name = 
REMARK  5 active torsions:
REMARK  status: ('A' for Active; 'I' for Inactive)
REMARK    1  A    between atoms: C_1  and  C_2
REMARK    2  A    between atoms: C_2  and  C_3
REMARK    3  A    between atoms: C_7  and  C_8
REMARK    4  A    between atoms: C_8  and  C_9
REMARK    5  A    between atoms: C_9  and  N_10
REMARK                            x       y       z     vdW  Elec       q    Type
REMARK                         _______ _______ _______ _____ _____    ______ ____
ROOT
ATOM      1  C   UNL     1      46.606   7.124  12.448  0.00  0.00    +0.000 A 
ATOM      2  C   UNL     1      45.694   8.071  11.948  0.00  0.00    +0.000 A 
ATOM      3  C   UNL     1      44.445   7.675  11.462  0.00  0.00    +0.000 A 
ATOM      4  C   UNL     1      44.094   6.326  11.442  0.00  0.00    +0.000 A 
ATOM      5  C   UNL     1      44.993   5.356  11.901  0.00  0.00    +0.000 A 
ATOM      6  C   UNL     1      46.226   5.768  12.431  0.00  0.00    +0.000 A 
ENDROOT
BRANCH   1   8
ATOM      7  C   UNL     1      48.846   8.052  11.765  0.00  0.00    +0.000 C 
ATOM      8  C   UNL     1      47.988   7.560  12.942  0.00  0.00    +0.000 C 
ATOM      9  C   UNL     1      47.900   8.603  14.028  0.00  0.00    +0.000 C 
ATOM     10  C   UNL     1      48.471   8.205  15.163  0.00  0.00    +0.000 C 
ATOM     11  C   UNL     1      48.959   6.882  14.807  0.00  0.00    +0.000 C 
ATOM     12  N   UNL     1      48.748   6.454  13.602  0.00  0.00    +0.000 NA
ENDBRANCH   1   8
BRANCH   5  13
ATOM     13  C   UNL     1      44.659   3.884  11.802  0.00  0.00    +0.000 C 
BRANCH  13  14
ATOM     14  C   UNL     1      44.128   3.490  10.424  0.00  0.00    +0.000 C 
BRANCH  14  15
ATOM     15  N   UNL     1      44.659   2.183  10.001  0.00  0.00    +0.000 N 
ATOM     16  C   UNL     1      45.436   2.276   8.829  0.00  0.00    +0.000 A 
ATOM     17  C   UNL     1      46.010   1.125   8.302  0.00  0.00    +0.000 A 
ATOM     18  C   UNL     1      46.800   1.216   7.148  0.00  0.00    +0.000 A 
ATOM     19  C   UNL     1      46.991   2.454   6.556  0.00  0.00    +0.000 A 
ATOM     20 CL   UNL     1      47.943   2.625   5.139  0.00  0.00    +0.000 Cl
ATOM     21  C   UNL     1      46.395   3.550   7.144  0.00  0.00    +0.000 A 
ATOM     22  N   UNL     1      45.634   3.484   8.259  0.00  0.00    +0.000 NA
ATOM     23  H   UNL     1      43.923   1.499   9.845  0.00  0.00    +0.000 HD
ENDBRANCH  14  15
ENDBRANCH  13  14
ENDBRANCH   5  13
TORSDOF 4
ENDMDL
MODEL 3
REMARK VINA RESULT:    -6.994      2.629      3.514
REMARK INTER + INTRA:          -9.588
REMARK INTER:                  -8.931
REMARK INTRA:                  -0.658
REMARK UNBOUND:                -0.958
REMARK  Name = 
REMARK  5 active torsions:
REMARK  status: ('A' for Active; 'I' for Inactive)
REMARK    1  A    between atoms: C_1  and  C_2
REMARK    2  A    between atoms: C_2  and  C_3
REMARK    3  A    between atoms: C_7  and  C_8
REMARK    4  A    between atoms: C_8  and  C_9
REMARK    5  A    between atoms: C_9  and  N_10
REMARK                            x       y       z     vdW  Elec       q    Type
REMARK                         _______ _______ _______ _____ _____    ______ ____
ROOT
ATOM      1  C   UNL     1      44.983   8.913  11.736  0.00  0.00    +0.000 A 
ATOM      2  C   UNL     1      46.098   8.676  12.559  0.00  0.00    +0.000 A 
ATOM      3  C   UNL     1      46.418   7.383  12.979  0.00  0.00    +0.000 A 
ATOM      4  C   UNL     1      45.615   6.304  12.607  0.00  0.00    +0.000 A 
ATOM      5  C   UNL     1      44.479   6.511  11.817  0.00  0.00    +0.000 A 
ATOM      6  C   UNL     1      44.193   7.808  11.361  0.00  0.00    +0.000 A 
ENDROOT
BRANCH   1   8
ATOM      7  C   UNL     1      45.831  11.267  11.456  0.00  0.00    +0.000 C 
ATOM      8  C   UNL     1      44.615  10.337  11.312  0.00  0.00    +0.000 C 
ATOM      9  C   UNL     1      44.053  10.385   9.913  0.00  0.00    +0.000 C 
ATOM     10  C   UNL     1      42.819  10.884   9.878  0.00  0.00    +0.000 C 
ATOM     11  C   UNL     1      42.576  11.184  11.281  0.00  0.00    +0.000 C 
ATOM     12  N   UNL     1      43.516  10.927  12.135  0.00  0.00    +0.000 NA
ENDBRANCH   1   8
BRANCH   5  13
ATOM     13  C   UNL     1      43.551   5.364  11.480  0.00  0.00    +0.000 C 
BRANCH  13  14
ATOM     14  C   UNL     1      43.745   4.847  10.054  0.00  0.00    +0.000 C 
BRANCH  14  15
ATOM     15  N   UNL     1      44.135   3.427  10.051  0.00  0.00    +0.000 N 
ATOM     16  C   UNL     1      45.049   3.127   9.020  0.00  0.00    +0.000 A 
ATOM     17  C   UNL     1      45.515   1.825   8.884  0.00  0.00    +0.000 A 
ATOM     18  C   UNL     1      46.439   1.526   7.873  0.00  0.00    +0.000 A 
ATOM     19  C   UNL     1      46.867   2.538   7.029  0.00  0.00    +0.000 A 
ATOM     20 CL   UNL     1      47.991   2.230   5.771  0.00  0.00    +0.000 Cl
ATOM     21  C   UNL     1      46.364   3.806   7.234  0.00  0.00    +0.000 A 
ATOM     22  N   UNL     1      45.477   4.115   8.206  0.00  0.00    +0.000 NA
ATOM     23  H   UNL     1      43.335   2.806   9.961  0.00  0.00    +0.000 HD
ENDBRANCH  14  15
ENDBRANCH  13  14
ENDBRANCH   5  13
TORSDOF 4
ENDMDL
MODEL 4
REMARK VINA RESULT:    -6.140      4.549      8.405
REMARK INTER + INTRA:          -8.534
REMARK INTER:                  -7.934
REMARK INTRA:                  -0.600
REMARK UNBOUND:                -0.958
REMARK  Name = 
REMARK  5 active torsions:
REMARK  status: ('A' for Active; 'I' for Inactive)
REMARK    1  A    between atoms: C_1  and  C_2
REMARK    2  A    between atoms: C_2  and  C_3
REMARK    3  A    between atoms: C_7  and  C_8
REMARK    4  A    between atoms: C_8  and  C_9
REMARK    5  A    between atoms: C_9  and  N_10
REMARK                            x       y       z     vdW  Elec       q    Type
REMARK                         _______ _______ _______ _____ _____    ______ ____
ROOT
ATOM      1  C   UNL     1      45.556   4.967  11.657  0.00  0.00    +0.000 A 
ATOM      2  C   UNL     1      46.248   6.165  11.401  0.00  0.00    +0.000 A 
ATOM      3  C   UNL     1      47.207   6.644  12.296  0.00  0.00    +0.000 A 
ATOM      4  C   UNL     1      47.477   5.950  13.476  0.00  0.00    +0.000 A 
ATOM      5  C   UNL     1      46.782   4.773  13.776  0.00  0.00    +0.000 A 
ATOM      6  C   UNL     1      45.854   4.275  12.847  0.00  0.00    +0.000 A 
ENDROOT
BRANCH   1   8
ATOM      7  C   UNL     1      43.139   5.167  10.980  0.00  0.00    +0.000 C 
ATOM      8  C   UNL     1      44.478   4.468  10.692  0.00  0.00    +0.000 C 
ATOM      9  C   UNL     1      44.884   4.639   9.250  0.00  0.00    +0.000 C 
ATOM     10  C   UNL     1      44.917   3.482   8.591  0.00  0.00    +0.000 C 
ATOM     11  C   UNL     1      44.506   2.538   9.618  0.00  0.00    +0.000 C 
ATOM     12  N   UNL     1      44.233   2.997  10.799  0.00  0.00    +0.000 NA
ENDBRANCH   1   8
BRANCH   5  13
ATOM     13  C   UNL     1      47.001   4.059  15.092  0.00  0.00    +0.000 C 
BRANCH  13  14
ATOM     14  C   UNL     1      47.813   4.891  16.086  0.00  0.00    +0.000 C 
BRANCH  14  15
ATOM     15  N   UNL     1      47.159   4.933  17.405  0.00  0.00    +0.000 N 
ATOM     16  C   UNL     1      47.761   5.870  18.269  0.00  0.00    +0.000 A 
ATOM     17  C   UNL     1      47.257   6.029  19.555  0.00  0.00    +0.000 A 
ATOM     18  C   UNL     1      47.839   6.973  20.411  0.00  0.00    +0.000 A 
ATOM     19  C   UNL     1      48.909   7.728  19.956  0.00  0.00    +0.000 A 
ATOM     20 CL   UNL     1      49.665   8.894  20.962  0.00  0.00    +0.000 Cl
ATOM     21  C   UNL     1      49.346   7.517  18.665  0.00  0.00    +0.000 A 
ATOM     22  N   UNL     1      48.795   6.615  17.823  0.00  0.00    +0.000 NA
ATOM     23  H   UNL     1      47.157   4.026  17.865  0.00  0.00    +0.000 HD
ENDBRANCH  14  15
ENDBRANCH  13  14
ENDBRANCH   5  13
TORSDOF 4
ENDMDL
MODEL 5
REMARK VINA RESULT:    -6.132      3.628      7.688
REMARK INTER + INTRA:          -8.524
REMARK INTER:                  -7.786
REMARK INTRA:                  -0.738
REMARK UNBOUND:                -0.958
REMARK  Name = 
REMARK  5 active torsions:
REMARK  status: ('A' for Active; 'I' for Inactive)
REMARK    1  A    between atoms: C_1  and  C_2
REMARK    2  A    between atoms: C_2  and  C_3
REMARK    3  A    between atoms: C_7  and  C_8
REMARK    4  A    between atoms: C_8  and  C_9
REMARK    5  A    between atoms: C_9  and  N_10
REMARK                            x       y       z     vdW  Elec       q    Type
REMARK                         _______ _______ _______ _____ _____    ______ ____
ROOT
ATOM      1  C   UNL     1      45.374   4.503  11.688  0.00  0.00    +0.000 A 
ATOM      2  C   UNL     1      45.712   3.454  12.562  0.00  0.00    +0.000 A 
ATOM      3  C   UNL     1      46.594   3.662  13.625  0.00  0.00    +0.000 A 
ATOM      4  C   UNL     1      47.175   4.915  13.822  0.00  0.00    +0.000 A 
ATOM      5  C   UNL     1      46.885   5.971  12.950  0.00  0.00    +0.000 A 
ATOM      6  C   UNL     1      45.961   5.764  11.913  0.00  0.00    +0.000 A 
ENDROOT
BRANCH   1   8
ATOM      7  C   UNL     1      43.140   5.065  10.671  0.00  0.00    +0.000 C 
ATOM      8  C   UNL     1      44.438   4.258  10.502  0.00  0.00    +0.000 C 
ATOM      9  C   UNL     1      45.102   4.562   9.183  0.00  0.00    +0.000 C 
ATOM     10  C   UNL     1      45.140   3.502   8.377  0.00  0.00    +0.000 C 
ATOM     11  C   UNL     1      44.472   2.489   9.180  0.00  0.00    +0.000 C 
ATOM     12  N   UNL     1      44.042   2.824  10.356  0.00  0.00    +0.000 NA
ENDBRANCH   1   8
BRANCH   5  13
ATOM     13  C   UNL     1      47.576   7.309  13.098  0.00  0.00    +0.000 C 
BRANCH  13  14
ATOM     14  C   UNL     1      48.746   7.262  14.081  0.00  0.00    +0.000 C 
BRANCH  14  15
ATOM     15  N   UNL     1      48.370   7.837  15.385  0.00  0.00    +0.000 N 
ATOM     16  C   UNL     1      48.924   7.119  16.464  0.00  0.00    +0.000 A 
ATOM     17  C   UNL     1      48.661   7.537  17.763  0.00  0.00    +0.000 A 
ATOM     18  C   UNL     1      49.226   6.838  18.839  0.00  0.00    +0.000 A 
ATOM     19  C   UNL     1      50.033   5.742  18.582  0.00  0.00    +0.000 A 
ATOM     20 CL   UNL     1      50.746   4.845  19.859  0.00  0.00    +0.000 Cl
ATOM     21  C   UNL     1      50.252   5.394  17.266  0.00  0.00    +0.000 A 
ATOM     22  N   UNL     1      49.721   6.058  16.215  0.00  0.00    +0.000 NA
ATOM     23  H   UNL     1      47.362   7.881  15.511  0.00  0.00    +0.000 HD
ENDBRANCH  14  15
ENDBRANCH  13  14
ENDBRANCH   5  13
TORSDOF 4
ENDMDL
MODEL 6
REMARK VINA RESULT:    -6.086      4.071      7.724
REMARK INTER + INTRA:          -8.468
REMARK INTER:                  -7.759
REMARK INTRA:                  -0.709
REMARK UNBOUND:                -0.958
REMARK  Name = 
REMARK  5 active torsions:
REMARK  status: ('A' for Active; 'I' for Inactive)
REMARK    1  A    between atoms: C_1  and  C_2
REMARK    2  A    between atoms: C_2  and  C_3
REMARK    3  A    between atoms: C_7  and  C_8
REMARK    4  A    between atoms: C_8  and  C_9
REMARK    5  A    between atoms: C_9  and  N_10
REMARK                            x       y       z     vdW  Elec       q    Type
REMARK                         _______ _______ _______ _____ _____    ______ ____
ROOT
ATOM      1  C   UNL     1      45.446   4.910  11.789  0.00  0.00    +0.000 A 
ATOM      2  C   UNL     1      45.946   6.224  11.751  0.00  0.00    +0.000 A 
ATOM      3  C   UNL     1      46.864   6.669  12.705  0.00  0.00    +0.000 A 
ATOM      4  C   UNL     1      47.281   5.819  13.730  0.00  0.00    +0.000 A 
ATOM      5  C   UNL     1      46.777   4.516  13.814  0.00  0.00    +0.000 A 
ATOM      6  C   UNL     1      45.890   4.064  12.823  0.00  0.00    +0.000 A 
ENDROOT
BRANCH   1   8
ATOM      7  C   UNL     1      43.058   5.127  11.019  0.00  0.00    +0.000 C 
ATOM      8  C   UNL     1      44.410   4.441  10.764  0.00  0.00    +0.000 C 
ATOM      9  C   UNL     1      44.875   4.660   9.346  0.00  0.00    +0.000 C 
ATOM     10  C   UNL     1      44.939   3.526   8.651  0.00  0.00    +0.000 C 
ATOM     11  C   UNL     1      44.490   2.547   9.629  0.00  0.00    +0.000 C 
ATOM     12  N   UNL     1      44.166   2.966  10.812  0.00  0.00    +0.000 NA
ENDBRANCH   1   8
BRANCH   5  13
ATOM     13  C   UNL     1      47.152   3.614  14.970  0.00  0.00    +0.000 C 
BRANCH  13  14
ATOM     14  C   UNL     1      47.417   4.389  16.261  0.00  0.00    +0.000 C 
BRANCH  14  15
ATOM     15  N   UNL     1      48.452   3.731  17.075  0.00  0.00    +0.000 N 
ATOM     16  C   UNL     1      49.655   4.464  17.103  0.00  0.00    +0.000 A 
ATOM     17  C   UNL     1      50.733   3.973  17.831  0.00  0.00    +0.000 A 
ATOM     18  C   UNL     1      51.925   4.708  17.879  0.00  0.00    +0.000 A 
ATOM     19  C   UNL     1      52.004   5.911  17.194  0.00  0.00    +0.000 A 
ATOM     20 CL   UNL     1      53.439   6.850  17.211  0.00  0.00    +0.000 Cl
ATOM     21  C   UNL     1      50.889   6.334  16.501  0.00  0.00    +0.000 A 
ATOM     22  N   UNL     1      49.729   5.642  16.448  0.00  0.00    +0.000 NA
ATOM     23  H   UNL     1      48.657   2.789  16.752  0.00  0.00    +0.000 HD
ENDBRANCH  14  15
ENDBRANCH  13  14
ENDBRANCH   5  13
TORSDOF 4
ENDMDL
MODEL 7
REMARK VINA RESULT:    -6.031      2.895      6.895
REMARK INTER + INTRA:          -8.399
REMARK INTER:                  -7.634
REMARK INTRA:                  -0.765
REMARK UNBOUND:                -0.958
REMARK  Name = 
REMARK  5 active torsions:
REMARK  status: ('A' for Active; 'I' for Inactive)
REMARK    1  A    between atoms: C_1  and  C_2
REMARK    2  A    between atoms: C_2  and  C_3
REMARK    3  A    between atoms: C_7  and  C_8
REMARK    4  A    between atoms: C_8  and  C_9
REMARK    5  A    between atoms: C_9  and  N_10
REMARK                            x       y       z     vdW  Elec       q    Type
REMARK                         _______ _______ _______ _____ _____    ______ ____
ROOT
ATOM      1  C   UNL     1      45.830   2.507   8.335  0.00  0.00    +0.000 A 
ATOM      2  C   UNL     1      44.895   1.830   9.138  0.00  0.00    +0.000 A 
ATOM      3  C   UNL     1      44.166   2.510  10.116  0.00  0.00    +0.000 A 
ATOM      4  C   UNL     1      44.375   3.873  10.329  0.00  0.00    +0.000 A 
ATOM      5  C   UNL     1      45.324   4.568   9.569  0.00  0.00    +0.000 A 
ATOM      6  C   UNL     1      46.016   3.885   8.556  0.00  0.00    +0.000 A 
ENDROOT
BRANCH   1   8
ATOM      7  C   UNL     1      46.631   0.240   7.586  0.00  0.00    +0.000 C 
ATOM      8  C   UNL     1      46.654   1.748   7.290  0.00  0.00    +0.000 C 
ATOM      9  C   UNL     1      46.192   2.036   5.884  0.00  0.00    +0.000 C 
ATOM     10  C   UNL     1      47.155   2.565   5.131  0.00  0.00    +0.000 C 
ATOM     11  C   UNL     1      48.274   2.607   6.059  0.00  0.00    +0.000 C 
ATOM     12  N   UNL     1      48.089   2.165   7.263  0.00  0.00    +0.000 NA
ENDBRANCH   1   8
BRANCH   5  13
ATOM     13  C   UNL     1      45.624   6.024   9.850  0.00  0.00    +0.000 C 
BRANCH  13  14
ATOM     14  C   UNL     1      45.177   6.459  11.246  0.00  0.00    +0.000 C 
BRANCH  14  15
ATOM     15  N   UNL     1      46.288   7.073  11.994  0.00  0.00    +0.000 N 
ATOM     16  C   UNL     1      46.679   6.295  13.102  0.00  0.00    +0.000 A 
ATOM     17  C   UNL     1      47.719   6.739  13.910  0.00  0.00    +0.000 A 
ATOM     18  C   UNL     1      48.125   5.959  15.001  0.00  0.00    +0.000 A 
ATOM     19  C   UNL     1      47.478   4.760  15.252  0.00  0.00    +0.000 A 
ATOM     20 CL   UNL     1      47.927   3.767  16.577  0.00  0.00    +0.000 Cl
ATOM     21  C   UNL     1      46.461   4.384  14.399  0.00  0.00    +0.000 A 
ATOM     22  N   UNL     1      46.058   5.119  13.339  0.00  0.00    +0.000 NA
ATOM     23  H   UNL     1      46.064   8.008  12.321  0.00  0.00    +0.000 HD
ENDBRANCH  14  15
ENDBRANCH  13  14
ENDBRANCH   5  13
TORSDOF 4
ENDMDL
MODEL 8
REMARK VINA RESULT:    -6.007      3.960      7.570
REMARK INTER + INTRA:          -8.371
REMARK INTER:                  -7.711
REMARK INTRA:                  -0.660
REMARK UNBOUND:                -0.958
REMARK  Name = 
REMARK  5 active torsions:
REMARK  status: ('A' for Active; 'I' for Inactive)
REMARK    1  A    between atoms: C_1  and  C_2
REMARK    2  A    between atoms: C_2  and  C_3
REMARK    3  A    between atoms: C_7  and  C_8
REMARK    4  A    between atoms: C_8  and  C_9
REMARK    5  A    between atoms: C_9  and  N_10
REMARK                            x       y       z     vdW  Elec       q    Type
REMARK                         _______ _______ _______ _____ _____    ______ ____
ROOT
ATOM      1  C   UNL     1      45.480   6.254  11.415  0.00  0.00    +0.000 A 
ATOM      2  C   UNL     1      44.733   7.441  11.519  0.00  0.00    +0.000 A 
ATOM      3  C   UNL     1      45.282   8.584  12.105  0.00  0.00    +0.000 A 
ATOM      4  C   UNL     1      46.577   8.556  12.622  0.00  0.00    +0.000 A 
ATOM      5  C   UNL     1      47.334   7.379  12.564  0.00  0.00    +0.000 A 
ATOM      6  C   UNL     1      46.790   6.251  11.930  0.00  0.00    +0.000 A 
ENDROOT
BRANCH   1   8
ATOM      7  C   UNL     1      45.358   4.795   9.366  0.00  0.00    +0.000 C 
ATOM      8  C   UNL     1      44.859   4.994  10.806  0.00  0.00    +0.000 C 
ATOM      9  C   UNL     1      45.118   3.770  11.648  0.00  0.00    +0.000 C 
ATOM     10  C   UNL     1      43.993   3.189  12.061  0.00  0.00    +0.000 C 
ATOM     11  C   UNL     1      42.977   4.041  11.462  0.00  0.00    +0.000 C 
ATOM     12  N   UNL     1      43.366   5.048  10.746  0.00  0.00    +0.000 NA
ENDBRANCH   1   8
BRANCH   5  13
ATOM     13  C   UNL     1      48.705   7.310  13.200  0.00  0.00    +0.000 C 
BRANCH  13  14
ATOM     14  C   UNL     1      48.644   7.141  14.719  0.00  0.00    +0.000 C 
BRANCH  14  15
ATOM     15  N   UNL     1      47.971   5.884  15.088  0.00  0.00    +0.000 N 
ATOM     16  C   UNL     1      48.207   5.527  16.431  0.00  0.00    +0.000 A 
ATOM     17  C   UNL     1      47.638   4.362  16.933  0.00  0.00    +0.000 A 
ATOM     18  C   UNL     1      47.854   4.013  18.273  0.00  0.00    +0.000 A 
ATOM     19  C   UNL     1      48.633   4.838  19.069  0.00  0.00    +0.000 A 
ATOM     20 CL   UNL     1      48.936   4.459  20.714  0.00  0.00    +0.000 Cl
ATOM     21  C   UNL     1      49.155   5.981  18.499  0.00  0.00    +0.000 A 
ATOM     22  N   UNL     1      48.955   6.337  17.210  0.00  0.00    +0.000 NA
ATOM     23  H   UNL     1      48.250   5.107  14.495  0.00  0.00    +0.000 HD
ENDBRANCH  14  15
ENDBRANCH  13  14
ENDBRANCH   5  13
TORSDOF 4
ENDMDL
MODEL 9
REMARK VINA RESULT:    -5.835      3.204      6.813
REMARK INTER + INTRA:          -8.158
REMARK INTER:                  -7.321
REMARK INTRA:                  -0.837
REMARK UNBOUND:                -0.958
REMARK  Name = 
REMARK  5 active torsions:
REMARK  status: ('A' for Active; 'I' for Inactive)
REMARK    1  A    between atoms: C_1  and  C_2
REMARK    2  A    between atoms: C_2  and  C_3
REMARK    3  A    between atoms: C_7  and  C_8
REMARK    4  A    between atoms: C_8  and  C_9
REMARK    5  A    between atoms: C_9  and  N_10
REMARK                            x       y       z     vdW  Elec       q    Type
REMARK                         _______ _______ _______ _____ _____    ______ ____
ROOT
ATOM      1  C   UNL     1      44.726   6.768  12.004  0.00  0.00    +0.000 A 
ATOM      2  C   UNL     1      44.132   7.841  11.317  0.00  0.00    +0.000 A 
ATOM      3  C   UNL     1      44.660   9.131  11.408  0.00  0.00    +0.000 A 
ATOM      4  C   UNL     1      45.776   9.379  12.208  0.00  0.00    +0.000 A 
ATOM      5  C   UNL     1      46.370   8.338  12.931  0.00  0.00    +0.000 A 
ATOM      6  C   UNL     1      45.861   7.037  12.795  0.00  0.00    +0.000 A 
ENDROOT
BRANCH   1   8
ATOM      7  C   UNL     1      42.600   5.427  12.156  0.00  0.00    +0.000 C 
ATOM      8  C   UNL     1      44.120   5.364  11.931  0.00  0.00    +0.000 C 
ATOM      9  C   UNL     1      44.452   4.669  10.634  0.00  0.00    +0.000 C 
ATOM     10  C   UNL     1      45.119   3.532  10.824  0.00  0.00    +0.000 C 
ATOM     11  C   UNL     1      45.208   3.473  12.274  0.00  0.00    +0.000 C 
ATOM     12  N   UNL     1      44.674   4.433  12.961  0.00  0.00    +0.000 NA
ENDBRANCH   1   8
BRANCH   5  13
ATOM     13  C   UNL     1      47.525   8.610  13.870  0.00  0.00    +0.000 C 
BRANCH  13  14
ATOM     14  C   UNL     1      48.633   7.562  13.761  0.00  0.00    +0.000 C 
BRANCH  14  15
ATOM     15  N   UNL     1      49.283   7.336  15.064  0.00  0.00    +0.000 N 
ATOM     16  C   UNL     1      48.779   6.196  15.721  0.00  0.00    +0.000 A 
ATOM     17  C   UNL     1      49.292   5.847  16.965  0.00  0.00    +0.000 A 
ATOM     18  C   UNL     1      48.809   4.703  17.613  0.00  0.00    +0.000 A 
ATOM     19  C   UNL     1      47.826   3.943  16.999  0.00  0.00    +0.000 A 
ATOM     20 CL   UNL     1      47.192   2.536  17.748  0.00  0.00    +0.000 Cl
ATOM     21  C   UNL     1      47.374   4.351  15.761  0.00  0.00    +0.000 A 
ATOM     22  N   UNL     1      47.831   5.448  15.117  0.00  0.00    +0.000 NA
ATOM     23  H   UNL     1      49.188   8.134  15.686  0.00  0.00    +0.000 HD
ENDBRANCH  14  15
ENDBRANCH  13  14
ENDBRANCH   5  13
TORSDOF 4
ENDMDL
