MODEL 1
REMARK VINA RESULT:    -6.858      0.000      0.000
REMARK INTER + INTRA:          -9.481
REMARK INTER:                  -9.063
REMARK INTRA:                  -0.418
REMARK UNBOUND:                -0.418
REMARK  Name = 
REMARK  6 active torsions:
REMARK  status: ('A' for Active; 'I' for Inactive)
REMARK    1  A    between atoms: N_1  and  C_2
REMARK    2  A    between atoms: C_2  and  C_3
REMARK    3  A    between atoms: C_3  and  C_4
REMARK    4  A    between atoms: N_7  and  C_8
REMARK    5  A    between atoms: C_8  and  C_9
REMARK    6  A    between atoms: C_15  and  C_16
REMARK                            x       y       z     vdW  Elec       q    Type
REMARK                         _______ _______ _______ _____ _____    ______ ____
ROOT
ATOM      1  C   UNL     1      44.026   4.905  10.776  0.00  0.00    +0.000 A 
ATOM      2  N   UNL     1      43.175   4.190  11.529  0.00  0.00    +0.000 NA
ATOM      3  O   UNL     1      43.284   2.881  11.074  0.00  0.00    +0.000 OA
ATOM      4  C   UNL     1      44.188   2.818  10.055  0.00  0.00    +0.000 A 
ATOM      5  N   UNL     1      44.521   1.690   9.400  0.00  0.00    +0.000 NA
ATOM      6  C   UNL     1      45.416   1.912   8.400  0.00  0.00    +0.000 A 
ATOM      7  C   UNL     1      45.969   3.145   8.046  0.00  0.00    +0.000 A 
ATOM      8  C   UNL     1      45.610   4.274   8.787  0.00  0.00    +0.000 A 
ATOM      9  C   UNL     1      44.683   4.089   9.825  0.00  0.00    +0.000 A 
ENDROOT
BRANCH   7  10
ATOM     10  C   UNL     1      46.887   3.209   6.886  0.00  0.00    +0.000 C 
ATOM     11  N   UNL     1      47.959   2.367   6.849  0.00  0.00    +0.000 N 
ATOM     12  O   UNL     1      46.698   4.012   5.976  0.00  0.00    +0.000 OA
ATOM     13  H   UNL     1      48.208   1.694   7.557  0.00  0.00    +0.000 HD
ATOM     14  H   UNL     1      48.588   2.461   6.059  0.00  0.00    +0.000 HD
ENDBRANCH   7  10
BRANCH   1  15
ATOM     15  C   UNL     1      44.169   6.383  10.980  0.00  0.00    +0.000 C 
BRANCH  15  19
ATOM     16  C   UNL     1      47.618   7.786  13.153  0.00  0.00    +0.000 C 
ATOM     17  C   UNL     1      47.309   6.283  13.145  0.00  0.00    +0.000 C 
ATOM     18  C   UNL     1      46.286   5.903  12.071  0.00  0.00    +0.000 C 
ATOM     19  N   UNL     1      45.040   6.695  12.141  0.00  0.00    +0.000 NA
ATOM     20  C   UNL     1      45.315   8.143  12.162  0.00  0.00    +0.000 C 
ATOM     21  C   UNL     1      46.280   8.523  13.287  0.00  0.00    +0.000 C 
BRANCH  16  22
ATOM     22  C   UNL     1      48.437   8.191  11.903  0.00  0.00    +0.000 C 
BRANCH  22  23
ATOM     23  C   UNL     1      49.810   7.521  11.818  0.00  0.00    +0.000 C 
BRANCH  23  24
ATOM     24  N   UNL     1      50.569   7.779  13.037  0.00  0.00    +0.000 NA
ATOM     25  H   UNL     1      51.479   8.168  12.794  0.00  0.00    +0.000 HD
ATOM     26  H   UNL     1      50.757   6.902  13.521  0.00  0.00    +0.000 HD
ENDBRANCH  23  24
ENDBRANCH  22  23
ENDBRANCH  16  22
ENDBRANCH  15  19
ENDBRANCH   1  15
TORSDOF 6
ENDMDL
MODEL 2
REMARK VINA RESULT:    -6.670      4.922      8.228
REMARK INTER + INTRA:          -9.233
REMARK INTER:                  -9.160
REMARK INTRA:                  -0.074
REMARK UNBOUND:                -0.418
REMARK  Name = 
REMARK  6 active torsions:
REMARK  status: ('A' for Active; 'I' for Inactive)
REMARK    1  A    between atoms: N_1  and  C_2
REMARK    2  A    between atoms: C_2  and  C_3
REMARK    3  A    between atoms: C_3  and  C_4
REMARK    4  A    between atoms: N_7  and  C_8
REMARK    5  A    between atoms: C_8  and  C_9
REMARK    6  A    between atoms: C_15  and  C_16
REMARK                            x       y       z     vdW  Elec       q    Type
REMARK                         _______ _______ _______ _____ _____    ______ ____
ROOT
ATOM      1  C   UNL     1      47.202   4.160  14.966  0.00  0.00    +0.000 A 
ATOM      2  N   UNL     1      47.733   3.018  14.501  0.00  0.00    +0.000 NA
ATOM      3  O   UNL     1      48.346   2.418  15.595  0.00  0.00    +0.000 OA
ATOM      4  C   UNL     1      48.187   3.201  16.702  0.00  0.00    +0.000 A 
ATOM      5  N   UNL     1      48.664   2.899  17.923  0.00  0.00    +0.000 NA
ATOM      6  C   UNL     1      48.401   3.869  18.841  0.00  0.00    +0.000 A 
ATOM      7  C   UNL     1      47.714   5.063  18.605  0.00  0.00    +0.000 A 
ATOM      8  C   UNL     1      47.213   5.301  17.323  0.00  0.00    +0.000 A 
ATOM      9  C   UNL     1      47.468   4.328  16.345  0.00  0.00    +0.000 A 
ENDROOT
BRANCH   7  10
ATOM     10  C   UNL     1      47.572   6.035  19.714  0.00  0.00    +0.000 C 
ATOM     11  N   UNL     1      47.299   5.568  20.966  0.00  0.00    +0.000 N 
ATOM     12  O   UNL     1      47.684   7.241  19.513  0.00  0.00    +0.000 OA
ATOM     13  H   UNL     1      47.167   4.602  21.222  0.00  0.00    +0.000 HD
ATOM     14  H   UNL     1      47.172   6.261  21.695  0.00  0.00    +0.000 HD
ENDBRANCH   7  10
BRANCH   1  15
ATOM     15  C   UNL     1      46.462   5.086  14.049  0.00  0.00    +0.000 C 
BRANCH  15  19
ATOM     16  C   UNL     1      43.203   4.094  11.406  0.00  0.00    +0.000 C 
ATOM     17  C   UNL     1      42.939   5.044  12.583  0.00  0.00    +0.000 C 
ATOM     18  C   UNL     1      44.234   5.570  13.209  0.00  0.00    +0.000 C 
ATOM     19  N   UNL     1      45.174   4.498  13.599  0.00  0.00    +0.000 NA
ATOM     20  C   UNL     1      45.432   3.566  12.487  0.00  0.00    +0.000 C 
ATOM     21  C   UNL     1      44.134   2.988  11.917  0.00  0.00    +0.000 C 
BRANCH  16  22
ATOM     22  C   UNL     1      43.753   4.865  10.182  0.00  0.00    +0.000 C 
BRANCH  22  23
ATOM     23  C   UNL     1      44.384   3.967   9.116  0.00  0.00    +0.000 C 
BRANCH  23  24
ATOM     24  N   UNL     1      45.369   4.721   8.347  0.00  0.00    +0.000 NA
ATOM     25  H   UNL     1      45.520   5.629   8.786  0.00  0.00    +0.000 HD
ATOM     26  H   UNL     1      45.006   4.916   7.414  0.00  0.00    +0.000 HD
ENDBRANCH  23  24
ENDBRANCH  22  23
ENDBRANCH  16  22
ENDBRANCH  15  19
ENDBRANCH   1  15
TORSDOF 6
ENDMDL
MODEL 3
REMARK VINA RESULT:    -6.586      3.478      5.197
REMARK INTER + INTRA:          -9.122
REMARK INTER:                  -8.572
REMARK INTRA:                  -0.551
REMARK UNBOUND:                -0.418
REMARK  Name = 
REMARK  6 active torsions:
REMARK  status: ('A' for Active; 'I' for Inactive)
REMARK    1  A    between atoms: N_1  and  C_2
REMARK    2  A    between atoms: C_2  and  C_3
REMARK    3  A    between atoms: C_3  and  C_4
REMARK    4  A    between atoms: N_7  and  C_8
REMARK    5  A    between atoms: C_8  and  C_9
REMARK    6  A    between atoms: C_15  and  C_16
REMARK                            x       y       z     vdW  Elec       q    Type
REMARK                         _______ _______ _______ _____ _____    ______ ____
ROOT
ATOM      1  C   UNL     1      46.600   6.562  13.069  0.00  0.00    +0.000 A 
ATOM      2  N   UNL     1      46.339   7.878  13.017  0.00  0.00    +0.000 NA
ATOM      3  O   UNL     1      45.131   7.993  12.340  0.00  0.00    +0.000 OA
ATOM      4  C   UNL     1      44.678   6.756  11.986  0.00  0.00    +0.000 A 
ATOM      5  N   UNL     1      43.532   6.526  11.318  0.00  0.00    +0.000 NA
ATOM      6  C   UNL     1      43.337   5.205  11.055  0.00  0.00    +0.000 A 
ATOM      7  C   UNL     1      44.190   4.157  11.416  0.00  0.00    +0.000 A 
ATOM      8  C   UNL     1      45.347   4.459  12.138  0.00  0.00    +0.000 A 
ATOM      9  C   UNL     1      45.589   5.811  12.424  0.00  0.00    +0.000 A 
ENDROOT
BRANCH   7  10
ATOM     10  C   UNL     1      43.846   2.781  10.992  0.00  0.00    +0.000 C 
ATOM     11  N   UNL     1      44.517   2.231   9.939  0.00  0.00    +0.000 N 
ATOM     12  O   UNL     1      42.966   2.146  11.565  0.00  0.00    +0.000 OA
ATOM     13  H   UNL     1      45.236   2.682   9.394  0.00  0.00    +0.000 HD
ATOM     14  H   UNL     1      44.234   1.301   9.650  0.00  0.00    +0.000 HD
ENDBRANCH   7  10
BRANCH   1  15
ATOM     15  C   UNL     1      47.848   6.057  13.726  0.00  0.00    +0.000 C 
BRANCH  15  19
ATOM     16  C   UNL     1      48.624   4.646  17.726  0.00  0.00    +0.000 C 
ATOM     17  C   UNL     1      47.386   4.123  16.983  0.00  0.00    +0.000 C 
ATOM     18  C   UNL     1      47.432   4.431  15.484  0.00  0.00    +0.000 C 
ATOM     19  N   UNL     1      47.658   5.861  15.186  0.00  0.00    +0.000 NA
ATOM     20  C   UNL     1      48.835   6.388  15.899  0.00  0.00    +0.000 C 
ATOM     21  C   UNL     1      48.744   6.142  17.407  0.00  0.00    +0.000 C 
BRANCH  16  22
ATOM     22  C   UNL     1      49.881   3.821  17.360  0.00  0.00    +0.000 C 
BRANCH  22  23
ATOM     23  C   UNL     1      49.673   2.307  17.436  0.00  0.00    +0.000 C 
BRANCH  23  24
ATOM     24  N   UNL     1      49.893   1.706  16.125  0.00  0.00    +0.000 NA
ATOM     25  H   UNL     1      49.259   0.917  16.002  0.00  0.00    +0.000 HD
ATOM     26  H   UNL     1      50.836   1.321  16.072  0.00  0.00    +0.000 HD
ENDBRANCH  23  24
ENDBRANCH  22  23
ENDBRANCH  16  22
ENDBRANCH  15  19
ENDBRANCH   1  15
TORSDOF 6
ENDMDL
MODEL 4
REMARK VINA RESULT:    -6.354      1.755      2.428
REMARK INTER + INTRA:          -8.816
REMARK INTER:                  -8.391
REMARK INTRA:                  -0.424
REMARK UNBOUND:                -0.418
REMARK  Name = 
REMARK  6 active torsions:
REMARK  status: ('A' for Active; 'I' for Inactive)
REMARK    1  A    between atoms: N_1  and  C_2
REMARK    2  A    between atoms: C_2  and  C_3
REMARK    3  A    between atoms: C_3  and  C_4
REMARK    4  A    between atoms: N_7  and  C_8
REMARK    5  A    between atoms: C_8  and  C_9
REMARK    6  A    between atoms: C_15  and  C_16
REMARK                            x       y       z     vdW  Elec       q    Type
REMARK                         _______ _______ _______ _____ _____    ______ ____
ROOT
ATOM      1  C   UNL     1      44.255   5.973  12.303  0.00  0.00    +0.000 A 
ATOM      2  N   UNL     1      43.350   5.605  13.224  0.00  0.00    +0.000 NA
ATOM      3  O   UNL     1      42.948   4.324  12.863  0.00  0.00    +0.000 OA
ATOM      4  C   UNL     1      43.604   3.934  11.732  0.00  0.00    +0.000 A 
ATOM      5  N   UNL     1      43.438   2.744  11.127  0.00  0.00    +0.000 NA
ATOM      6  C   UNL     1      44.182   2.626   9.993  0.00  0.00    +0.000 A 
ATOM      7  C   UNL     1      45.044   3.592   9.468  0.00  0.00    +0.000 A 
ATOM      8  C   UNL     1      45.199   4.795  10.163  0.00  0.00    +0.000 A 
ATOM      9  C   UNL     1      44.445   4.959  11.334  0.00  0.00    +0.000 A 
ENDROOT
BRANCH   7  10
ATOM     10  C   UNL     1      45.731   3.314   8.186  0.00  0.00    +0.000 C 
ATOM     11  N   UNL     1      46.203   2.055   7.953  0.00  0.00    +0.000 N 
ATOM     12  O   UNL     1      45.887   4.199   7.350  0.00  0.00    +0.000 OA
ATOM     13  H   UNL     1      46.143   1.274   8.587  0.00  0.00    +0.000 HD
ATOM     14  H   UNL     1      46.700   1.907   7.082  0.00  0.00    +0.000 HD
ENDBRANCH   7  10
BRANCH   1  15
ATOM     15  C   UNL     1      44.904   7.321  12.367  0.00  0.00    +0.000 C 
BRANCH  15  19
ATOM     16  C   UNL     1      49.116   7.705  13.208  0.00  0.00    +0.000 C 
ATOM     17  C   UNL     1      48.499   8.574  12.103  0.00  0.00    +0.000 C 
ATOM     18  C   UNL     1      46.969   8.585  12.156  0.00  0.00    +0.000 C 
ATOM     19  N   UNL     1      46.372   7.233  12.156  0.00  0.00    +0.000 NA
ATOM     20  C   UNL     1      46.959   6.377  13.203  0.00  0.00    +0.000 C 
ATOM     21  C   UNL     1      48.484   6.312  13.095  0.00  0.00    +0.000 C 
BRANCH  16  22
ATOM     22  C   UNL     1      48.939   8.366  14.597  0.00  0.00    +0.000 C 
BRANCH  22  23
ATOM     23  C   UNL     1      49.216   7.424  15.771  0.00  0.00    +0.000 C 
BRANCH  23  24
ATOM     24  N   UNL     1      48.356   7.766  16.899  0.00  0.00    +0.000 NA
ATOM     25  H   UNL     1      47.452   8.087  16.553  0.00  0.00    +0.000 HD
ATOM     26  H   UNL     1      48.755   8.551  17.415  0.00  0.00    +0.000 HD
ENDBRANCH  23  24
ENDBRANCH  22  23
ENDBRANCH  16  22
ENDBRANCH  15  19
ENDBRANCH   1  15
TORSDOF 6
ENDMDL
MODEL 5
REMARK VINA RESULT:    -6.269      2.761      6.595
REMARK INTER + INTRA:          -8.703
REMARK INTER:                  -8.188
REMARK INTRA:                  -0.515
REMARK UNBOUND:                -0.418
REMARK  Name = 
REMARK  6 active torsions:
REMARK  status: ('A' for Active; 'I' for Inactive)
REMARK    1  A    between atoms: N_1  and  C_2
REMARK    2  A    between atoms: C_2  and  C_3
REMARK    3  A    between atoms: C_3  and  C_4
REMARK    4  A    between atoms: N_7  and  C_8
REMARK    5  A    between atoms: C_8  and  C_9
REMARK    6  A    between atoms: C_15  and  C_16
REMARK                            x       y       z     vdW  Elec       q    Type
REMARK                         _______ _______ _______ _____ _____    ______ ____
ROOT
ATOM      1  C   UNL     1      46.019   6.671  12.280  0.00  0.00    +0.000 A 
ATOM      2  N   UNL     1      44.914   7.364  12.597  0.00  0.00    +0.000 NA
ATOM      3  O   UNL     1      45.290   8.702  12.567  0.00  0.00    +0.000 OA
ATOM      4  C   UNL     1      46.611   8.804  12.239  0.00  0.00    +0.000 A 
ATOM      5  N   UNL     1      47.280   9.967  12.125  0.00  0.00    +0.000 NA
ATOM      6  C   UNL     1      48.595   9.785  11.829  0.00  0.00    +0.000 A 
ATOM      7  C   UNL     1      49.238   8.557  11.646  0.00  0.00    +0.000 A 
ATOM      8  C   UNL     1      48.480   7.388  11.743  0.00  0.00    +0.000 A 
ATOM      9  C   UNL     1      47.119   7.531  12.054  0.00  0.00    +0.000 A 
ENDROOT
BRANCH   7  10
ATOM     10  C   UNL     1      50.696   8.547  11.387  0.00  0.00    +0.000 C 
ATOM     11  N   UNL     1      51.299   7.365  11.072  0.00  0.00    +0.000 N 
ATOM     12  O   UNL     1      51.357   9.579  11.465  0.00  0.00    +0.000 OA
ATOM     13  H   UNL     1      50.845   6.467  11.008  0.00  0.00    +0.000 HD
ATOM     14  H   UNL     1      52.304   7.385  10.936  0.00  0.00    +0.000 HD
ENDBRANCH   7  10
BRANCH   1  15
ATOM     15  C   UNL     1      45.991   5.174  12.226  0.00  0.00    +0.000 C 
BRANCH  15  19
ATOM     16  C   UNL     1      44.644   2.841   8.859  0.00  0.00    +0.000 C 
ATOM     17  C   UNL     1      44.867   4.348   8.674  0.00  0.00    +0.000 C 
ATOM     18  C   UNL     1      45.662   4.967   9.827  0.00  0.00    +0.000 C 
ATOM     19  N   UNL     1      45.084   4.681  11.156  0.00  0.00    +0.000 NA
ATOM     20  C   UNL     1      44.851   3.238  11.352  0.00  0.00    +0.000 C 
ATOM     21  C   UNL     1      43.991   2.645  10.233  0.00  0.00    +0.000 C 
BRANCH  16  22
ATOM     22  C   UNL     1      45.966   2.057   8.672  0.00  0.00    +0.000 C 
BRANCH  22  23
ATOM     23  C   UNL     1      46.673   2.341   7.345  0.00  0.00    +0.000 C 
BRANCH  23  24
ATOM     24  N   UNL     1      47.329   1.132   6.859  0.00  0.00    +0.000 NA
ATOM     25  H   UNL     1      46.690   0.341   6.943  0.00  0.00    +0.000 HD
ATOM     26  H   UNL     1      48.130   0.910   7.450  0.00  0.00    +0.000 HD
ENDBRANCH  23  24
ENDBRANCH  22  23
ENDBRANCH  16  22
ENDBRANCH  15  19
ENDBRANCH   1  15
TORSDOF 6
ENDMDL
MODEL 6
REMARK VINA RESULT:    -6.037      2.589      6.371
REMARK INTER + INTRA:          -8.396
REMARK INTER:                  -8.311
REMARK INTRA:                  -0.085
REMARK UNBOUND:                -0.418
REMARK  Name = 
REMARK  6 active torsions:
REMARK  status: ('A' for Active; 'I' for Inactive)
REMARK    1  A    between atoms: N_1  and  C_2
REMARK    2  A    between atoms: C_2  and  C_3
REMARK    3  A    between atoms: C_3  and  C_4
REMARK    4  A    between atoms: N_7  and  C_8
REMARK    5  A    between atoms: C_8  and  C_9
REMARK    6  A    between atoms: C_15  and  C_16
REMARK                            x       y       z     vdW  Elec       q    Type
REMARK                         _______ _______ _______ _____ _____    ______ ____
ROOT
ATOM      1  C   UNL     1      45.009   4.450  12.150  0.00  0.00    +0.000 A 
ATOM      2  N   UNL     1      45.291   3.163  12.404  0.00  0.00    +0.000 NA
ATOM      3  O   UNL     1      46.377   3.181  13.270  0.00  0.00    +0.000 OA
ATOM      4  C   UNL     1      46.744   4.470  13.526  0.00  0.00    +0.000 A 
ATOM      5  N   UNL     1      47.762   4.828  14.331  0.00  0.00    +0.000 NA
ATOM      6  C   UNL     1      47.939   6.176  14.381  0.00  0.00    +0.000 A 
ATOM      7  C   UNL     1      47.180   7.134  13.702  0.00  0.00    +0.000 A 
ATOM      8  C   UNL     1      46.115   6.700  12.910  0.00  0.00    +0.000 A 
ATOM      9  C   UNL     1      45.901   5.316  12.826  0.00  0.00    +0.000 A 
ENDROOT
BRANCH   7  10
ATOM     10  C   UNL     1      47.556   8.561  13.828  0.00  0.00    +0.000 C 
ATOM     11  N   UNL     1      47.476   9.156  15.052  0.00  0.00    +0.000 N 
ATOM     12  O   UNL     1      47.921   9.205  12.849  0.00  0.00    +0.000 OA
ATOM     13  H   UNL     1      47.166   8.716  15.905  0.00  0.00    +0.000 HD
ATOM     14  H   UNL     1      47.704  10.143  15.098  0.00  0.00    +0.000 HD
ENDBRANCH   7  10
BRANCH   1  15
ATOM     15  C   UNL     1      43.885   4.819  11.230  0.00  0.00    +0.000 C 
BRANCH  15  19
ATOM     16  C   UNL     1      45.874   3.497   7.640  0.00  0.00    +0.000 C 
ATOM     17  C   UNL     1      46.324   4.810   8.296  0.00  0.00    +0.000 C 
ATOM     18  C   UNL     1      45.783   4.967   9.720  0.00  0.00    +0.000 C 
ATOM     19  N   UNL     1      44.316   4.812   9.808  0.00  0.00    +0.000 NA
ATOM     20  C   UNL     1      43.860   3.562   9.174  0.00  0.00    +0.000 C 
ATOM     21  C   UNL     1      44.344   3.450   7.726  0.00  0.00    +0.000 C 
BRANCH  16  22
ATOM     22  C   UNL     1      46.580   2.282   8.290  0.00  0.00    +0.000 C 
BRANCH  22  23
ATOM     23  C   UNL     1      47.075   1.242   7.283  0.00  0.00    +0.000 C 
BRANCH  23  24
ATOM     24  N   UNL     1      48.272   1.730   6.607  0.00  0.00    +0.000 NA
ATOM     25  H   UNL     1      48.907   0.951   6.434  0.00  0.00    +0.000 HD
ATOM     26  H   UNL     1      48.776   2.375   7.215  0.00  0.00    +0.000 HD
ENDBRANCH  23  24
ENDBRANCH  22  23
ENDBRANCH  16  22
ENDBRANCH  15  19
ENDBRANCH   1  15
TORSDOF 6
ENDMDL
MODEL 7
REMARK VINA RESULT:    -5.871      3.934      7.773
REMARK INTER + INTRA:          -8.177
REMARK INTER:                  -8.085
REMARK INTRA:                  -0.092
REMARK UNBOUND:                -0.418
REMARK  Name = 
REMARK  6 active torsions:
REMARK  status: ('A' for Active; 'I' for Inactive)
REMARK    1  A    between atoms: N_1  and  C_2
REMARK    2  A    between atoms: C_2  and  C_3
REMARK    3  A    between atoms: C_3  and  C_4
REMARK    4  A    between atoms: N_7  and  C_8
REMARK    5  A    between atoms: C_8  and  C_9
REMARK    6  A    between atoms: C_15  and  C_16
REMARK                            x       y       z     vdW  Elec       q    Type
REMARK                         _______ _______ _______ _____ _____    ______ ____
ROOT
ATOM      1  C   UNL     1      48.262   6.834  13.988  0.00  0.00    +0.000 A 
ATOM      2  N   UNL     1      48.850   8.040  14.039  0.00  0.00    +0.000 NA
ATOM      3  O   UNL     1      49.307   8.178  15.344  0.00  0.00    +0.000 OA
ATOM      4  C   UNL     1      48.989   7.065  16.067  0.00  0.00    +0.000 A 
ATOM      5  N   UNL     1      49.294   6.887  17.366  0.00  0.00    +0.000 NA
ATOM      6  C   UNL     1      48.825   5.706  17.855  0.00  0.00    +0.000 A 
ATOM      7  C   UNL     1      48.107   4.744  17.140  0.00  0.00    +0.000 A 
ATOM      8  C   UNL     1      47.852   4.973  15.785  0.00  0.00    +0.000 A 
ATOM      9  C   UNL     1      48.313   6.182  15.243  0.00  0.00    +0.000 A 
ENDROOT
BRANCH   7  10
ATOM     10  C   UNL     1      47.621   3.541  17.853  0.00  0.00    +0.000 C 
ATOM     11  N   UNL     1      48.304   3.108  18.952  0.00  0.00    +0.000 N 
ATOM     12  O   UNL     1      46.631   2.931  17.460  0.00  0.00    +0.000 OA
ATOM     13  H   UNL     1      49.138   3.527  19.334  0.00  0.00    +0.000 HD
ATOM     14  H   UNL     1      47.968   2.261  19.396  0.00  0.00    +0.000 HD
ENDBRANCH   7  10
BRANCH   1  15
ATOM     15  C   UNL     1      47.634   6.344  12.719  0.00  0.00    +0.000 C 
BRANCH  15  19
ATOM     16  C   UNL     1      43.537   5.417  11.748  0.00  0.00    +0.000 C 
ATOM     17  C   UNL     1      44.070   6.824  11.445  0.00  0.00    +0.000 C 
ATOM     18  C   UNL     1      45.598   6.897  11.514  0.00  0.00    +0.000 C 
ATOM     19  N   UNL     1      46.151   6.389  12.787  0.00  0.00    +0.000 NA
ATOM     20  C   UNL     1      45.643   5.042  13.104  0.00  0.00    +0.000 C 
ATOM     21  C   UNL     1      44.113   4.998  13.106  0.00  0.00    +0.000 C 
BRANCH  16  22
ATOM     22  C   UNL     1      43.866   4.438  10.595  0.00  0.00    +0.000 C 
BRANCH  22  23
ATOM     23  C   UNL     1      44.185   3.016  11.060  0.00  0.00    +0.000 C 
BRANCH  23  24
ATOM     24  N   UNL     1      42.967   2.354  11.515  0.00  0.00    +0.000 NA
ATOM     25  H   UNL     1      42.813   2.565  12.500  0.00  0.00    +0.000 HD
ATOM     26  H   UNL     1      43.079   1.342  11.457  0.00  0.00    +0.000 HD
ENDBRANCH  23  24
ENDBRANCH  22  23
ENDBRANCH  16  22
ENDBRANCH  15  19
ENDBRANCH   1  15
TORSDOF 6
ENDMDL
MODEL 8
REMARK VINA RESULT:    -5.845      4.563      6.166
REMARK INTER + INTRA:          -8.143
REMARK INTER:                  -7.755
REMARK INTRA:                  -0.387
REMARK UNBOUND:                -0.418
REMARK  Name = 
REMARK  6 active torsions:
REMARK  status: ('A' for Active; 'I' for Inactive)
REMARK    1  A    between atoms: N_1  and  C_2
REMARK    2  A    between atoms: C_2  and  C_3
REMARK    3  A    between atoms: C_3  and  C_4
REMARK    4  A    between atoms: N_7  and  C_8
REMARK    5  A    between atoms: C_8  and  C_9
REMARK    6  A    between atoms: C_15  and  C_16
REMARK                            x       y       z     vdW  Elec       q    Type
REMARK                         _______ _______ _______ _____ _____    ______ ____
ROOT
ATOM      1  C   UNL     1      47.263   4.704  14.524  0.00  0.00    +0.000 A 
ATOM      2  N   UNL     1      47.453   3.375  14.554  0.00  0.00    +0.000 NA
ATOM      3  O   UNL     1      46.663   2.861  13.533  0.00  0.00    +0.000 OA
ATOM      4  C   UNL     1      46.002   3.875  12.903  0.00  0.00    +0.000 A 
ATOM      5  N   UNL     1      45.157   3.707  11.869  0.00  0.00    +0.000 NA
ATOM      6  C   UNL     1      44.602   4.878  11.454  0.00  0.00    +0.000 A 
ATOM      7  C   UNL     1      44.844   6.144  11.994  0.00  0.00    +0.000 A 
ATOM      8  C   UNL     1      45.759   6.256  13.045  0.00  0.00    +0.000 A 
ATOM      9  C   UNL     1      46.350   5.071  13.507  0.00  0.00    +0.000 A 
ENDROOT
BRANCH   7  10
ATOM     10  C   UNL     1      44.101   7.305  11.453  0.00  0.00    +0.000 C 
ATOM     11  N   UNL     1      42.793   7.142  11.102  0.00  0.00    +0.000 N 
ATOM     12  O   UNL     1      44.651   8.393  11.308  0.00  0.00    +0.000 OA
ATOM     13  H   UNL     1      42.266   6.285  11.162  0.00  0.00    +0.000 HD
ATOM     14  H   UNL     1      42.324   7.946  10.700  0.00  0.00    +0.000 HD
ENDBRANCH   7  10
BRANCH   1  15
ATOM     15  C   UNL     1      47.959   5.597  15.505  0.00  0.00    +0.000 C 
BRANCH  15  19
ATOM     16  C   UNL     1      49.707   4.669  19.337  0.00  0.00    +0.000 C 
ATOM     17  C   UNL     1      50.631   4.840  18.123  0.00  0.00    +0.000 C 
ATOM     18  C   UNL     1      49.920   5.499  16.937  0.00  0.00    +0.000 C 
ATOM     19  N   UNL     1      48.668   4.815  16.551  0.00  0.00    +0.000 NA
ATOM     20  C   UNL     1      47.770   4.629  17.705  0.00  0.00    +0.000 C 
ATOM     21  C   UNL     1      48.468   3.902  18.857  0.00  0.00    +0.000 C 
BRANCH  16  22
ATOM     22  C   UNL     1      49.388   6.036  19.990  0.00  0.00    +0.000 C 
BRANCH  22  23
ATOM     23  C   UNL     1      50.629   6.860  20.339  0.00  0.00    +0.000 C 
BRANCH  23  24
ATOM     24  N   UNL     1      50.550   8.174  19.710  0.00  0.00    +0.000 NA
ATOM     25  H   UNL     1      49.840   8.734  20.181  0.00  0.00    +0.000 HD
ATOM     26  H   UNL     1      50.239   8.078  18.744  0.00  0.00    +0.000 HD
ENDBRANCH  23  24
ENDBRANCH  22  23
ENDBRANCH  16  22
ENDBRANCH  15  19
ENDBRANCH   1  15
TORSDOF 6
ENDMDL
MODEL 9
REMARK VINA RESULT:    -5.831      2.933      4.689
REMARK INTER + INTRA:          -8.125
REMARK INTER:                  -7.616
REMARK INTRA:                  -0.508
REMARK UNBOUND:                -0.418
REMARK  Name = 
REMARK  6 active torsions:
REMARK  status: ('A' for Active; 'I' for Inactive)
REMARK    1  A    between atoms: N_1  and  C_2
REMARK    2  A    between atoms: C_2  and  C_3
REMARK    3  A    between atoms: C_3  and  C_4
REMARK    4  A    between atoms: N_7  and  C_8
REMARK    5  A    between atoms: C_8  and  C_9
REMARK    6  A    between atoms: C_15  and  C_16
REMARK                            x       y       z     vdW  Elec       q    Type
REMARK                         _______ _______ _______ _____ _____    ______ ____
ROOT
ATOM      1  C   UNL     1      47.587   6.319  14.047  0.00  0.00    +0.000 A 
ATOM      2  N   UNL     1      48.171   5.523  14.956  0.00  0.00    +0.000 NA
ATOM      3  O   UNL     1      47.655   4.253  14.729  0.00  0.00    +0.000 OA
ATOM      4  C   UNL     1      46.765   4.293  13.695  0.00  0.00    +0.000 A 
ATOM      5  N   UNL     1      46.093   3.225  13.227  0.00  0.00    +0.000 NA
ATOM      6  C   UNL     1      45.239   3.548  12.217  0.00  0.00    +0.000 A 
ATOM      7  C   UNL     1      45.042   4.822  11.679  0.00  0.00    +0.000 A 
ATOM      8  C   UNL     1      45.796   5.883  12.186  0.00  0.00    +0.000 A 
ATOM      9  C   UNL     1      46.685   5.595  13.232  0.00  0.00    +0.000 A 
ENDROOT
BRANCH   7  10
ATOM     10  C   UNL     1      44.022   4.999  10.619  0.00  0.00    +0.000 C 
ATOM     11  N   UNL     1      43.108   6.003  10.748  0.00  0.00    +0.000 N 
ATOM     12  O   UNL     1      43.989   4.251   9.647  0.00  0.00    +0.000 OA
ATOM     13  H   UNL     1      43.042   6.649  11.519  0.00  0.00    +0.000 HD
ATOM     14  H   UNL     1      42.401   6.074  10.024  0.00  0.00    +0.000 HD
ENDBRANCH   7  10
BRANCH   1  15
ATOM     15  C   UNL     1      47.900   7.783  14.001  0.00  0.00    +0.000 C 
BRANCH  15  19
ATOM     16  C   UNL     1      50.898   9.157  11.222  0.00  0.00    +0.000 C 
ATOM     17  C   UNL     1      49.672  10.042  11.487  0.00  0.00    +0.000 C 
ATOM     18  C   UNL     1      48.891   9.601  12.728  0.00  0.00    +0.000 C 
ATOM     19  N   UNL     1      48.511   8.173  12.704  0.00  0.00    +0.000 NA
ATOM     20  C   UNL     1      49.672   7.304  12.439  0.00  0.00    +0.000 C 
ATOM     21  C   UNL     1      50.402   7.707  11.155  0.00  0.00    +0.000 C 
BRANCH  16  22
ATOM     22  C   UNL     1      51.998   9.398  12.284  0.00  0.00    +0.000 C 
BRANCH  22  23
ATOM     23  C   UNL     1      53.362   8.817  11.907  0.00  0.00    +0.000 C 
BRANCH  23  24
ATOM     24  N   UNL     1      53.653   7.648  12.730  0.00  0.00    +0.000 NA
ATOM     25  H   UNL     1      53.779   7.938  13.699  0.00  0.00    +0.000 HD
ATOM     26  H   UNL     1      54.538   7.232  12.443  0.00  0.00    +0.000 HD
ENDBRANCH  23  24
ENDBRANCH  22  23
ENDBRANCH  16  22
ENDBRANCH  15  19
ENDBRANCH   1  15
TORSDOF 6
ENDMDL
