MODEL 1
REMARK VINA RESULT:    -8.829      0.000      0.000
REMARK INTER + INTRA:         -11.439
REMARK INTER:                 -11.410
REMARK INTRA:                  -0.028
REMARK UNBOUND:                -0.028
REMARK  Name = 
REMARK  7 active torsions:
REMARK  status: ('A' for Active; 'I' for Inactive)
REMARK    1  A    between atoms: C_1  and  C_2
REMARK    2  A    between atoms: C_2  and  N_3
REMARK    3  A    between atoms: C_2  and  C_17
REMARK    4  A    between atoms: C_4  and  C_6
REMARK    5  A    between atoms: N_12  and  C_13
REMARK    6  A    between atoms: C_20  and  C_21
REMARK    7  A    between atoms: C_21  and  C_22
REMARK                            x       y       z     vdW  Elec       q    Type
REMARK                         _______ _______ _______ _____ _____    ______ ____
ROOT
ATOM      1  C   UNL     1      45.300   8.223  11.957  0.00  0.00    +0.000 C 
ATOM      2  C   UNL     1      45.129   6.920  12.744  0.00  0.00    +0.000 C 
ENDROOT
BRANCH   2   3
ATOM      3  C   UNL     1      45.056   5.687  11.881  0.00  0.00    +0.000 A 
ATOM      4  C   UNL     1      45.298   5.754  10.521  0.00  0.00    +0.000 A 
ATOM      5  N   UNL     1      45.225   4.698   9.683  0.00  0.00    +0.000 NA
ATOM      6  C   UNL     1      44.875   3.514  10.228  0.00  0.00    +0.000 A 
ATOM      7  N   UNL     1      44.608   3.340  11.537  0.00  0.00    +0.000 NA
ATOM      8  C   UNL     1      44.702   4.430  12.327  0.00  0.00    +0.000 A 
BRANCH   6   9
ATOM      9  C   UNL     1      44.728   2.331   9.306  0.00  0.00    +0.000 C 
BRANCH   9  10
ATOM     10  C   UNL     1      45.746   2.273   8.193  0.00  0.00    +0.000 A 
ATOM     11  C   UNL     1      45.790   3.263   7.212  0.00  0.00    +0.000 A 
ATOM     12  C   UNL     1      46.701   3.140   6.166  0.00  0.00    +0.000 A 
ATOM     13  C   UNL     1      47.542   2.035   6.120  0.00  0.00    +0.000 A 
ATOM     14  C   UNL     1      47.436   1.095   7.129  0.00  0.00    +0.000 A 
ATOM     15  N   UNL     1      46.558   1.184   8.152  0.00  0.00    +0.000 NA
ENDBRANCH   9  10
ENDBRANCH   6   9
ENDBRANCH   2   3
BRANCH   2  16
ATOM     16  N   UNL     1      46.223   6.809  13.689  0.00  0.00    +0.000 N 
ATOM     17  C   UNL     1      47.546   6.846  13.338  0.00  0.00    +0.000 C 
ATOM     18  O   UNL     1      47.916   6.867  12.167  0.00  0.00    +0.000 OA
ATOM     19  H   UNL     1      45.983   7.006  14.655  0.00  0.00    +0.000 HD
BRANCH  17  20
ATOM     20  C   UNL     1      48.501   6.808  14.452  0.00  0.00    +0.000 A 
ATOM     21  C   UNL     1      49.513   7.755  14.546  0.00  0.00    +0.000 A 
ATOM     22  S   UNL     1      50.513   7.546  15.914  0.00  0.00    +0.000 S 
ATOM     23  C   UNL     1      49.610   6.204  16.442  0.00  0.00    +0.000 A 
ATOM     24  N   UNL     1      49.916   5.556  17.596  0.00  0.00    +0.000 NA
ATOM     25  C   UNL     1      49.131   4.571  17.885  0.00  0.00    +0.000 A 
ATOM     26  N   UNL     1      48.063   4.150  17.121  0.00  0.00    +0.000 N 
ATOM     27  C   UNL     1      47.258   3.009  17.516  0.00  0.00    +0.000 C 
ATOM     28  C   UNL     1      47.755   4.753  15.911  0.00  0.00    +0.000 A 
ATOM     29  O   UNL     1      46.882   4.324  15.164  0.00  0.00    +0.000 OA
ATOM     30  C   UNL     1      48.583   5.897  15.571  0.00  0.00    +0.000 A 
ENDBRANCH  17  20
ENDBRANCH   2  16
TORSDOF 5
ENDMDL
MODEL 2
REMARK VINA RESULT:    -8.280      1.515      2.426
REMARK INTER + INTRA:         -10.728
REMARK INTER:                 -10.686
REMARK INTRA:                  -0.042
REMARK UNBOUND:                -0.028
REMARK  Name = 
REMARK  7 active torsions:
REMARK  status: ('A' for Active; 'I' for Inactive)
REMARK    1  A    between atoms: C_1  and  C_2
REMARK    2  A    between atoms: C_2  and  N_3
REMARK    3  A    between atoms: C_2  and  C_17
REMARK    4  A    between atoms: C_4  and  C_6
REMARK    5  A    between atoms: N_12  and  C_13
REMARK    6  A    between atoms: C_20  and  C_21
REMARK    7  A    between atoms: C_21  and  C_22
REMARK                            x       y       z     vdW  Elec       q    Type
REMARK                         _______ _______ _______ _____ _____    ______ ____
ROOT
ATOM      1  C   UNL     1      46.041   7.673  12.479  0.00  0.00    +0.000 C 
ATOM      2  C   UNL     1      45.216   6.451  12.896  0.00  0.00    +0.000 C 
ENDROOT
BRANCH   2   3
ATOM      3  C   UNL     1      45.011   5.445  11.793  0.00  0.00    +0.000 A 
ATOM      4  C   UNL     1      44.421   4.221  12.046  0.00  0.00    +0.000 A 
ATOM      5  N   UNL     1      44.229   3.262  11.115  0.00  0.00    +0.000 NA
ATOM      6  C   UNL     1      44.664   3.533   9.867  0.00  0.00    +0.000 A 
ATOM      7  N   UNL     1      45.261   4.689   9.514  0.00  0.00    +0.000 NA
ATOM      8  C   UNL     1      45.422   5.611  10.485  0.00  0.00    +0.000 A 
BRANCH   6   9
ATOM      9  C   UNL     1      44.517   2.458   8.821  0.00  0.00    +0.000 C 
BRANCH   9  10
ATOM     10  C   UNL     1      45.711   2.303   7.909  0.00  0.00    +0.000 A 
ATOM     11  C   UNL     1      45.973   3.239   6.909  0.00  0.00    +0.000 A 
ATOM     12  C   UNL     1      47.046   3.026   6.047  0.00  0.00    +0.000 A 
ATOM     13  C   UNL     1      47.828   1.889   6.200  0.00  0.00    +0.000 A 
ATOM     14  C   UNL     1      47.503   1.007   7.215  0.00  0.00    +0.000 A 
ATOM     15  N   UNL     1      46.465   1.182   8.061  0.00  0.00    +0.000 NA
ENDBRANCH   9  10
ENDBRANCH   6   9
ENDBRANCH   2   3
BRANCH   2  16
ATOM     16  N   UNL     1      45.864   5.828  14.033  0.00  0.00    +0.000 N 
ATOM     17  C   UNL     1      47.184   5.463  14.058  0.00  0.00    +0.000 C 
ATOM     18  O   UNL     1      47.907   5.537  13.068  0.00  0.00    +0.000 OA
ATOM     19  H   UNL     1      45.387   5.944  14.921  0.00  0.00    +0.000 HD
BRANCH  17  20
ATOM     20  C   UNL     1      47.672   4.929  15.336  0.00  0.00    +0.000 A 
ATOM     21  C   UNL     1      47.302   3.658  15.756  0.00  0.00    +0.000 A 
ATOM     22  S   UNL     1      47.977   3.218  17.262  0.00  0.00    +0.000 S 
ATOM     23  C   UNL     1      48.810   4.697  17.387  0.00  0.00    +0.000 A 
ATOM     24  N   UNL     1      49.621   4.964  18.443  0.00  0.00    +0.000 NA
ATOM     25  C   UNL     1      50.208   6.115  18.394  0.00  0.00    +0.000 A 
ATOM     26  N   UNL     1      50.054   7.048  17.390  0.00  0.00    +0.000 N 
ATOM     27  C   UNL     1      50.733   8.329  17.443  0.00  0.00    +0.000 C 
ATOM     28  C   UNL     1      49.193   6.832  16.325  0.00  0.00    +0.000 A 
ATOM     29  O   UNL     1      48.956   7.691  15.484  0.00  0.00    +0.000 OA
ATOM     30  C   UNL     1      48.549   5.529  16.315  0.00  0.00    +0.000 A 
ENDBRANCH  17  20
ENDBRANCH   2  16
TORSDOF 5
ENDMDL
MODEL 3
REMARK VINA RESULT:    -8.253      1.647      2.348
REMARK INTER + INTRA:         -10.693
REMARK INTER:                  -9.577
REMARK INTRA:                  -1.116
REMARK UNBOUND:                -0.028
REMARK  Name = 
REMARK  7 active torsions:
REMARK  status: ('A' for Active; 'I' for Inactive)
REMARK    1  A    between atoms: C_1  and  C_2
REMARK    2  A    between atoms: C_2  and  N_3
REMARK    3  A    between atoms: C_2  and  C_17
REMARK    4  A    between atoms: C_4  and  C_6
REMARK    5  A    between atoms: N_12  and  C_13
REMARK    6  A    between atoms: C_20  and  C_21
REMARK    7  A    between atoms: C_21  and  C_22
REMARK                            x       y       z     vdW  Elec       q    Type
REMARK                         _______ _______ _______ _____ _____    ______ ____
ROOT
ATOM      1  C   UNL     1      47.539   9.334  12.746  0.00  0.00    +0.000 C 
ATOM      2  C   UNL     1      46.949   8.197  13.586  0.00  0.00    +0.000 C 
ENDROOT
BRANCH   2   3
ATOM      3  C   UNL     1      46.139   7.205  12.791  0.00  0.00    +0.000 A 
ATOM      4  C   UNL     1      46.453   5.859  12.801  0.00  0.00    +0.000 A 
ATOM      5  N   UNL     1      45.790   4.918  12.095  0.00  0.00    +0.000 NA
ATOM      6  C   UNL     1      44.769   5.346  11.324  0.00  0.00    +0.000 A 
ATOM      7  N   UNL     1      44.386   6.635  11.233  0.00  0.00    +0.000 NA
ATOM      8  C   UNL     1      45.082   7.529  11.965  0.00  0.00    +0.000 A 
BRANCH   6   9
ATOM      9  C   UNL     1      44.048   4.326  10.479  0.00  0.00    +0.000 C 
BRANCH   9  10
ATOM     10  C   UNL     1      44.894   3.702   9.395  0.00  0.00    +0.000 A 
ATOM     11  C   UNL     1      45.092   2.322   9.349  0.00  0.00    +0.000 A 
ATOM     12  C   UNL     1      45.930   1.790   8.373  0.00  0.00    +0.000 A 
ATOM     13  C   UNL     1      46.553   2.644   7.471  0.00  0.00    +0.000 A 
ATOM     14  C   UNL     1      46.307   4.001   7.582  0.00  0.00    +0.000 A 
ATOM     15  N   UNL     1      45.505   4.546   8.523  0.00  0.00    +0.000 NA
ENDBRANCH   9  10
ENDBRANCH   6   9
ENDBRANCH   2   3
BRANCH   2  16
ATOM     16  N   UNL     1      48.033   7.526  14.275  0.00  0.00    +0.000 N 
ATOM     17  C   UNL     1      48.567   7.953  15.462  0.00  0.00    +0.000 C 
ATOM     18  O   UNL     1      48.238   9.012  15.989  0.00  0.00    +0.000 OA
ATOM     19  H   UNL     1      48.186   6.561  14.007  0.00  0.00    +0.000 HD
BRANCH  17  20
ATOM     20  C   UNL     1      49.599   7.086  16.044  0.00  0.00    +0.000 A 
ATOM     21  C   UNL     1      50.913   7.523  16.143  0.00  0.00    +0.000 A 
ATOM     22  S   UNL     1      51.958   6.373  16.853  0.00  0.00    +0.000 S 
ATOM     23  C   UNL     1      50.685   5.268  17.079  0.00  0.00    +0.000 A 
ATOM     24  N   UNL     1      50.890   4.067  17.679  0.00  0.00    +0.000 NA
ATOM     25  C   UNL     1      49.828   3.340  17.806  0.00  0.00    +0.000 A 
ATOM     26  N   UNL     1      48.565   3.688  17.374  0.00  0.00    +0.000 N 
ATOM     27  C   UNL     1      47.441   2.786  17.533  0.00  0.00    +0.000 C 
ATOM     28  C   UNL     1      48.330   4.882  16.709  0.00  0.00    +0.000 A 
ATOM     29  O   UNL     1      47.241   5.159  16.219  0.00  0.00    +0.000 OA
ATOM     30  C   UNL     1      49.488   5.752  16.588  0.00  0.00    +0.000 A 
ENDBRANCH  17  20
ENDBRANCH   2  16
TORSDOF 5
ENDMDL
MODEL 4
REMARK VINA RESULT:    -7.999      2.932      3.870
REMARK INTER + INTRA:         -10.366
REMARK INTER:                  -9.435
REMARK INTRA:                  -0.931
REMARK UNBOUND:                -0.028
REMARK  Name = 
REMARK  7 active torsions:
REMARK  status: ('A' for Active; 'I' for Inactive)
REMARK    1  A    between atoms: C_1  and  C_2
REMARK    2  A    between atoms: C_2  and  N_3
REMARK    3  A    between atoms: C_2  and  C_17
REMARK    4  A    between atoms: C_4  and  C_6
REMARK    5  A    between atoms: N_12  and  C_13
REMARK    6  A    between atoms: C_20  and  C_21
REMARK    7  A    between atoms: C_21  and  C_22
REMARK                            x       y       z     vdW  Elec       q    Type
REMARK                         _______ _______ _______ _____ _____    ______ ____
ROOT
ATOM      1  C   UNL     1      47.167   4.242  16.305  0.00  0.00    +0.000 C 
ATOM      2  C   UNL     1      47.666   4.948  15.041  0.00  0.00    +0.000 C 
ENDROOT
BRANCH   2   3
ATOM      3  C   UNL     1      46.763   4.777  13.846  0.00  0.00    +0.000 A 
ATOM      4  C   UNL     1      46.288   3.530  13.485  0.00  0.00    +0.000 A 
ATOM      5  N   UNL     1      45.498   3.297  12.415  0.00  0.00    +0.000 NA
ATOM      6  C   UNL     1      45.180   4.364  11.653  0.00  0.00    +0.000 A 
ATOM      7  N   UNL     1      45.597   5.620  11.908  0.00  0.00    +0.000 NA
ATOM      8  C   UNL     1      46.379   5.793  12.994  0.00  0.00    +0.000 A 
BRANCH   6   9
ATOM      9  C   UNL     1      44.349   4.125  10.418  0.00  0.00    +0.000 C 
BRANCH   9  10
ATOM     10  C   UNL     1      45.112   3.542   9.253  0.00  0.00    +0.000 A 
ATOM     11  C   UNL     1      45.297   2.164   9.139  0.00  0.00    +0.000 A 
ATOM     12  C   UNL     1      46.062   1.669   8.085  0.00  0.00    +0.000 A 
ATOM     13  C   UNL     1      46.624   2.555   7.176  0.00  0.00    +0.000 A 
ATOM     14  C   UNL     1      46.397   3.908   7.359  0.00  0.00    +0.000 A 
ATOM     15  N   UNL     1      45.666   4.418   8.374  0.00  0.00    +0.000 NA
ENDBRANCH   9  10
ENDBRANCH   6   9
ENDBRANCH   2   3
BRANCH   2  16
ATOM     16  N   UNL     1      47.841   6.355  15.342  0.00  0.00    +0.000 N 
ATOM     17  C   UNL     1      49.056   6.941  15.584  0.00  0.00    +0.000 C 
ATOM     18  O   UNL     1      50.094   6.293  15.672  0.00  0.00    +0.000 OA
ATOM     19  H   UNL     1      47.070   6.956  15.072  0.00  0.00    +0.000 HD
BRANCH  17  20
ATOM     20  C   UNL     1      49.031   8.396  15.781  0.00  0.00    +0.000 A 
ATOM     21  C   UNL     1      49.508   9.249  14.794  0.00  0.00    +0.000 A 
ATOM     22  S   UNL     1      49.387  10.901  15.210  0.00  0.00    +0.000 S 
ATOM     23  C   UNL     1      48.666  10.533  16.706  0.00  0.00    +0.000 A 
ATOM     24  N   UNL     1      48.271  11.512  17.560  0.00  0.00    +0.000 NA
ATOM     25  C   UNL     1      47.717  11.087  18.648  0.00  0.00    +0.000 A 
ATOM     26  N   UNL     1      47.526   9.763  18.983  0.00  0.00    +0.000 N 
ATOM     27  C   UNL     1      46.922   9.385  20.246  0.00  0.00    +0.000 C 
ATOM     28  C   UNL     1      47.966   8.736  18.160  0.00  0.00    +0.000 A 
ATOM     29  O   UNL     1      47.908   7.557  18.489  0.00  0.00    +0.000 OA
ATOM     30  C   UNL     1      48.551   9.171  16.903  0.00  0.00    +0.000 A 
ENDBRANCH  17  20
ENDBRANCH   2  16
TORSDOF 5
ENDMDL
MODEL 5
REMARK VINA RESULT:    -7.943      2.201      3.228
REMARK INTER + INTRA:         -10.294
REMARK INTER:                  -9.403
REMARK INTRA:                  -0.891
REMARK UNBOUND:                -0.028
REMARK  Name = 
REMARK  7 active torsions:
REMARK  status: ('A' for Active; 'I' for Inactive)
REMARK    1  A    between atoms: C_1  and  C_2
REMARK    2  A    between atoms: C_2  and  N_3
REMARK    3  A    between atoms: C_2  and  C_17
REMARK    4  A    between atoms: C_4  and  C_6
REMARK    5  A    between atoms: N_12  and  C_13
REMARK    6  A    between atoms: C_20  and  C_21
REMARK    7  A    between atoms: C_21  and  C_22
REMARK                            x       y       z     vdW  Elec       q    Type
REMARK                         _______ _______ _______ _____ _____    ______ ____
ROOT
ATOM      1  C   UNL     1      49.543   7.767  13.158  0.00  0.00    +0.000 C 
ATOM      2  C   UNL     1      48.123   8.026  13.672  0.00  0.00    +0.000 C 
ENDROOT
BRANCH   2   3
ATOM      3  C   UNL     1      47.056   7.259  12.936  0.00  0.00    +0.000 A 
ATOM      4  C   UNL     1      46.975   5.883  13.029  0.00  0.00    +0.000 A 
ATOM      5  N   UNL     1      46.063   5.129  12.378  0.00  0.00    +0.000 NA
ATOM      6  C   UNL     1      45.196   5.783  11.577  0.00  0.00    +0.000 A 
ATOM      7  N   UNL     1      45.193   7.119  11.406  0.00  0.00    +0.000 NA
ATOM      8  C   UNL     1      46.124   7.821  12.086  0.00  0.00    +0.000 A 
BRANCH   6   9
ATOM      9  C   UNL     1      44.205   4.961  10.792  0.00  0.00    +0.000 C 
BRANCH   9  10
ATOM     10  C   UNL     1      44.822   4.084   9.729  0.00  0.00    +0.000 A 
ATOM     11  C   UNL     1      44.711   2.695   9.796  0.00  0.00    +0.000 A 
ATOM     12  C   UNL     1      45.349   1.918   8.831  0.00  0.00    +0.000 A 
ATOM     13  C   UNL     1      46.082   2.541   7.830  0.00  0.00    +0.000 A 
ATOM     14  C   UNL     1      46.146   3.923   7.833  0.00  0.00    +0.000 A 
ATOM     15  N   UNL     1      45.544   4.703   8.758  0.00  0.00    +0.000 NA
ENDBRANCH   9  10
ENDBRANCH   6   9
ENDBRANCH   2   3
BRANCH   2  16
ATOM     16  N   UNL     1      48.084   7.713  15.087  0.00  0.00    +0.000 N 
ATOM     17  C   UNL     1      48.575   8.534  16.067  0.00  0.00    +0.000 C 
ATOM     18  O   UNL     1      49.192   9.565  15.815  0.00  0.00    +0.000 OA
ATOM     19  H   UNL     1      47.411   7.004  15.356  0.00  0.00    +0.000 HD
BRANCH  17  20
ATOM     20  C   UNL     1      48.359   8.078  17.446  0.00  0.00    +0.000 A 
ATOM     21  C   UNL     1      47.841   8.941  18.401  0.00  0.00    +0.000 A 
ATOM     22  S   UNL     1      47.658   8.221  19.939  0.00  0.00    +0.000 S 
ATOM     23  C   UNL     1      48.235   6.724  19.372  0.00  0.00    +0.000 A 
ATOM     24  N   UNL     1      48.306   5.640  20.186  0.00  0.00    +0.000 NA
ATOM     25  C   UNL     1      48.740   4.565  19.615  0.00  0.00    +0.000 A 
ATOM     26  N   UNL     1      49.131   4.463  18.296  0.00  0.00    +0.000 N 
ATOM     27  C   UNL     1      49.637   3.216  17.755  0.00  0.00    +0.000 C 
ATOM     28  C   UNL     1      49.124   5.562  17.450  0.00  0.00    +0.000 A 
ATOM     29  O   UNL     1      49.572   5.520  16.310  0.00  0.00    +0.000 OA
ATOM     30  C   UNL     1      48.596   6.781  18.040  0.00  0.00    +0.000 A 
ENDBRANCH  17  20
ENDBRANCH   2  16
TORSDOF 5
ENDMDL
MODEL 6
REMARK VINA RESULT:    -7.892      2.395      3.544
REMARK INTER + INTRA:         -10.228
REMARK INTER:                  -9.416
REMARK INTRA:                  -0.812
REMARK UNBOUND:                -0.028
REMARK  Name = 
REMARK  7 active torsions:
REMARK  status: ('A' for Active; 'I' for Inactive)
REMARK    1  A    between atoms: C_1  and  C_2
REMARK    2  A    between atoms: C_2  and  N_3
REMARK    3  A    between atoms: C_2  and  C_17
REMARK    4  A    between atoms: C_4  and  C_6
REMARK    5  A    between atoms: N_12  and  C_13
REMARK    6  A    between atoms: C_20  and  C_21
REMARK    7  A    between atoms: C_21  and  C_22
REMARK                            x       y       z     vdW  Elec       q    Type
REMARK                         _______ _______ _______ _____ _____    ______ ____
ROOT
ATOM      1  C   UNL     1      48.689   8.376  13.058  0.00  0.00    +0.000 C 
ATOM      2  C   UNL     1      47.595   7.596  13.794  0.00  0.00    +0.000 C 
ENDROOT
BRANCH   2   3
ATOM      3  C   UNL     1      46.649   6.858  12.882  0.00  0.00    +0.000 A 
ATOM      4  C   UNL     1      46.544   5.481  12.928  0.00  0.00    +0.000 A 
ATOM      5  N   UNL     1      45.739   4.752  12.125  0.00  0.00    +0.000 NA
ATOM      6  C   UNL     1      45.012   5.433  11.216  0.00  0.00    +0.000 A 
ATOM      7  N   UNL     1      45.046   6.773  11.079  0.00  0.00    +0.000 NA
ATOM      8  C   UNL     1      45.865   7.449  11.912  0.00  0.00    +0.000 A 
BRANCH   6   9
ATOM      9  C   UNL     1      44.150   4.641  10.266  0.00  0.00    +0.000 C 
BRANCH   9  10
ATOM     10  C   UNL     1      44.918   3.796   9.278  0.00  0.00    +0.000 A 
ATOM     11  C   UNL     1      44.901   2.404   9.362  0.00  0.00    +0.000 A 
ATOM     12  C   UNL     1      45.675   1.663   8.473  0.00  0.00    +0.000 A 
ATOM     13  C   UNL     1      46.447   2.324   7.526  0.00  0.00    +0.000 A 
ATOM     14  C   UNL     1      46.411   3.707   7.507  0.00  0.00    +0.000 A 
ATOM     15  N   UNL     1      45.677   4.453   8.361  0.00  0.00    +0.000 NA
ENDBRANCH   9  10
ENDBRANCH   6   9
ENDBRANCH   2   3
BRANCH   2  16
ATOM     16  N   UNL     1      48.231   6.674  14.714  0.00  0.00    +0.000 N 
ATOM     17  C   UNL     1      48.642   7.012  15.976  0.00  0.00    +0.000 C 
ATOM     18  O   UNL     1      48.602   8.166  16.395  0.00  0.00    +0.000 OA
ATOM     19  H   UNL     1      48.091   5.691  14.508  0.00  0.00    +0.000 HD
BRANCH  17  20
ATOM     20  C   UNL     1      49.182   5.913  16.785  0.00  0.00    +0.000 A 
ATOM     21  C   UNL     1      48.330   5.011  17.408  0.00  0.00    +0.000 A 
ATOM     22  S   UNL     1      49.150   3.803  18.294  0.00  0.00    +0.000 S 
ATOM     23  C   UNL     1      50.670   4.426  17.850  0.00  0.00    +0.000 A 
ATOM     24  N   UNL     1      51.822   3.830  18.251  0.00  0.00    +0.000 NA
ATOM     25  C   UNL     1      52.901   4.398  17.818  0.00  0.00    +0.000 A 
ATOM     26  N   UNL     1      52.947   5.526  17.026  0.00  0.00    +0.000 N 
ATOM     27  C   UNL     1      54.212   6.107  16.619  0.00  0.00    +0.000 C 
ATOM     28  C   UNL     1      51.793   6.191  16.643  0.00  0.00    +0.000 A 
ATOM     29  O   UNL     1      51.816   7.255  16.036  0.00  0.00    +0.000 OA
ATOM     30  C   UNL     1      50.555   5.559  17.067  0.00  0.00    +0.000 A 
ENDBRANCH  17  20
ENDBRANCH   2  16
TORSDOF 5
ENDMDL
MODEL 7
REMARK VINA RESULT:    -7.572      1.729      2.112
REMARK INTER + INTRA:          -9.814
REMARK INTER:                  -9.609
REMARK INTRA:                  -0.205
REMARK UNBOUND:                -0.028
REMARK  Name = 
REMARK  7 active torsions:
REMARK  status: ('A' for Active; 'I' for Inactive)
REMARK    1  A    between atoms: C_1  and  C_2
REMARK    2  A    between atoms: C_2  and  N_3
REMARK    3  A    between atoms: C_2  and  C_17
REMARK    4  A    between atoms: C_4  and  C_6
REMARK    5  A    between atoms: N_12  and  C_13
REMARK    6  A    between atoms: C_20  and  C_21
REMARK    7  A    between atoms: C_21  and  C_22
REMARK                            x       y       z     vdW  Elec       q    Type
REMARK                         _______ _______ _______ _____ _____    ______ ____
ROOT
ATOM      1  C   UNL     1      45.148   8.642  11.931  0.00  0.00    +0.000 C 
ATOM      2  C   UNL     1      45.722   7.359  12.541  0.00  0.00    +0.000 C 
ENDROOT
BRANCH   2   3
ATOM      3  C   UNL     1      45.451   6.120  11.728  0.00  0.00    +0.000 A 
ATOM      4  C   UNL     1      45.852   6.032  10.408  0.00  0.00    +0.000 A 
ATOM      5  N   UNL     1      45.621   4.965   9.612  0.00  0.00    +0.000 NA
ATOM      6  C   UNL     1      44.939   3.937  10.158  0.00  0.00    +0.000 A 
ATOM      7  N   UNL     1      44.494   3.923  11.430  0.00  0.00    +0.000 NA
ATOM      8  C   UNL     1      44.759   5.014  12.179  0.00  0.00    +0.000 A 
BRANCH   6   9
ATOM      9  C   UNL     1      44.616   2.759   9.276  0.00  0.00    +0.000 C 
BRANCH   9  10
ATOM     10  C   UNL     1      45.649   2.469   8.214  0.00  0.00    +0.000 A 
ATOM     11  C   UNL     1      45.839   3.344   7.144  0.00  0.00    +0.000 A 
ATOM     12  C   UNL     1      46.756   3.009   6.151  0.00  0.00    +0.000 A 
ATOM     13  C   UNL     1      47.456   1.814   6.244  0.00  0.00    +0.000 A 
ATOM     14  C   UNL     1      47.211   0.998   7.335  0.00  0.00    +0.000 A 
ATOM     15  N   UNL     1      46.323   1.293   8.310  0.00  0.00    +0.000 NA
ENDBRANCH   9  10
ENDBRANCH   6   9
ENDBRANCH   2   3
BRANCH   2  16
ATOM     16  N   UNL     1      47.148   7.539  12.727  0.00  0.00    +0.000 N 
ATOM     17  C   UNL     1      47.701   8.294  13.728  0.00  0.00    +0.000 C 
ATOM     18  O   UNL     1      47.022   8.975  14.491  0.00  0.00    +0.000 OA
ATOM     19  H   UNL     1      47.735   6.845  12.277  0.00  0.00    +0.000 HD
BRANCH  17  20
ATOM     20  C   UNL     1      49.167   8.277  13.800  0.00  0.00    +0.000 A 
ATOM     21  C   UNL     1      49.927   8.983  12.877  0.00  0.00    +0.000 A 
ATOM     22  S   UNL     1      51.609   8.844  13.134  0.00  0.00    +0.000 S 
ATOM     23  C   UNL     1      51.378   7.862  14.505  0.00  0.00    +0.000 A 
ATOM     24  N   UNL     1      52.429   7.410  15.236  0.00  0.00    +0.000 NA
ATOM     25  C   UNL     1      52.104   6.696  16.263  0.00  0.00    +0.000 A 
ATOM     26  N   UNL     1      50.816   6.370  16.633  0.00  0.00    +0.000 N 
ATOM     27  C   UNL     1      50.555   5.532  17.788  0.00  0.00    +0.000 C 
ATOM     28  C   UNL     1      49.722   6.768  15.880  0.00  0.00    +0.000 A 
ATOM     29  O   UNL     1      48.581   6.395  16.127  0.00  0.00    +0.000 OA
ATOM     30  C   UNL     1      50.040   7.615  14.742  0.00  0.00    +0.000 A 
ENDBRANCH  17  20
ENDBRANCH   2  16
TORSDOF 5
ENDMDL
MODEL 8
REMARK VINA RESULT:    -7.291      2.051      3.384
REMARK INTER + INTRA:          -9.451
REMARK INTER:                  -8.428
REMARK INTRA:                  -1.023
REMARK UNBOUND:                -0.028
REMARK  Name = 
REMARK  7 active torsions:
REMARK  status: ('A' for Active; 'I' for Inactive)
REMARK    1  A    between atoms: C_1  and  C_2
REMARK    2  A    between atoms: C_2  and  N_3
REMARK    3  A    between atoms: C_2  and  C_17
REMARK    4  A    between atoms: C_4  and  C_6
REMARK    5  A    between atoms: N_12  and  C_13
REMARK    6  A    between atoms: C_20  and  C_21
REMARK    7  A    between atoms: C_21  and  C_22
REMARK                            x       y       z     vdW  Elec       q    Type
REMARK                         _______ _______ _______ _____ _____    ______ ____
ROOT
ATOM      1  C   UNL     1      50.330   8.613  11.821  0.00  0.00    +0.000 C 
ATOM      2  C   UNL     1      49.368   8.400  12.994  0.00  0.00    +0.000 C 
ENDROOT
BRANCH   2   3
ATOM      3  C   UNL     1      48.038   7.814  12.597  0.00  0.00    +0.000 A 
ATOM      4  C   UNL     1      47.854   6.446  12.525  0.00  0.00    +0.000 A 
ATOM      5  N   UNL     1      46.700   5.852  12.153  0.00  0.00    +0.000 NA
ATOM      6  C   UNL     1      45.679   6.668  11.817  0.00  0.00    +0.000 A 
ATOM      7  N   UNL     1      45.753   8.013  11.842  0.00  0.00    +0.000 NA
ATOM      8  C   UNL     1      46.929   8.550  12.227  0.00  0.00    +0.000 A 
BRANCH   6   9
ATOM      9  C   UNL     1      44.397   6.033  11.340  0.00  0.00    +0.000 C 
BRANCH   9  10
ATOM     10  C   UNL     1      44.588   4.810  10.476  0.00  0.00    +0.000 A 
ATOM     11  C   UNL     1      45.175   4.910   9.215  0.00  0.00    +0.000 A 
ATOM     12  C   UNL     1      45.274   3.770   8.421  0.00  0.00    +0.000 A 
ATOM     13  C   UNL     1      44.786   2.561   8.901  0.00  0.00    +0.000 A 
ATOM     14  C   UNL     1      44.216   2.543  10.161  0.00  0.00    +0.000 A 
ATOM     15  N   UNL     1      44.099   3.634  10.951  0.00  0.00    +0.000 NA
ENDBRANCH   9  10
ENDBRANCH   6   9
ENDBRANCH   2   3
BRANCH   2  16
ATOM     16  N   UNL     1      50.021   7.552  13.972  0.00  0.00    +0.000 N 
ATOM     17  C   UNL     1      49.863   7.683  15.327  0.00  0.00    +0.000 C 
ATOM     18  O   UNL     1      49.234   8.609  15.830  0.00  0.00    +0.000 OA
ATOM     19  H   UNL     1      50.362   6.665  13.618  0.00  0.00    +0.000 HD
BRANCH  17  20
ATOM     20  C   UNL     1      50.539   6.670  16.146  0.00  0.00    +0.000 A 
ATOM     21  C   UNL     1      51.875   6.819  16.493  0.00  0.00    +0.000 A 
ATOM     22  S   UNL     1      52.475   5.540  17.453  0.00  0.00    +0.000 S 
ATOM     23  C   UNL     1      50.962   4.761  17.464  0.00  0.00    +0.000 A 
ATOM     24  N   UNL     1      50.768   3.604  18.147  0.00  0.00    +0.000 NA
ATOM     25  C   UNL     1      49.563   3.138  18.087  0.00  0.00    +0.000 A 
ATOM     26  N   UNL     1      48.520   3.710  17.391  0.00  0.00    +0.000 N 
ATOM     27  C   UNL     1      47.208   3.090  17.357  0.00  0.00    +0.000 C 
ATOM     28  C   UNL     1      48.695   4.861  16.637  0.00  0.00    +0.000 A 
ATOM     29  O   UNL     1      47.812   5.322  15.923  0.00  0.00    +0.000 OA
ATOM     30  C   UNL     1      50.023   5.446  16.717  0.00  0.00    +0.000 A 
ENDBRANCH  17  20
ENDBRANCH   2  16
TORSDOF 5
ENDMDL
MODEL 9
REMARK VINA RESULT:    -7.196      2.896      4.325
REMARK INTER + INTRA:          -9.328
REMARK INTER:                  -8.136
REMARK INTRA:                  -1.192
REMARK UNBOUND:                -0.028
REMARK  Name = 
REMARK  7 active torsions:
REMARK  status: ('A' for Active; 'I' for Inactive)
REMARK    1  A    between atoms: C_1  and  C_2
REMARK    2  A    between atoms: C_2  and  N_3
REMARK    3  A    between atoms: C_2  and  C_17
REMARK    4  A    between atoms: C_4  and  C_6
REMARK    5  A    between atoms: N_12  and  C_13
REMARK    6  A    between atoms: C_20  and  C_21
REMARK    7  A    between atoms: C_21  and  C_22
REMARK                            x       y       z     vdW  Elec       q    Type
REMARK                         _______ _______ _______ _____ _____    ______ ____
ROOT
ATOM      1  C   UNL     1      50.616   8.298  13.399  0.00  0.00    +0.000 C 
ATOM      2  C   UNL     1      49.324   8.587  14.171  0.00  0.00    +0.000 C 
ENDROOT
BRANCH   2   3
ATOM      3  C   UNL     1      48.073   8.139  13.461  0.00  0.00    +0.000 A 
ATOM      4  C   UNL     1      48.055   6.977  12.714  0.00  0.00    +0.000 A 
ATOM      5  N   UNL     1      46.979   6.528  12.031  0.00  0.00    +0.000 NA
ATOM      6  C   UNL     1      45.867   7.290  12.083  0.00  0.00    +0.000 A 
ATOM      7  N   UNL     1      45.779   8.444  12.772  0.00  0.00    +0.000 NA
ATOM      8  C   UNL     1      46.883   8.840  13.440  0.00  0.00    +0.000 A 
BRANCH   6   9
ATOM      9  C   UNL     1      44.670   6.844  11.282  0.00  0.00    +0.000 C 
BRANCH   9  10
ATOM     10  C   UNL     1      44.306   5.390  11.456  0.00  0.00    +0.000 A 
ATOM     11  C   UNL     1      44.388   4.499  10.385  0.00  0.00    +0.000 A 
ATOM     12  C   UNL     1      43.982   3.180  10.569  0.00  0.00    +0.000 A 
ATOM     13  C   UNL     1      43.502   2.781  11.809  0.00  0.00    +0.000 A 
ATOM     14  C   UNL     1      43.449   3.723  12.821  0.00  0.00    +0.000 A 
ATOM     15  N   UNL     1      43.830   5.011  12.671  0.00  0.00    +0.000 NA
ENDBRANCH   9  10
ENDBRANCH   6   9
ENDBRANCH   2   3
BRANCH   2  16
ATOM     16  N   UNL     1      49.419   7.956  15.473  0.00  0.00    +0.000 N 
ATOM     17  C   UNL     1      48.743   8.386  16.584  0.00  0.00    +0.000 C 
ATOM     18  O   UNL     1      48.079   9.419  16.593  0.00  0.00    +0.000 OA
ATOM     19  H   UNL     1      49.766   7.003  15.469  0.00  0.00    +0.000 HD
BRANCH  17  20
ATOM     20  C   UNL     1      48.903   7.558  17.786  0.00  0.00    +0.000 A 
ATOM     21  C   UNL     1      49.174   8.144  19.015  0.00  0.00    +0.000 A 
ATOM     22  S   UNL     1      49.317   7.015  20.289  0.00  0.00    +0.000 S 
ATOM     23  C   UNL     1      48.991   5.710  19.246  0.00  0.00    +0.000 A 
ATOM     24  N   UNL     1      48.928   4.435  19.709  0.00  0.00    +0.000 NA
ATOM     25  C   UNL     1      48.648   3.549  18.811  0.00  0.00    +0.000 A 
ATOM     26  N   UNL     1      48.436   3.807  17.473  0.00  0.00    +0.000 N 
ATOM     27  C   UNL     1      48.159   2.736  16.534  0.00  0.00    +0.000 C 
ATOM     28  C   UNL     1      48.546   5.089  16.955  0.00  0.00    +0.000 A 
ATOM     29  O   UNL     1      48.473   5.324  15.755  0.00  0.00    +0.000 OA
ATOM     30  C   UNL     1      48.812   6.124  17.941  0.00  0.00    +0.000 A 
ENDBRANCH  17  20
ENDBRANCH   2  16
TORSDOF 5
ENDMDL
