MODEL 1
REMARK VINA RESULT:    -8.602      0.000      0.000
REMARK INTER + INTRA:         -14.213
REMARK INTER:                 -12.624
REMARK INTRA:                  -1.588
REMARK UNBOUND:                -1.588
REMARK  Name = 
REMARK  10 active torsions:
REMARK  status: ('A' for Active; 'I' for Inactive)
REMARK    1  A    between atoms: C_1  and  O_2
REMARK    2  A    between atoms: O_2  and  C_3
REMARK    3  A    between atoms: C_10  and  C_11
REMARK    4  A    between atoms: N_13  and  C_14
REMARK    5  A    between atoms: C_14  and  C_15
REMARK    6  A    between atoms: C_18  and  C_19
REMARK    7  A    between atoms: C_19  and  N_20
REMARK    8  A    between atoms: N_20  and  C_21
REMARK    9  A    between atoms: N_20  and  C_22
REMARK   10  A    between atoms: C_22  and  C_23
REMARK                            x       y       z     vdW  Elec       q    Type
REMARK                         _______ _______ _______ _____ _____    ______ ____
ROOT
ATOM      1  C   UNL     1      46.275   7.307  12.507  0.00  0.00    +0.000 A 
ATOM      2  C   UNL     1      46.844   6.707  11.382  0.00  0.00    +0.000 A 
ATOM      3  C   UNL     1      46.069   5.875  10.577  0.00  0.00    +0.000 A 
ATOM      4  C   UNL     1      44.735   5.660  10.915  0.00  0.00    +0.000 A 
ATOM      5  N   UNL     1      44.147   6.277  11.971  0.00  0.00    +0.000 NA
ATOM      6  C   UNL     1      44.921   7.085  12.731  0.00  0.00    +0.000 A 
ENDROOT
BRANCH   1   7
ATOM      7  C   UNL     1      47.076   8.183  13.425  0.00  0.00    +0.000 C 
BRANCH   7  10
ATOM      8  C   UNL     1      48.772   6.883  14.644  0.00  0.00    +0.000 C 
ATOM      9  O   UNL     1      49.560   6.959  13.705  0.00  0.00    +0.000 OA
ATOM     10  N   UNL     1      47.530   7.452  14.578  0.00  0.00    +0.000 N 
ATOM     11  H   UNL     1      46.875   7.317  15.333  0.00  0.00    +0.000 HD
BRANCH   8  19
ATOM     12  C   UNL     1      47.352   4.263  16.366  0.00  0.00    +0.000 A 
ATOM     13  N   UNL     1      46.998   3.296  17.235  0.00  0.00    +0.000 NA
ATOM     14  C   UNL     1      47.749   3.128  18.327  0.00  0.00    +0.000 A 
ATOM     15  N   UNL     1      48.832   3.819  18.666  0.00  0.00    +0.000 NA
ATOM     16  C   UNL     1      49.153   4.768  17.771  0.00  0.00    +0.000 A 
ATOM     17  S   UNL     1      50.513   5.748  18.038  0.00  0.00    +0.000 S 
ATOM     18  C   UNL     1      50.240   6.609  16.600  0.00  0.00    +0.000 A 
ATOM     19  C   UNL     1      49.124   6.181  15.893  0.00  0.00    +0.000 A 
ATOM     20  C   UNL     1      48.477   5.070  16.591  0.00  0.00    +0.000 A 
BRANCH  12  22
ATOM     21  C   UNL     1      47.096   3.654  14.119  0.00  0.00    +0.000 C 
ATOM     22  O   UNL     1      46.595   4.403  15.219  0.00  0.00    +0.000 OA
ENDBRANCH  12  22
ENDBRANCH   8  19
ENDBRANCH   7  10
ENDBRANCH   1   7
BRANCH   4  23
ATOM     23  C   UNL     1      43.903   4.650  10.141  0.00  0.00    +0.000 C 
BRANCH  23  24
ATOM     24  N   UNL     1      44.391   3.251  10.270  0.00  0.00    +0.000 NA
ATOM     25  C   UNL     1      43.595   2.528  11.273  0.00  0.00    +0.000 C 
BRANCH  24  26
ATOM     26  C   UNL     1      44.281   2.539   8.980  0.00  0.00    +0.000 C 
BRANCH  26  27
ATOM     27  C   UNL     1      45.546   2.550   8.154  0.00  0.00    +0.000 A 
ATOM     28  C   UNL     1      46.079   3.743   7.649  0.00  0.00    +0.000 A 
ATOM     29  C   UNL     1      47.278   3.734   6.928  0.00  0.00    +0.000 A 
ATOM     30  C   UNL     1      47.952   2.534   6.701  0.00  0.00    +0.000 A 
ATOM     31  C   UNL     1      47.422   1.339   7.186  0.00  0.00    +0.000 A 
ATOM     32  C   UNL     1      46.231   1.356   7.906  0.00  0.00    +0.000 A 
ATOM     33  F   UNL     1      45.743   0.195   8.364  0.00  0.00    +0.000 F 
ENDBRANCH  26  27
ENDBRANCH  24  26
ENDBRANCH  23  24
ENDBRANCH   4  23
TORSDOF 8
ENDMDL
MODEL 2
REMARK VINA RESULT:    -7.684      1.444      1.603
REMARK INTER + INTRA:         -12.867
REMARK INTER:                 -11.170
REMARK INTRA:                  -1.697
REMARK UNBOUND:                -1.588
REMARK  Name = 
REMARK  10 active torsions:
REMARK  status: ('A' for Active; 'I' for Inactive)
REMARK    1  A    between atoms: C_1  and  O_2
REMARK    2  A    between atoms: O_2  and  C_3
REMARK    3  A    between atoms: C_10  and  C_11
REMARK    4  A    between atoms: N_13  and  C_14
REMARK    5  A    between atoms: C_14  and  C_15
REMARK    6  A    between atoms: C_18  and  C_19
REMARK    7  A    between atoms: C_19  and  N_20
REMARK    8  A    between atoms: N_20  and  C_21
REMARK    9  A    between atoms: N_20  and  C_22
REMARK   10  A    between atoms: C_22  and  C_23
REMARK                            x       y       z     vdW  Elec       q    Type
REMARK                         _______ _______ _______ _____ _____    ______ ____
ROOT
ATOM      1  C   UNL     1      47.349   7.952  12.760  0.00  0.00    +0.000 A 
ATOM      2  C   UNL     1      47.597   6.954  11.816  0.00  0.00    +0.000 A 
ATOM      3  C   UNL     1      46.530   6.263  11.246  0.00  0.00    +0.000 A 
ATOM      4  C   UNL     1      45.233   6.587  11.633  0.00  0.00    +0.000 A 
ATOM      5  N   UNL     1      44.966   7.591  12.506  0.00  0.00    +0.000 NA
ATOM      6  C   UNL     1      46.020   8.250  13.038  0.00  0.00    +0.000 A 
ENDROOT
BRANCH   1   7
ATOM      7  C   UNL     1      48.464   8.702  13.429  0.00  0.00    +0.000 C 
BRANCH   7  10
ATOM      8  C   UNL     1      48.588   8.422  15.870  0.00  0.00    +0.000 C 
ATOM      9  O   UNL     1      47.889   9.414  16.056  0.00  0.00    +0.000 OA
ATOM     10  N   UNL     1      48.920   8.014  14.607  0.00  0.00    +0.000 N 
ATOM     11  H   UNL     1      49.553   7.238  14.480  0.00  0.00    +0.000 HD
BRANCH   8  19
ATOM     12  C   UNL     1      48.756   5.036  16.467  0.00  0.00    +0.000 A 
ATOM     13  N   UNL     1      48.919   3.792  16.957  0.00  0.00    +0.000 NA
ATOM     14  C   UNL     1      49.457   3.663  18.173  0.00  0.00    +0.000 A 
ATOM     15  N   UNL     1      49.861   4.641  18.977  0.00  0.00    +0.000 NA
ATOM     16  C   UNL     1      49.686   5.863  18.448  0.00  0.00    +0.000 A 
ATOM     17  S   UNL     1      50.150   7.235  19.334  0.00  0.00    +0.000 S 
ATOM     18  C   UNL     1      49.633   8.275  18.093  0.00  0.00    +0.000 A 
ATOM     19  C   UNL     1      49.101   7.615  16.994  0.00  0.00    +0.000 A 
ATOM     20  C   UNL     1      49.141   6.167  17.202  0.00  0.00    +0.000 A 
BRANCH  12  22
ATOM     21  C   UNL     1      47.000   4.483  15.019  0.00  0.00    +0.000 C 
ATOM     22  O   UNL     1      48.238   5.160  15.192  0.00  0.00    +0.000 OA
ENDBRANCH  12  22
ENDBRANCH   8  19
ENDBRANCH   7  10
ENDBRANCH   1   7
BRANCH   4  23
ATOM     23  C   UNL     1      44.058   5.758  11.136  0.00  0.00    +0.000 C 
BRANCH  23  24
ATOM     24  N   UNL     1      44.417   4.355  10.801  0.00  0.00    +0.000 NA
ATOM     25  C   UNL     1      43.701   3.423  11.686  0.00  0.00    +0.000 C 
BRANCH  24  26
ATOM     26  C   UNL     1      44.057   4.044   9.402  0.00  0.00    +0.000 C 
BRANCH  26  27
ATOM     27  C   UNL     1      45.171   3.416   8.598  0.00  0.00    +0.000 A 
ATOM     28  C   UNL     1      46.052   4.194   7.836  0.00  0.00    +0.000 A 
ATOM     29  C   UNL     1      47.106   3.594   7.139  0.00  0.00    +0.000 A 
ATOM     30  C   UNL     1      47.287   2.212   7.193  0.00  0.00    +0.000 A 
ATOM     31  C   UNL     1      46.408   1.427   7.935  0.00  0.00    +0.000 A 
ATOM     32  C   UNL     1      45.363   2.031   8.630  0.00  0.00    +0.000 A 
ATOM     33  F   UNL     1      44.532   1.254   9.339  0.00  0.00    +0.000 F 
ENDBRANCH  26  27
ENDBRANCH  24  26
ENDBRANCH  23  24
ENDBRANCH   4  23
TORSDOF 8
ENDMDL
MODEL 3
REMARK VINA RESULT:    -7.511      2.480      3.131
REMARK INTER + INTRA:         -12.612
REMARK INTER:                 -11.319
REMARK INTRA:                  -1.293
REMARK UNBOUND:                -1.588
REMARK  Name = 
REMARK  10 active torsions:
REMARK  status: ('A' for Active; 'I' for Inactive)
REMARK    1  A    between atoms: C_1  and  O_2
REMARK    2  A    between atoms: O_2  and  C_3
REMARK    3  A    between atoms: C_10  and  C_11
REMARK    4  A    between atoms: N_13  and  C_14
REMARK    5  A    between atoms: C_14  and  C_15
REMARK    6  A    between atoms: C_18  and  C_19
REMARK    7  A    between atoms: C_19  and  N_20
REMARK    8  A    between atoms: N_20  and  C_21
REMARK    9  A    between atoms: N_20  and  C_22
REMARK   10  A    between atoms: C_22  and  C_23
REMARK                            x       y       z     vdW  Elec       q    Type
REMARK                         _______ _______ _______ _____ _____    ______ ____
ROOT
ATOM      1  C   UNL     1      47.541   6.392  13.213  0.00  0.00    +0.000 A 
ATOM      2  C   UNL     1      47.317   6.967  11.961  0.00  0.00    +0.000 A 
ATOM      3  C   UNL     1      46.257   6.519  11.176  0.00  0.00    +0.000 A 
ATOM      4  C   UNL     1      45.439   5.503  11.662  0.00  0.00    +0.000 A 
ATOM      5  N   UNL     1      45.604   4.969  12.899  0.00  0.00    +0.000 NA
ATOM      6  C   UNL     1      46.637   5.427  13.642  0.00  0.00    +0.000 A 
ENDROOT
BRANCH   1   7
ATOM      7  C   UNL     1      48.690   6.814  14.082  0.00  0.00    +0.000 C 
BRANCH   7  10
ATOM      8  C   UNL     1      49.081   6.361  16.468  0.00  0.00    +0.000 C 
ATOM      9  O   UNL     1      50.152   5.812  16.226  0.00  0.00    +0.000 OA
ATOM     10  N   UNL     1      48.302   6.871  15.466  0.00  0.00    +0.000 N 
ATOM     11  H   UNL     1      47.394   7.255  15.681  0.00  0.00    +0.000 HD
BRANCH   8  19
ATOM     12  C   UNL     1      47.835   9.020  18.265  0.00  0.00    +0.000 A 
ATOM     13  N   UNL     1      47.347   9.874  19.185  0.00  0.00    +0.000 NA
ATOM     14  C   UNL     1      47.092   9.400  20.407  0.00  0.00    +0.000 A 
ATOM     15  N   UNL     1      47.265   8.153  20.833  0.00  0.00    +0.000 NA
ATOM     16  C   UNL     1      47.747   7.334  19.884  0.00  0.00    +0.000 A 
ATOM     17  S   UNL     1      48.027   5.700  20.249  0.00  0.00    +0.000 S 
ATOM     18  C   UNL     1      48.590   5.392  18.676  0.00  0.00    +0.000 A 
ATOM     19  C   UNL     1      48.580   6.506  17.848  0.00  0.00    +0.000 A 
ATOM     20  C   UNL     1      48.066   7.670  18.570  0.00  0.00    +0.000 A 
BRANCH  12  22
ATOM     21  C   UNL     1      49.348  10.082  16.826  0.00  0.00    +0.000 C 
ATOM     22  O   UNL     1      48.058   9.508  16.992  0.00  0.00    +0.000 OA
ENDBRANCH  12  22
ENDBRANCH   8  19
ENDBRANCH   7  10
ENDBRANCH   1   7
BRANCH   4  23
ATOM     23  C   UNL     1      44.363   4.897  10.774  0.00  0.00    +0.000 C 
BRANCH  23  24
ATOM     24  N   UNL     1      44.569   3.452  10.489  0.00  0.00    +0.000 NA
ATOM     25  C   UNL     1      43.675   2.638  11.326  0.00  0.00    +0.000 C 
BRANCH  24  26
ATOM     26  C   UNL     1      44.284   3.155   9.070  0.00  0.00    +0.000 C 
BRANCH  26  27
ATOM     27  C   UNL     1      45.508   2.840   8.243  0.00  0.00    +0.000 A 
ATOM     28  C   UNL     1      46.245   3.852   7.612  0.00  0.00    +0.000 A 
ATOM     29  C   UNL     1      47.403   3.541   6.892  0.00  0.00    +0.000 A 
ATOM     30  C   UNL     1      47.833   2.218   6.790  0.00  0.00    +0.000 A 
ATOM     31  C   UNL     1      47.100   1.202   7.401  0.00  0.00    +0.000 A 
ATOM     32  C   UNL     1      45.951   1.519   8.120  0.00  0.00    +0.000 A 
ATOM     33  F   UNL     1      45.264   0.524   8.699  0.00  0.00    +0.000 F 
ENDBRANCH  26  27
ENDBRANCH  24  26
ENDBRANCH  23  24
ENDBRANCH   4  23
TORSDOF 8
ENDMDL
MODEL 4
REMARK VINA RESULT:    -7.220      1.673      2.157
REMARK INTER + INTRA:         -12.186
REMARK INTER:                 -11.024
REMARK INTRA:                  -1.161
REMARK UNBOUND:                -1.588
REMARK  Name = 
REMARK  10 active torsions:
REMARK  status: ('A' for Active; 'I' for Inactive)
REMARK    1  A    between atoms: C_1  and  O_2
REMARK    2  A    between atoms: O_2  and  C_3
REMARK    3  A    between atoms: C_10  and  C_11
REMARK    4  A    between atoms: N_13  and  C_14
REMARK    5  A    between atoms: C_14  and  C_15
REMARK    6  A    between atoms: C_18  and  C_19
REMARK    7  A    between atoms: C_19  and  N_20
REMARK    8  A    between atoms: N_20  and  C_21
REMARK    9  A    between atoms: N_20  and  C_22
REMARK   10  A    between atoms: C_22  and  C_23
REMARK                            x       y       z     vdW  Elec       q    Type
REMARK                         _______ _______ _______ _____ _____    ______ ____
ROOT
ATOM      1  C   UNL     1      46.428   7.482  12.734  0.00  0.00    +0.000 A 
ATOM      2  C   UNL     1      46.727   6.119  12.773  0.00  0.00    +0.000 A 
ATOM      3  C   UNL     1      45.931   5.218  12.069  0.00  0.00    +0.000 A 
ATOM      4  C   UNL     1      44.850   5.702  11.336  0.00  0.00    +0.000 A 
ATOM      5  N   UNL     1      44.576   7.027  11.238  0.00  0.00    +0.000 NA
ATOM      6  C   UNL     1      45.369   7.879  11.926  0.00  0.00    +0.000 A 
ENDROOT
BRANCH   1   7
ATOM      7  C   UNL     1      47.233   8.489  13.503  0.00  0.00    +0.000 C 
BRANCH   7  10
ATOM      8  C   UNL     1      48.801   8.094  15.357  0.00  0.00    +0.000 C 
ATOM      9  O   UNL     1      48.150   8.812  16.110  0.00  0.00    +0.000 OA
ATOM     10  N   UNL     1      48.418   7.893  14.059  0.00  0.00    +0.000 N 
ATOM     11  H   UNL     1      49.006   7.356  13.439  0.00  0.00    +0.000 HD
BRANCH   8  19
ATOM     12  C   UNL     1      49.364   5.212  17.154  0.00  0.00    +0.000 A 
ATOM     13  N   UNL     1      49.858   4.166  17.844  0.00  0.00    +0.000 NA
ATOM     14  C   UNL     1      51.184   4.073  17.977  0.00  0.00    +0.000 A 
ATOM     15  N   UNL     1      52.096   4.911  17.497  0.00  0.00    +0.000 NA
ATOM     16  C   UNL     1      51.562   5.935  16.812  0.00  0.00    +0.000 A 
ATOM     17  S   UNL     1      52.580   7.105  16.121  0.00  0.00    +0.000 S 
ATOM     18  C   UNL     1      51.254   7.972  15.508  0.00  0.00    +0.000 A 
ATOM     19  C   UNL     1      50.024   7.405  15.811  0.00  0.00    +0.000 A 
ATOM     20  C   UNL     1      50.208   6.177  16.585  0.00  0.00    +0.000 A 
BRANCH  12  22
ATOM     21  C   UNL     1      47.496   4.336  16.045  0.00  0.00    +0.000 C 
ATOM     22  O   UNL     1      47.995   5.279  16.985  0.00  0.00    +0.000 OA
ENDBRANCH  12  22
ENDBRANCH   8  19
ENDBRANCH   7  10
ENDBRANCH   1   7
BRANCH   4  23
ATOM     23  C   UNL     1      43.882   4.734  10.673  0.00  0.00    +0.000 C 
BRANCH  23  24
ATOM     24  N   UNL     1      44.368   3.329  10.645  0.00  0.00    +0.000 NA
ATOM     25  C   UNL     1      43.662   2.529  11.659  0.00  0.00    +0.000 C 
BRANCH  24  26
ATOM     26  C   UNL     1      44.132   2.722   9.319  0.00  0.00    +0.000 C 
BRANCH  26  27
ATOM     27  C   UNL     1      45.383   2.519   8.498  0.00  0.00    +0.000 A 
ATOM     28  C   UNL     1      45.943   1.247   8.319  0.00  0.00    +0.000 A 
ATOM     29  C   UNL     1      47.075   1.077   7.514  0.00  0.00    +0.000 A 
ATOM     30  C   UNL     1      47.660   2.176   6.885  0.00  0.00    +0.000 A 
ATOM     31  C   UNL     1      47.120   3.448   7.068  0.00  0.00    +0.000 A 
ATOM     32  C   UNL     1      45.992   3.609   7.867  0.00  0.00    +0.000 A 
ATOM     33  F   UNL     1      45.491   4.842   8.026  0.00  0.00    +0.000 F 
ENDBRANCH  26  27
ENDBRANCH  24  26
ENDBRANCH  23  24
ENDBRANCH   4  23
TORSDOF 8
ENDMDL
MODEL 5
REMARK VINA RESULT:    -7.038      3.123      5.472
REMARK INTER + INTRA:         -11.918
REMARK INTER:                 -10.313
REMARK INTRA:                  -1.606
REMARK UNBOUND:                -1.588
REMARK  Name = 
REMARK  10 active torsions:
REMARK  status: ('A' for Active; 'I' for Inactive)
REMARK    1  A    between atoms: C_1  and  O_2
REMARK    2  A    between atoms: O_2  and  C_3
REMARK    3  A    between atoms: C_10  and  C_11
REMARK    4  A    between atoms: N_13  and  C_14
REMARK    5  A    between atoms: C_14  and  C_15
REMARK    6  A    between atoms: C_18  and  C_19
REMARK    7  A    between atoms: C_19  and  N_20
REMARK    8  A    between atoms: N_20  and  C_21
REMARK    9  A    between atoms: N_20  and  C_22
REMARK   10  A    between atoms: C_22  and  C_23
REMARK                            x       y       z     vdW  Elec       q    Type
REMARK                         _______ _______ _______ _____ _____    ______ ____
ROOT
ATOM      1  C   UNL     1      47.698   4.151  16.121  0.00  0.00    +0.000 A 
ATOM      2  C   UNL     1      47.040   3.679  14.983  0.00  0.00    +0.000 A 
ATOM      3  C   UNL     1      46.928   4.497  13.861  0.00  0.00    +0.000 A 
ATOM      4  C   UNL     1      47.480   5.774  13.899  0.00  0.00    +0.000 A 
ATOM      5  N   UNL     1      48.173   6.232  14.973  0.00  0.00    +0.000 NA
ATOM      6  C   UNL     1      48.272   5.415  16.045  0.00  0.00    +0.000 A 
ENDROOT
BRANCH   1   7
ATOM      7  C   UNL     1      47.814   3.322  17.366  0.00  0.00    +0.000 C 
BRANCH   7  10
ATOM      8  C   UNL     1      50.006   2.257  17.029  0.00  0.00    +0.000 C 
ATOM      9  O   UNL     1      49.589   1.617  16.068  0.00  0.00    +0.000 OA
ATOM     10  N   UNL     1      49.192   3.110  17.723  0.00  0.00    +0.000 N 
ATOM     11  H   UNL     1      49.537   3.572  18.551  0.00  0.00    +0.000 HD
BRANCH   8  19
ATOM     12  C   UNL     1      52.380   4.572  17.955  0.00  0.00    +0.000 A 
ATOM     13  N   UNL     1      53.482   5.249  18.332  0.00  0.00    +0.000 NA
ATOM     14  C   UNL     1      54.585   4.548  18.610  0.00  0.00    +0.000 A 
ATOM     15  N   UNL     1      54.728   3.228  18.557  0.00  0.00    +0.000 NA
ATOM     16  C   UNL     1      53.606   2.592  18.183  0.00  0.00    +0.000 A 
ATOM     17  S   UNL     1      53.601   0.898  18.065  0.00  0.00    +0.000 S 
ATOM     18  C   UNL     1      51.976   0.885  17.571  0.00  0.00    +0.000 A 
ATOM     19  C   UNL     1      51.406   2.148  17.483  0.00  0.00    +0.000 A 
ATOM     20  C   UNL     1      52.381   3.172  17.859  0.00  0.00    +0.000 A 
BRANCH  12  22
ATOM     21  C   UNL     1      50.849   6.130  18.799  0.00  0.00    +0.000 C 
ATOM     22  O   UNL     1      51.233   5.299  17.711  0.00  0.00    +0.000 OA
ENDBRANCH  12  22
ENDBRANCH   8  19
ENDBRANCH   7  10
ENDBRANCH   1   7
BRANCH   4  23
ATOM     23  C   UNL     1      47.254   6.740  12.747  0.00  0.00    +0.000 C 
BRANCH  23  24
ATOM     24  N   UNL     1      45.932   7.420  12.789  0.00  0.00    +0.000 NA
ATOM     25  C   UNL     1      46.114   8.872  12.944  0.00  0.00    +0.000 C 
BRANCH  24  26
ATOM     26  C   UNL     1      45.178   7.172  11.542  0.00  0.00    +0.000 C 
BRANCH  26  27
ATOM     27  C   UNL     1      44.676   5.755  11.392  0.00  0.00    +0.000 A 
ATOM     28  C   UNL     1      43.753   5.207  12.293  0.00  0.00    +0.000 A 
ATOM     29  C   UNL     1      43.265   3.909  12.105  0.00  0.00    +0.000 A 
ATOM     30  C   UNL     1      43.698   3.146  11.021  0.00  0.00    +0.000 A 
ATOM     31  C   UNL     1      44.627   3.675  10.127  0.00  0.00    +0.000 A 
ATOM     32  C   UNL     1      45.105   4.969  10.317  0.00  0.00    +0.000 A 
ATOM     33  F   UNL     1      45.996   5.457   9.443  0.00  0.00    +0.000 F 
ENDBRANCH  26  27
ENDBRANCH  24  26
ENDBRANCH  23  24
ENDBRANCH   4  23
TORSDOF 8
ENDMDL
MODEL 6
REMARK VINA RESULT:    -6.746      1.667      1.977
REMARK INTER + INTRA:         -11.489
REMARK INTER:                 -10.238
REMARK INTRA:                  -1.251
REMARK UNBOUND:                -1.588
REMARK  Name = 
REMARK  10 active torsions:
REMARK  status: ('A' for Active; 'I' for Inactive)
REMARK    1  A    between atoms: C_1  and  O_2
REMARK    2  A    between atoms: O_2  and  C_3
REMARK    3  A    between atoms: C_10  and  C_11
REMARK    4  A    between atoms: N_13  and  C_14
REMARK    5  A    between atoms: C_14  and  C_15
REMARK    6  A    between atoms: C_18  and  C_19
REMARK    7  A    between atoms: C_19  and  N_20
REMARK    8  A    between atoms: N_20  and  C_21
REMARK    9  A    between atoms: N_20  and  C_22
REMARK   10  A    between atoms: C_22  and  C_23
REMARK                            x       y       z     vdW  Elec       q    Type
REMARK                         _______ _______ _______ _____ _____    ______ ____
ROOT
ATOM      1  C   UNL     1      46.282   8.122  12.452  0.00  0.00    +0.000 A 
ATOM      2  C   UNL     1      46.585   6.797  12.769  0.00  0.00    +0.000 A 
ATOM      3  C   UNL     1      45.712   5.780  12.391  0.00  0.00    +0.000 A 
ATOM      4  C   UNL     1      44.550   6.111  11.698  0.00  0.00    +0.000 A 
ATOM      5  N   UNL     1      44.264   7.385  11.330  0.00  0.00    +0.000 NA
ATOM      6  C   UNL     1      45.133   8.351  11.705  0.00  0.00    +0.000 A 
ENDROOT
BRANCH   1   7
ATOM      7  C   UNL     1      47.173   9.257  12.867  0.00  0.00    +0.000 C 
BRANCH   7  10
ATOM      8  C   UNL     1      48.914   8.755  14.531  0.00  0.00    +0.000 C 
ATOM      9  O   UNL     1      49.749   8.558  13.653  0.00  0.00    +0.000 OA
ATOM     10  N   UNL     1      47.625   9.094  14.223  0.00  0.00    +0.000 N 
ATOM     11  H   UNL     1      46.939   9.182  14.958  0.00  0.00    +0.000 HD
BRANCH   8  19
ATOM     12  C   UNL     1      48.802   6.164  16.795  0.00  0.00    +0.000 A 
ATOM     13  N   UNL     1      48.834   5.352  17.870  0.00  0.00    +0.000 NA
ATOM     14  C   UNL     1      49.235   5.869  19.034  0.00  0.00    +0.000 A 
ATOM     15  N   UNL     1      49.616   7.121  19.265  0.00  0.00    +0.000 NA
ATOM     16  C   UNL     1      49.575   7.894  18.167  0.00  0.00    +0.000 A 
ATOM     17  S   UNL     1      50.033   9.526  18.272  0.00  0.00    +0.000 S 
ATOM     18  C   UNL     1      49.713   9.775  16.623  0.00  0.00    +0.000 A 
ATOM     19  C   UNL     1      49.256   8.643  15.962  0.00  0.00    +0.000 A 
ATOM     20  C   UNL     1      49.182   7.512  16.886  0.00  0.00    +0.000 A 
BRANCH  12  22
ATOM     21  C   UNL     1      47.492   4.548  15.717  0.00  0.00    +0.000 C 
ATOM     22  O   UNL     1      48.427   5.612  15.586  0.00  0.00    +0.000 OA
ENDBRANCH  12  22
ENDBRANCH   8  19
ENDBRANCH   7  10
ENDBRANCH   1   7
BRANCH   4  23
ATOM     23  C   UNL     1      43.510   5.043  11.395  0.00  0.00    +0.000 C 
BRANCH  23  24
ATOM     24  N   UNL     1      44.086   3.789  10.842  0.00  0.00    +0.000 NA
ATOM     25  C   UNL     1      43.462   2.620  11.481  0.00  0.00    +0.000 C 
BRANCH  24  26
ATOM     26  C   UNL     1      43.855   3.707   9.385  0.00  0.00    +0.000 C 
BRANCH  26  27
ATOM     27  C   UNL     1      45.074   3.315   8.584  0.00  0.00    +0.000 A 
ATOM     28  C   UNL     1      45.910   4.279   8.004  0.00  0.00    +0.000 A 
ATOM     29  C   UNL     1      47.060   3.893   7.307  0.00  0.00    +0.000 A 
ATOM     30  C   UNL     1      47.383   2.542   7.180  0.00  0.00    +0.000 A 
ATOM     31  C   UNL     1      46.552   1.574   7.739  0.00  0.00    +0.000 A 
ATOM     32  C   UNL     1      45.411   1.965   8.434  0.00  0.00    +0.000 A 
ATOM     33  F   UNL     1      44.628   1.016   8.965  0.00  0.00    +0.000 F 
ENDBRANCH  26  27
ENDBRANCH  24  26
ENDBRANCH  23  24
ENDBRANCH   4  23
TORSDOF 8
ENDMDL
MODEL 7
REMARK VINA RESULT:    -6.334      3.902      9.071
REMARK INTER + INTRA:         -10.885
REMARK INTER:                  -9.131
REMARK INTRA:                  -1.754
REMARK UNBOUND:                -1.588
REMARK  Name = 
REMARK  10 active torsions:
REMARK  status: ('A' for Active; 'I' for Inactive)
REMARK    1  A    between atoms: C_1  and  O_2
REMARK    2  A    between atoms: O_2  and  C_3
REMARK    3  A    between atoms: C_10  and  C_11
REMARK    4  A    between atoms: N_13  and  C_14
REMARK    5  A    between atoms: C_14  and  C_15
REMARK    6  A    between atoms: C_18  and  C_19
REMARK    7  A    between atoms: C_19  and  N_20
REMARK    8  A    between atoms: N_20  and  C_21
REMARK    9  A    between atoms: N_20  and  C_22
REMARK   10  A    between atoms: C_22  and  C_23
REMARK                            x       y       z     vdW  Elec       q    Type
REMARK                         _______ _______ _______ _____ _____    ______ ____
ROOT
ATOM      1  C   UNL     1      48.501   3.830  17.536  0.00  0.00    +0.000 A 
ATOM      2  C   UNL     1      49.833   3.452  17.350  0.00  0.00    +0.000 A 
ATOM      3  C   UNL     1      50.816   3.950  18.202  0.00  0.00    +0.000 A 
ATOM      4  C   UNL     1      50.445   4.817  19.227  0.00  0.00    +0.000 A 
ATOM      5  N   UNL     1      49.151   5.152  19.460  0.00  0.00    +0.000 NA
ATOM      6  C   UNL     1      48.217   4.649  18.622  0.00  0.00    +0.000 A 
ENDROOT
BRANCH   1   7
ATOM      7  C   UNL     1      47.410   3.349  16.624  0.00  0.00    +0.000 C 
BRANCH   7  10
ATOM      8  C   UNL     1      46.879   4.224  14.388  0.00  0.00    +0.000 C 
ATOM      9  O   UNL     1      47.187   3.161  13.857  0.00  0.00    +0.000 OA
ATOM     10  N   UNL     1      46.969   4.396  15.742  0.00  0.00    +0.000 N 
ATOM     11  H   UNL     1      46.778   5.300  16.148  0.00  0.00    +0.000 HD
BRANCH   8  19
ATOM     12  C   UNL     1      43.999   4.801  12.592  0.00  0.00    +0.000 A 
ATOM     13  N   UNL     1      43.004   5.269  11.814  0.00  0.00    +0.000 NA
ATOM     14  C   UNL     1      43.146   6.485  11.278  0.00  0.00    +0.000 A 
ATOM     15  N   UNL     1      44.179   7.308  11.426  0.00  0.00    +0.000 NA
ATOM     16  C   UNL     1      45.145   6.805  12.212  0.00  0.00    +0.000 A 
ATOM     17  S   UNL     1      46.541   7.721  12.517  0.00  0.00    +0.000 S 
ATOM     18  C   UNL     1      47.200   6.491  13.485  0.00  0.00    +0.000 A 
ATOM     19  C   UNL     1      46.389   5.370  13.597  0.00  0.00    +0.000 A 
ATOM     20  C   UNL     1      45.151   5.561  12.841  0.00  0.00    +0.000 A 
BRANCH  12  22
ATOM     21  C   UNL     1      43.487   2.541  12.245  0.00  0.00    +0.000 C 
ATOM     22  O   UNL     1      43.827   3.561  13.176  0.00  0.00    +0.000 OA
ENDBRANCH  12  22
ENDBRANCH   8  19
ENDBRANCH   7  10
ENDBRANCH   1   7
BRANCH   4  23
ATOM     23  C   UNL     1      51.509   5.487  20.084  0.00  0.00    +0.000 C 
BRANCH  23  24
ATOM     24  N   UNL     1      51.481   6.972  20.015  0.00  0.00    +0.000 NA
ATOM     25  C   UNL     1      52.574   7.537  20.823  0.00  0.00    +0.000 C 
BRANCH  24  26
ATOM     26  C   UNL     1      51.642   7.433  18.621  0.00  0.00    +0.000 C 
BRANCH  26  27
ATOM     27  C   UNL     1      50.418   8.107  18.045  0.00  0.00    +0.000 A 
ATOM     28  C   UNL     1      49.830   9.214  18.672  0.00  0.00    +0.000 A 
ATOM     29  C   UNL     1      48.727   9.852  18.094  0.00  0.00    +0.000 A 
ATOM     30  C   UNL     1      48.198   9.387  16.890  0.00  0.00    +0.000 A 
ATOM     31  C   UNL     1      48.766   8.278  16.266  0.00  0.00    +0.000 A 
ATOM     32  C   UNL     1      49.866   7.651  16.844  0.00  0.00    +0.000 A 
ATOM     33  F   UNL     1      50.395   6.587  16.224  0.00  0.00    +0.000 F 
ENDBRANCH  26  27
ENDBRANCH  24  26
ENDBRANCH  23  24
ENDBRANCH   4  23
TORSDOF 8
ENDMDL
MODEL 8
REMARK VINA RESULT:    -6.287      3.265      4.471
REMARK INTER + INTRA:         -10.816
REMARK INTER:                  -9.396
REMARK INTRA:                  -1.420
REMARK UNBOUND:                -1.588
REMARK  Name = 
REMARK  10 active torsions:
REMARK  status: ('A' for Active; 'I' for Inactive)
REMARK    1  A    between atoms: C_1  and  O_2
REMARK    2  A    between atoms: O_2  and  C_3
REMARK    3  A    between atoms: C_10  and  C_11
REMARK    4  A    between atoms: N_13  and  C_14
REMARK    5  A    between atoms: C_14  and  C_15
REMARK    6  A    between atoms: C_18  and  C_19
REMARK    7  A    between atoms: C_19  and  N_20
REMARK    8  A    between atoms: N_20  and  C_21
REMARK    9  A    between atoms: N_20  and  C_22
REMARK   10  A    between atoms: C_22  and  C_23
REMARK                            x       y       z     vdW  Elec       q    Type
REMARK                         _______ _______ _______ _____ _____    ______ ____
ROOT
ATOM      1  C   UNL     1      46.333   7.901  12.321  0.00  0.00    +0.000 A 
ATOM      2  C   UNL     1      46.827   6.698  12.829  0.00  0.00    +0.000 A 
ATOM      3  C   UNL     1      46.026   5.559  12.808  0.00  0.00    +0.000 A 
ATOM      4  C   UNL     1      44.742   5.646  12.276  0.00  0.00    +0.000 A 
ATOM      5  N   UNL     1      44.263   6.790  11.726  0.00  0.00    +0.000 NA
ATOM      6  C   UNL     1      45.064   7.879  11.754  0.00  0.00    +0.000 A 
ENDROOT
BRANCH   1   7
ATOM      7  C   UNL     1      47.143   9.164  12.353  0.00  0.00    +0.000 C 
BRANCH   7  10
ATOM      8  C   UNL     1      49.464   9.620  11.678  0.00  0.00    +0.000 C 
ATOM      9  O   UNL     1      49.114  10.567  10.979  0.00  0.00    +0.000 OA
ATOM     10  N   UNL     1      48.552   8.878  12.377  0.00  0.00    +0.000 N 
ATOM     11  H   UNL     1      48.855   8.062  12.888  0.00  0.00    +0.000 HD
BRANCH   8  19
ATOM     12  C   UNL     1      51.336   8.311  14.253  0.00  0.00    +0.000 A 
ATOM     13  N   UNL     1      52.287   7.836  15.080  0.00  0.00    +0.000 NA
ATOM     14  C   UNL     1      53.534   7.736  14.610  0.00  0.00    +0.000 A 
ATOM     15  N   UNL     1      53.957   8.059  13.393  0.00  0.00    +0.000 NA
ATOM     16  C   UNL     1      52.978   8.523  12.600  0.00  0.00    +0.000 A 
ATOM     17  S   UNL     1      53.335   8.981  11.005  0.00  0.00    +0.000 S 
ATOM     18  C   UNL     1      51.720   9.422  10.715  0.00  0.00    +0.000 A 
ATOM     19  C   UNL     1      50.883   9.237  11.807  0.00  0.00    +0.000 A 
ATOM     20  C   UNL     1      51.635   8.689  12.936  0.00  0.00    +0.000 A 
BRANCH  12  22
ATOM     21  C   UNL     1      49.610   7.162  15.344  0.00  0.00    +0.000 C 
ATOM     22  O   UNL     1      50.042   8.372  14.732  0.00  0.00    +0.000 OA
ENDBRANCH  12  22
ENDBRANCH   8  19
ENDBRANCH   7  10
ENDBRANCH   1   7
BRANCH   4  23
ATOM     23  C   UNL     1      43.795   4.460  12.366  0.00  0.00    +0.000 C 
BRANCH  23  24
ATOM     24  N   UNL     1      44.182   3.319  11.493  0.00  0.00    +0.000 NA
ATOM     25  C   UNL     1      43.412   2.119  11.856  0.00  0.00    +0.000 C 
BRANCH  24  26
ATOM     26  C   UNL     1      43.919   3.635  10.074  0.00  0.00    +0.000 C 
BRANCH  26  27
ATOM     27  C   UNL     1      45.025   3.225   9.131  0.00  0.00    +0.000 A 
ATOM     28  C   UNL     1      45.269   1.877   8.832  0.00  0.00    +0.000 A 
ATOM     29  C   UNL     1      46.267   1.524   7.918  0.00  0.00    +0.000 A 
ATOM     30  C   UNL     1      47.034   2.511   7.299  0.00  0.00    +0.000 A 
ATOM     31  C   UNL     1      46.810   3.853   7.600  0.00  0.00    +0.000 A 
ATOM     32  C   UNL     1      45.812   4.198   8.507  0.00  0.00    +0.000 A 
ATOM     33  F   UNL     1      45.615   5.496   8.779  0.00  0.00    +0.000 F 
ENDBRANCH  26  27
ENDBRANCH  24  26
ENDBRANCH  23  24
ENDBRANCH   4  23
TORSDOF 8
ENDMDL
