MODEL 1
REMARK VINA RESULT:    -8.162      0.000      0.000
REMARK INTER + INTRA:         -12.797
REMARK INTER:                 -11.502
REMARK INTRA:                  -1.295
REMARK UNBOUND:                -1.295
REMARK  Name = 
REMARK  9 active torsions:
REMARK  status: ('A' for Active; 'I' for Inactive)
REMARK    1  A    between atoms: C_1  and  O_2
REMARK    2  A    between atoms: O_2  and  C_3
REMARK    3  A    between atoms: C_5  and  C_6
REMARK    4  A    between atoms: C_6  and  O_7
REMARK    5  A    between atoms: O_7  and  C_8
REMARK    6  A    between atoms: C_11  and  C_12
REMARK    7  A    between atoms: C_12  and  N_13
REMARK    8  A    between atoms: C_14  and  C_16
REMARK    9  A    between atoms: C_27  and  C_28
REMARK                            x       y       z     vdW  Elec       q    Type
REMARK                         _______ _______ _______ _____ _____    ______ ____
ROOT
ATOM      1  C   UNL     1      45.028   4.640  10.504  0.00  0.00    +0.000 A 
ATOM      2  N   UNL     1      45.859   5.576   9.990  0.00  0.00    +0.000 NA
ATOM      3  C   UNL     1      46.303   6.534  10.830  0.00  0.00    +0.000 A 
ATOM      4  C   UNL     1      45.963   6.608  12.173  0.00  0.00    +0.000 A 
ATOM      5  C   UNL     1      45.052   5.667  12.657  0.00  0.00    +0.000 A 
ATOM      6  C   UNL     1      44.575   4.649  11.821  0.00  0.00    +0.000 A 
ATOM      7  C   UNL     1      43.618   3.625  12.349  0.00  0.00    +0.000 C 
ENDROOT
BRANCH   1   8
ATOM      8  O   UNL     1      44.596   3.635   9.662  0.00  0.00    +0.000 OA
BRANCH   8   9
ATOM      9  C   UNL     1      44.870   3.965   8.294  0.00  0.00    +0.000 C 
BRANCH   9  12
ATOM     10  C   UNL     1      46.809   0.862   7.567  0.00  0.00    +0.000 A 
ATOM     11  C   UNL     1      45.923   1.695   8.204  0.00  0.00    +0.000 A 
ATOM     12  C   UNL     1      45.846   2.977   7.702  0.00  0.00    +0.000 A 
ATOM     13  N   UNL     1      46.601   3.384   6.655  0.00  0.00    +0.000 NA
ATOM     14  C   UNL     1      47.448   2.497   6.130  0.00  0.00    +0.000 A 
ATOM     15  N   UNL     1      48.227   2.905   5.069  0.00  0.00    +0.000 N 
ATOM     16  N   UNL     1      47.568   1.230   6.523  0.00  0.00    +0.000 NA
ATOM     17  H   UNL     1      47.784   3.679   4.594  0.00  0.00    +0.000 HD
ATOM     18  H   UNL     1      48.500   2.107   4.514  0.00  0.00    +0.000 HD
BRANCH  10  20
ATOM     19  C   UNL     1      46.493  -1.410   7.105  0.00  0.00    +0.000 C 
ATOM     20  O   UNL     1      46.895  -0.428   8.057  0.00  0.00    +0.000 OA
ENDBRANCH  10  20
ENDBRANCH   9  12
ENDBRANCH   8   9
ENDBRANCH   1   8
BRANCH   4  21
ATOM     21  C   UNL     1      46.558   7.658  13.059  0.00  0.00    +0.000 C 
BRANCH  21  22
ATOM     22  N   UNL     1      47.123   7.093  14.256  0.00  0.00    +0.000 N 
ATOM     23  C   UNL     1      48.416   6.650  14.315  0.00  0.00    +0.000 C 
ATOM     24  O   UNL     1      49.165   6.694  13.342  0.00  0.00    +0.000 OA
ATOM     25  H   UNL     1      46.489   6.905  15.026  0.00  0.00    +0.000 HD
BRANCH  23  26
ATOM     26  C   UNL     1      48.891   6.176  15.622  0.00  0.00    +0.000 A 
ATOM     27  C   UNL     1      49.932   6.849  16.249  0.00  0.00    +0.000 A 
ATOM     28  S   UNL     1      50.358   6.196  17.763  0.00  0.00    +0.000 S 
ATOM     29  C   UNL     1      49.195   4.963  17.618  0.00  0.00    +0.000 A 
ATOM     30  N   UNL     1      49.060   4.017  18.585  0.00  0.00    +0.000 NA
ATOM     31  C   UNL     1      48.168   3.120  18.336  0.00  0.00    +0.000 A 
ATOM     32  N   UNL     1      47.383   3.090  17.210  0.00  0.00    +0.000 N 
ATOM     33  C   UNL     1      47.438   4.065  16.237  0.00  0.00    +0.000 A 
ATOM     34  O   UNL     1      46.640   4.081  15.305  0.00  0.00    +0.000 OA
ATOM     35  C   UNL     1      48.465   5.066  16.445  0.00  0.00    +0.000 A 
ATOM     36  H   UNL     1      46.678   2.378  17.091  0.00  0.00    +0.000 HD
ENDBRANCH  23  26
ENDBRANCH  21  22
ENDBRANCH   4  21
TORSDOF 7
ENDMDL
MODEL 2
REMARK VINA RESULT:    -7.348      3.094      5.308
REMARK INTER + INTRA:         -11.649
REMARK INTER:                 -10.925
REMARK INTRA:                  -0.724
REMARK UNBOUND:                -1.295
REMARK  Name = 
REMARK  9 active torsions:
REMARK  status: ('A' for Active; 'I' for Inactive)
REMARK    1  A    between atoms: C_1  and  O_2
REMARK    2  A    between atoms: O_2  and  C_3
REMARK    3  A    between atoms: C_5  and  C_6
REMARK    4  A    between atoms: C_6  and  O_7
REMARK    5  A    between atoms: O_7  and  C_8
REMARK    6  A    between atoms: C_11  and  C_12
REMARK    7  A    between atoms: C_12  and  N_13
REMARK    8  A    between atoms: C_14  and  C_16
REMARK    9  A    between atoms: C_27  and  C_28
REMARK                            x       y       z     vdW  Elec       q    Type
REMARK                         _______ _______ _______ _____ _____    ______ ____
ROOT
ATOM      1  C   UNL     1      47.443   5.589  13.528  0.00  0.00    +0.000 A 
ATOM      2  N   UNL     1      47.039   4.303  13.635  0.00  0.00    +0.000 NA
ATOM      3  C   UNL     1      47.211   3.700  14.829  0.00  0.00    +0.000 A 
ATOM      4  C   UNL     1      47.766   4.319  15.939  0.00  0.00    +0.000 A 
ATOM      5  C   UNL     1      48.233   5.625  15.778  0.00  0.00    +0.000 A 
ATOM      6  C   UNL     1      48.065   6.292  14.558  0.00  0.00    +0.000 A 
ATOM      7  C   UNL     1      48.544   7.701  14.395  0.00  0.00    +0.000 C 
ENDROOT
BRANCH   1   8
ATOM      8  O   UNL     1      47.240   6.227  12.320  0.00  0.00    +0.000 OA
BRANCH   8   9
ATOM      9  C   UNL     1      45.840   6.395  12.063  0.00  0.00    +0.000 C 
BRANCH   9  12
ATOM     10  C   UNL     1      45.212   4.315   9.029  0.00  0.00    +0.000 A 
ATOM     11  C   UNL     1      45.670   5.365   9.787  0.00  0.00    +0.000 A 
ATOM     12  C   UNL     1      45.347   5.318  11.125  0.00  0.00    +0.000 A 
ATOM     13  N   UNL     1      44.620   4.306  11.653  0.00  0.00    +0.000 NA
ATOM     14  C   UNL     1      44.204   3.351  10.818  0.00  0.00    +0.000 A 
ATOM     15  N   UNL     1      43.455   2.321  11.344  0.00  0.00    +0.000 N 
ATOM     16  N   UNL     1      44.494   3.293   9.520  0.00  0.00    +0.000 NA
ATOM     17  H   UNL     1      43.648   2.225  12.331  0.00  0.00    +0.000 HD
ATOM     18  H   UNL     1      43.545   1.498  10.765  0.00  0.00    +0.000 HD
BRANCH  10  20
ATOM     19  C   UNL     1      46.658   3.534   7.363  0.00  0.00    +0.000 C 
ATOM     20  O   UNL     1      45.531   4.347   7.684  0.00  0.00    +0.000 OA
ENDBRANCH  10  20
ENDBRANCH   9  12
ENDBRANCH   8   9
ENDBRANCH   1   8
BRANCH   4  21
ATOM     21  C   UNL     1      47.853   3.607  17.253  0.00  0.00    +0.000 C 
BRANCH  21  22
ATOM     22  N   UNL     1      49.215   3.341  17.632  0.00  0.00    +0.000 N 
ATOM     23  C   UNL     1      49.959   2.357  17.039  0.00  0.00    +0.000 C 
ATOM     24  O   UNL     1      49.500   1.633  16.160  0.00  0.00    +0.000 OA
ATOM     25  H   UNL     1      49.571   3.819  18.453  0.00  0.00    +0.000 HD
BRANCH  23  26
ATOM     26  C   UNL     1      51.362   2.250  17.460  0.00  0.00    +0.000 A 
ATOM     27  C   UNL     1      51.914   0.992  17.664  0.00  0.00    +0.000 A 
ATOM     28  S   UNL     1      53.553   1.028  18.129  0.00  0.00    +0.000 S 
ATOM     29  C   UNL     1      53.574   2.729  18.116  0.00  0.00    +0.000 A 
ATOM     30  N   UNL     1      54.697   3.413  18.463  0.00  0.00    +0.000 NA
ATOM     31  C   UNL     1      54.569   4.696  18.445  0.00  0.00    +0.000 A 
ATOM     32  N   UNL     1      53.420   5.362  18.096  0.00  0.00    +0.000 N 
ATOM     33  C   UNL     1      52.280   4.712  17.673  0.00  0.00    +0.000 A 
ATOM     34  O   UNL     1      51.312   5.334  17.249  0.00  0.00    +0.000 OA
ATOM     35  C   UNL     1      52.357   3.265  17.728  0.00  0.00    +0.000 A 
ATOM     36  H   UNL     1      53.395   6.371  18.070  0.00  0.00    +0.000 HD
ENDBRANCH  23  26
ENDBRANCH  21  22
ENDBRANCH   4  21
TORSDOF 7
ENDMDL
MODEL 3
REMARK VINA RESULT:    -7.345      3.050      5.174
REMARK INTER + INTRA:         -11.646
REMARK INTER:                 -10.457
REMARK INTRA:                  -1.189
REMARK UNBOUND:                -1.295
REMARK  Name = 
REMARK  9 active torsions:
REMARK  status: ('A' for Active; 'I' for Inactive)
REMARK    1  A    between atoms: C_1  and  O_2
REMARK    2  A    between atoms: O_2  and  C_3
REMARK    3  A    between atoms: C_5  and  C_6
REMARK    4  A    between atoms: C_6  and  O_7
REMARK    5  A    between atoms: O_7  and  C_8
REMARK    6  A    between atoms: C_11  and  C_12
REMARK    7  A    between atoms: C_12  and  N_13
REMARK    8  A    between atoms: C_14  and  C_16
REMARK    9  A    between atoms: C_27  and  C_28
REMARK                            x       y       z     vdW  Elec       q    Type
REMARK                         _______ _______ _______ _____ _____    ______ ____
ROOT
ATOM      1  C   UNL     1      47.722   6.199  13.755  0.00  0.00    +0.000 A 
ATOM      2  N   UNL     1      47.462   5.119  14.527  0.00  0.00    +0.000 NA
ATOM      3  C   UNL     1      47.903   5.153  15.802  0.00  0.00    +0.000 A 
ATOM      4  C   UNL     1      48.593   6.221  16.357  0.00  0.00    +0.000 A 
ATOM      5  C   UNL     1      48.902   7.292  15.516  0.00  0.00    +0.000 A 
ATOM      6  C   UNL     1      48.454   7.301  14.189  0.00  0.00    +0.000 A 
ATOM      7  C   UNL     1      48.766   8.463  13.296  0.00  0.00    +0.000 C 
ENDROOT
BRANCH   1   8
ATOM      8  O   UNL     1      47.245   6.190  12.459  0.00  0.00    +0.000 OA
BRANCH   8   9
ATOM      9  C   UNL     1      45.812   6.237  12.444  0.00  0.00    +0.000 C 
BRANCH   9  12
ATOM     10  C   UNL     1      45.011   4.299   9.359  0.00  0.00    +0.000 A 
ATOM     11  C   UNL     1      45.514   5.312  10.137  0.00  0.00    +0.000 A 
ATOM     12  C   UNL     1      45.264   5.205  11.488  0.00  0.00    +0.000 A 
ATOM     13  N   UNL     1      44.560   4.172  12.008  0.00  0.00    +0.000 NA
ATOM     14  C   UNL     1      44.095   3.257  11.155  0.00  0.00    +0.000 A 
ATOM     15  N   UNL     1      43.370   2.207  11.675  0.00  0.00    +0.000 N 
ATOM     16  N   UNL     1      44.315   3.257   9.841  0.00  0.00    +0.000 NA
ATOM     17  H   UNL     1      43.616   2.066  12.644  0.00  0.00    +0.000 HD
ATOM     18  H   UNL     1      43.425   1.411  11.055  0.00  0.00    +0.000 HD
BRANCH  10  20
ATOM     19  C   UNL     1      45.908   3.235   7.478  0.00  0.00    +0.000 C 
ATOM     20  O   UNL     1      45.256   4.390   8.001  0.00  0.00    +0.000 OA
ENDBRANCH  10  20
ENDBRANCH   9  12
ENDBRANCH   8   9
ENDBRANCH   1   8
BRANCH   4  21
ATOM     21  C   UNL     1      48.982   6.215  17.803  0.00  0.00    +0.000 C 
BRANCH  21  22
ATOM     22  N   UNL     1      49.983   5.222  18.086  0.00  0.00    +0.000 N 
ATOM     23  C   UNL     1      51.322   5.479  17.970  0.00  0.00    +0.000 C 
ATOM     24  O   UNL     1      51.745   6.572  17.599  0.00  0.00    +0.000 OA
ATOM     25  H   UNL     1      49.663   4.272  18.247  0.00  0.00    +0.000 HD
BRANCH  23  26
ATOM     26  C   UNL     1      52.237   4.404  18.374  0.00  0.00    +0.000 A 
ATOM     27  C   UNL     1      53.339   4.712  19.160  0.00  0.00    +0.000 A 
ATOM     28  S   UNL     1      54.295   3.360  19.563  0.00  0.00    +0.000 S 
ATOM     29  C   UNL     1      53.293   2.318  18.664  0.00  0.00    +0.000 A 
ATOM     30  N   UNL     1      53.581   0.993  18.565  0.00  0.00    +0.000 NA
ATOM     31  C   UNL     1      52.763   0.322  17.826  0.00  0.00    +0.000 A 
ATOM     32  N   UNL     1      51.670   0.855  17.187  0.00  0.00    +0.000 N 
ATOM     33  C   UNL     1      51.303   2.178  17.315  0.00  0.00    +0.000 A 
ATOM     34  O   UNL     1      50.255   2.596  16.836  0.00  0.00    +0.000 OA
ATOM     35  C   UNL     1      52.223   2.986  18.092  0.00  0.00    +0.000 A 
ATOM     36  H   UNL     1      51.050   0.268  16.651  0.00  0.00    +0.000 HD
ENDBRANCH  23  26
ENDBRANCH  21  22
ENDBRANCH   4  21
TORSDOF 7
ENDMDL
MODEL 4
REMARK VINA RESULT:    -7.041      4.480      8.557
REMARK INTER + INTRA:         -11.217
REMARK INTER:                  -9.806
REMARK INTRA:                  -1.411
REMARK UNBOUND:                -1.295
REMARK  Name = 
REMARK  9 active torsions:
REMARK  status: ('A' for Active; 'I' for Inactive)
REMARK    1  A    between atoms: C_1  and  O_2
REMARK    2  A    between atoms: O_2  and  C_3
REMARK    3  A    between atoms: C_5  and  C_6
REMARK    4  A    between atoms: C_6  and  O_7
REMARK    5  A    between atoms: O_7  and  C_8
REMARK    6  A    between atoms: C_11  and  C_12
REMARK    7  A    between atoms: C_12  and  N_13
REMARK    8  A    between atoms: C_14  and  C_16
REMARK    9  A    between atoms: C_27  and  C_28
REMARK                            x       y       z     vdW  Elec       q    Type
REMARK                         _______ _______ _______ _____ _____    ______ ____
ROOT
ATOM      1  C   UNL     1      50.419   6.414  18.493  0.00  0.00    +0.000 A 
ATOM      2  N   UNL     1      51.159   7.215  17.692  0.00  0.00    +0.000 NA
ATOM      3  C   UNL     1      50.495   8.113  16.935  0.00  0.00    +0.000 A 
ATOM      4  C   UNL     1      49.116   8.261  16.937  0.00  0.00    +0.000 A 
ATOM      5  C   UNL     1      48.377   7.377  17.724  0.00  0.00    +0.000 A 
ATOM      6  C   UNL     1      49.027   6.436  18.533  0.00  0.00    +0.000 A 
ATOM      7  C   UNL     1      48.232   5.505  19.396  0.00  0.00    +0.000 C 
ENDROOT
BRANCH   1   8
ATOM      8  O   UNL     1      51.091   5.516  19.298  0.00  0.00    +0.000 OA
BRANCH   8   9
ATOM      9  C   UNL     1      52.218   4.960  18.609  0.00  0.00    +0.000 C 
BRANCH   9  12
ATOM     10  C   UNL     1      50.595   2.019  16.986  0.00  0.00    +0.000 A 
ATOM     11  C   UNL     1      50.763   3.315  17.406  0.00  0.00    +0.000 A 
ATOM     12  C   UNL     1      51.906   3.560  18.136  0.00  0.00    +0.000 A 
ATOM     13  N   UNL     1      52.797   2.582  18.425  0.00  0.00    +0.000 NA
ATOM     14  C   UNL     1      52.518   1.352  17.988  0.00  0.00    +0.000 A 
ATOM     15  N   UNL     1      53.415   0.349  18.284  0.00  0.00    +0.000 N 
ATOM     16  N   UNL     1      51.459   1.027  17.249  0.00  0.00    +0.000 NA
ATOM     17  H   UNL     1      54.330   0.743  18.450  0.00  0.00    +0.000 HD
ATOM     18  H   UNL     1      53.339  -0.393  17.603  0.00  0.00    +0.000 HD
BRANCH  10  20
ATOM     19  C   UNL     1      48.347   2.567  16.638  0.00  0.00    +0.000 C 
ATOM     20  O   UNL     1      49.454   1.758  16.250  0.00  0.00    +0.000 OA
ENDBRANCH  10  20
ENDBRANCH   9  12
ENDBRANCH   8   9
ENDBRANCH   1   8
BRANCH   4  21
ATOM     21  C   UNL     1      48.459   9.334  16.125  0.00  0.00    +0.000 C 
BRANCH  21  22
ATOM     22  N   UNL     1      47.470   8.799  15.227  0.00  0.00    +0.000 N 
ATOM     23  C   UNL     1      47.792   8.328  13.983  0.00  0.00    +0.000 C 
ATOM     24  O   UNL     1      48.943   8.352  13.555  0.00  0.00    +0.000 OA
ATOM     25  H   UNL     1      46.496   8.905  15.491  0.00  0.00    +0.000 HD
BRANCH  23  26
ATOM     26  C   UNL     1      46.701   7.730  13.203  0.00  0.00    +0.000 A 
ATOM     27  C   UNL     1      45.908   8.547  12.408  0.00  0.00    +0.000 A 
ATOM     28  S   UNL     1      44.699   7.708  11.550  0.00  0.00    +0.000 S 
ATOM     29  C   UNL     1      45.164   6.225  12.243  0.00  0.00    +0.000 A 
ATOM     30  N   UNL     1      44.492   5.079  11.948  0.00  0.00    +0.000 NA
ATOM     31  C   UNL     1      44.922   4.032  12.567  0.00  0.00    +0.000 A 
ATOM     32  N   UNL     1      45.977   4.022  13.446  0.00  0.00    +0.000 N 
ATOM     33  C   UNL     1      46.728   5.145  13.721  0.00  0.00    +0.000 A 
ATOM     34  O   UNL     1      47.740   5.080  14.412  0.00  0.00    +0.000 OA
ATOM     35  C   UNL     1      46.250   6.360  13.092  0.00  0.00    +0.000 A 
ATOM     36  H   UNL     1      46.286   3.161  13.871  0.00  0.00    +0.000 HD
ENDBRANCH  23  26
ENDBRANCH  21  22
ENDBRANCH   4  21
TORSDOF 7
ENDMDL
MODEL 5
REMARK VINA RESULT:    -7.037      4.468      8.741
REMARK INTER + INTRA:         -11.211
REMARK INTER:                 -10.363
REMARK INTRA:                  -0.847
REMARK UNBOUND:                -1.295
REMARK  Name = 
REMARK  9 active torsions:
REMARK  status: ('A' for Active; 'I' for Inactive)
REMARK    1  A    between atoms: C_1  and  O_2
REMARK    2  A    between atoms: O_2  and  C_3
REMARK    3  A    between atoms: C_5  and  C_6
REMARK    4  A    between atoms: C_6  and  O_7
REMARK    5  A    between atoms: O_7  and  C_8
REMARK    6  A    between atoms: C_11  and  C_12
REMARK    7  A    between atoms: C_12  and  N_13
REMARK    8  A    between atoms: C_14  and  C_16
REMARK    9  A    between atoms: C_27  and  C_28
REMARK                            x       y       z     vdW  Elec       q    Type
REMARK                         _______ _______ _______ _____ _____    ______ ____
ROOT
ATOM      1  C   UNL     1      50.726   6.081  18.007  0.00  0.00    +0.000 A 
ATOM      2  N   UNL     1      51.370   6.530  16.905  0.00  0.00    +0.000 NA
ATOM      3  C   UNL     1      50.624   7.146  15.964  0.00  0.00    +0.000 A 
ATOM      4  C   UNL     1      49.255   7.345  16.065  0.00  0.00    +0.000 A 
ATOM      5  C   UNL     1      48.610   6.812  17.183  0.00  0.00    +0.000 A 
ATOM      6  C   UNL     1      49.348   6.175  18.189  0.00  0.00    +0.000 A 
ATOM      7  C   UNL     1      48.657   5.627  19.399  0.00  0.00    +0.000 C 
ENDROOT
BRANCH   1   8
ATOM      8  O   UNL     1      51.485   5.481  18.992  0.00  0.00    +0.000 OA
BRANCH   8   9
ATOM      9  C   UNL     1      52.557   4.722  18.417  0.00  0.00    +0.000 C 
BRANCH   9  12
ATOM     10  C   UNL     1      50.546   1.923  16.989  0.00  0.00    +0.000 A 
ATOM     11  C   UNL     1      50.874   3.207  17.349  0.00  0.00    +0.000 A 
ATOM     12  C   UNL     1      52.072   3.350  18.016  0.00  0.00    +0.000 A 
ATOM     13  N   UNL     1      52.864   2.291  18.304  0.00  0.00    +0.000 NA
ATOM     14  C   UNL     1      52.432   1.084  17.930  0.00  0.00    +0.000 A 
ATOM     15  N   UNL     1      53.229  -0.001  18.226  0.00  0.00    +0.000 N 
ATOM     16  N   UNL     1      51.310   0.852  17.252  0.00  0.00    +0.000 NA
ATOM     17  H   UNL     1      54.188   0.296  18.334  0.00  0.00    +0.000 HD
ATOM     18  H   UNL     1      53.040  -0.753  17.579  0.00  0.00    +0.000 HD
BRANCH  10  20
ATOM     19  C   UNL     1      48.406   2.790  16.612  0.00  0.00    +0.000 C 
ATOM     20  O   UNL     1      49.349   1.764  16.316  0.00  0.00    +0.000 OA
ENDBRANCH  10  20
ENDBRANCH   9  12
ENDBRANCH   8   9
ENDBRANCH   1   8
BRANCH   4  21
ATOM     21  C   UNL     1      48.510   8.106  15.013  0.00  0.00    +0.000 C 
BRANCH  21  22
ATOM     22  N   UNL     1      47.465   7.316  14.417  0.00  0.00    +0.000 N 
ATOM     23  C   UNL     1      47.716   6.390  13.442  0.00  0.00    +0.000 C 
ATOM     24  O   UNL     1      48.848   6.191  13.007  0.00  0.00    +0.000 OA
ATOM     25  H   UNL     1      46.508   7.563  14.646  0.00  0.00    +0.000 HD
BRANCH  23  26
ATOM     26  C   UNL     1      46.572   5.592  12.982  0.00  0.00    +0.000 A 
ATOM     27  C   UNL     1      46.609   4.211  13.119  0.00  0.00    +0.000 A 
ATOM     28  S   UNL     1      45.205   3.426  12.559  0.00  0.00    +0.000 S 
ATOM     29  C   UNL     1      44.511   4.901  12.073  0.00  0.00    +0.000 A 
ATOM     30  N   UNL     1      43.293   4.931  11.470  0.00  0.00    +0.000 NA
ATOM     31  C   UNL     1      42.897   6.107  11.119  0.00  0.00    +0.000 A 
ATOM     32  N   UNL     1      43.605   7.265  11.331  0.00  0.00    +0.000 N 
ATOM     33  C   UNL     1      44.811   7.290  11.999  0.00  0.00    +0.000 A 
ATOM     34  O   UNL     1      45.359   8.350  12.284  0.00  0.00    +0.000 OA
ATOM     35  C   UNL     1      45.324   5.984  12.365  0.00  0.00    +0.000 A 
ATOM     36  H   UNL     1      43.223   8.160  11.063  0.00  0.00    +0.000 HD
ENDBRANCH  23  26
ENDBRANCH  21  22
ENDBRANCH   4  21
TORSDOF 7
ENDMDL
MODEL 6
REMARK VINA RESULT:    -7.016      4.236      8.339
REMARK INTER + INTRA:         -11.182
REMARK INTER:                  -9.479
REMARK INTRA:                  -1.703
REMARK UNBOUND:                -1.295
REMARK  Name = 
REMARK  9 active torsions:
REMARK  status: ('A' for Active; 'I' for Inactive)
REMARK    1  A    between atoms: C_1  and  O_2
REMARK    2  A    between atoms: O_2  and  C_3
REMARK    3  A    between atoms: C_5  and  C_6
REMARK    4  A    between atoms: C_6  and  O_7
REMARK    5  A    between atoms: O_7  and  C_8
REMARK    6  A    between atoms: C_11  and  C_12
REMARK    7  A    between atoms: C_12  and  N_13
REMARK    8  A    between atoms: C_14  and  C_16
REMARK    9  A    between atoms: C_27  and  C_28
REMARK                            x       y       z     vdW  Elec       q    Type
REMARK                         _______ _______ _______ _____ _____    ______ ____
ROOT
ATOM      1  C   UNL     1      50.365   6.970  17.922  0.00  0.00    +0.000 A 
ATOM      2  N   UNL     1      49.229   7.610  18.283  0.00  0.00    +0.000 NA
ATOM      3  C   UNL     1      48.583   8.306  17.325  0.00  0.00    +0.000 A 
ATOM      4  C   UNL     1      49.010   8.395  16.008  0.00  0.00    +0.000 A 
ATOM      5  C   UNL     1      50.220   7.779  15.683  0.00  0.00    +0.000 A 
ATOM      6  C   UNL     1      50.917   7.037  16.645  0.00  0.00    +0.000 A 
ATOM      7  C   UNL     1      52.202   6.355  16.287  0.00  0.00    +0.000 C 
ENDROOT
BRANCH   1   8
ATOM      8  O   UNL     1      51.015   6.226  18.886  0.00  0.00    +0.000 OA
BRANCH   8   9
ATOM      9  C   UNL     1      50.125   5.269  19.477  0.00  0.00    +0.000 C 
BRANCH   9  12
ATOM     10  C   UNL     1      50.142   2.375  17.123  0.00  0.00    +0.000 A 
ATOM     11  C   UNL     1      50.626   3.298  18.016  0.00  0.00    +0.000 A 
ATOM     12  C   UNL     1      49.716   4.235  18.456  0.00  0.00    +0.000 A 
ATOM     13  N   UNL     1      48.432   4.245  18.026  0.00  0.00    +0.000 NA
ATOM     14  C   UNL     1      48.078   3.316  17.136  0.00  0.00    +0.000 A 
ATOM     15  N   UNL     1      46.775   3.324  16.686  0.00  0.00    +0.000 N 
ATOM     16  N   UNL     1      48.875   2.352  16.681  0.00  0.00    +0.000 NA
ATOM     17  H   UNL     1      46.179   3.775  17.366  0.00  0.00    +0.000 HD
ATOM     18  H   UNL     1      46.513   2.401  16.371  0.00  0.00    +0.000 HD
BRANCH  10  20
ATOM     19  C   UNL     1      51.965   1.019  17.682  0.00  0.00    +0.000 C 
ATOM     20  O   UNL     1      51.042   1.426  16.675  0.00  0.00    +0.000 OA
ENDBRANCH  10  20
ENDBRANCH   9  12
ENDBRANCH   8   9
ENDBRANCH   1   8
BRANCH   4  21
ATOM     21  C   UNL     1      48.196   9.124  14.985  0.00  0.00    +0.000 C 
BRANCH  21  22
ATOM     22  N   UNL     1      47.209   8.271  14.377  0.00  0.00    +0.000 N 
ATOM     23  C   UNL     1      46.983   8.261  13.027  0.00  0.00    +0.000 C 
ATOM     24  O   UNL     1      47.601   8.993  12.258  0.00  0.00    +0.000 OA
ATOM     25  H   UNL     1      46.583   7.769  14.998  0.00  0.00    +0.000 HD
BRANCH  23  26
ATOM     26  C   UNL     1      46.009   7.281  12.530  0.00  0.00    +0.000 A 
ATOM     27  C   UNL     1      44.911   7.725  11.806  0.00  0.00    +0.000 A 
ATOM     28  S   UNL     1      43.882   6.472  11.281  0.00  0.00    +0.000 S 
ATOM     29  C   UNL     1      44.846   5.292  12.038  0.00  0.00    +0.000 A 
ATOM     30  N   UNL     1      44.495   3.979  12.000  0.00  0.00    +0.000 NA
ATOM     31  C   UNL     1      45.290   3.193  12.643  0.00  0.00    +0.000 A 
ATOM     32  N   UNL     1      46.419   3.600  13.311  0.00  0.00    +0.000 N 
ATOM     33  C   UNL     1      46.849   4.910  13.319  0.00  0.00    +0.000 A 
ATOM     34  O   UNL     1      47.925   5.224  13.818  0.00  0.00    +0.000 OA
ATOM     35  C   UNL     1      45.958   5.841  12.656  0.00  0.00    +0.000 A 
ATOM     36  H   UNL     1      47.018   2.929  13.767  0.00  0.00    +0.000 HD
ENDBRANCH  23  26
ENDBRANCH  21  22
ENDBRANCH   4  21
TORSDOF 7
ENDMDL
MODEL 7
REMARK VINA RESULT:    -6.967      3.899      8.539
REMARK INTER + INTRA:         -11.113
REMARK INTER:                  -9.639
REMARK INTRA:                  -1.474
REMARK UNBOUND:                -1.295
REMARK  Name = 
REMARK  9 active torsions:
REMARK  status: ('A' for Active; 'I' for Inactive)
REMARK    1  A    between atoms: C_1  and  O_2
REMARK    2  A    between atoms: O_2  and  C_3
REMARK    3  A    between atoms: C_5  and  C_6
REMARK    4  A    between atoms: C_6  and  O_7
REMARK    5  A    between atoms: O_7  and  C_8
REMARK    6  A    between atoms: C_11  and  C_12
REMARK    7  A    between atoms: C_12  and  N_13
REMARK    8  A    between atoms: C_14  and  C_16
REMARK    9  A    between atoms: C_27  and  C_28
REMARK                            x       y       z     vdW  Elec       q    Type
REMARK                         _______ _______ _______ _____ _____    ______ ____
ROOT
ATOM      1  C   UNL     1      49.817   7.952  15.801  0.00  0.00    +0.000 A 
ATOM      2  N   UNL     1      50.399   7.343  14.742  0.00  0.00    +0.000 NA
ATOM      3  C   UNL     1      49.804   7.495  13.541  0.00  0.00    +0.000 A 
ATOM      4  C   UNL     1      48.649   8.234  13.334  0.00  0.00    +0.000 A 
ATOM      5  C   UNL     1      48.037   8.796  14.456  0.00  0.00    +0.000 A 
ATOM      6  C   UNL     1      48.627   8.671  15.720  0.00  0.00    +0.000 A 
ATOM      7  C   UNL     1      47.982   9.296  16.919  0.00  0.00    +0.000 C 
ENDROOT
BRANCH   1   8
ATOM      8  O   UNL     1      50.437   7.833  17.029  0.00  0.00    +0.000 OA
BRANCH   8   9
ATOM      9  C   UNL     1      50.584   6.454  17.392  0.00  0.00    +0.000 C 
BRANCH   9  12
ATOM     10  C   UNL     1      47.422   4.480  17.228  0.00  0.00    +0.000 A 
ATOM     11  C   UNL     1      48.620   5.011  16.817  0.00  0.00    +0.000 A 
ATOM     12  C   UNL     1      49.239   5.851  17.717  0.00  0.00    +0.000 A 
ATOM     13  N   UNL     1      48.694   6.137  18.923  0.00  0.00    +0.000 NA
ATOM     14  C   UNL     1      47.512   5.586  19.207  0.00  0.00    +0.000 A 
ATOM     15  N   UNL     1      46.945   5.878  20.429  0.00  0.00    +0.000 N 
ATOM     16  N   UNL     1      46.856   4.737  18.417  0.00  0.00    +0.000 NA
ATOM     17  H   UNL     1      47.664   6.150  21.085  0.00  0.00    +0.000 HD
ATOM     18  H   UNL     1      46.314   5.138  20.702  0.00  0.00    +0.000 HD
BRANCH  10  20
ATOM     19  C   UNL     1      47.348   3.693  15.025  0.00  0.00    +0.000 C 
ATOM     20  O   UNL     1      46.791   3.633  16.336  0.00  0.00    +0.000 OA
ENDBRANCH  10  20
ENDBRANCH   9  12
ENDBRANCH   8   9
ENDBRANCH   1   8
BRANCH   4  21
ATOM     21  C   UNL     1      48.092   8.419  11.956  0.00  0.00    +0.000 C 
BRANCH  21  22
ATOM     22  N   UNL     1      47.456   7.225  11.469  0.00  0.00    +0.000 N 
ATOM     23  C   UNL     1      46.095   7.082  11.438  0.00  0.00    +0.000 C 
ATOM     24  O   UNL     1      45.338   7.962  11.841  0.00  0.00    +0.000 OA
ATOM     25  H   UNL     1      48.053   6.427  11.271  0.00  0.00    +0.000 HD
BRANCH  23  26
ATOM     26  C   UNL     1      45.576   5.847  10.835  0.00  0.00    +0.000 A 
ATOM     27  C   UNL     1      45.804   5.603   9.488  0.00  0.00    +0.000 A 
ATOM     28  S   UNL     1      45.159   4.124   8.939  0.00  0.00    +0.000 S 
ATOM     29  C   UNL     1      44.514   3.775  10.474  0.00  0.00    +0.000 A 
ATOM     30  N   UNL     1      43.793   2.642  10.684  0.00  0.00    +0.000 NA
ATOM     31  C   UNL     1      43.331   2.515  11.881  0.00  0.00    +0.000 A 
ATOM     32  N   UNL     1      43.538   3.414  12.898  0.00  0.00    +0.000 N 
ATOM     33  C   UNL     1      44.319   4.541  12.749  0.00  0.00    +0.000 A 
ATOM     34  O   UNL     1      44.589   5.260  13.706  0.00  0.00    +0.000 OA
ATOM     35  C   UNL     1      44.816   4.757  11.405  0.00  0.00    +0.000 A 
ATOM     36  H   UNL     1      43.177   3.239  13.824  0.00  0.00    +0.000 HD
ENDBRANCH  23  26
ENDBRANCH  21  22
ENDBRANCH   4  21
TORSDOF 7
ENDMDL
MODEL 8
REMARK VINA RESULT:    -6.948      2.916      9.124
REMARK INTER + INTRA:         -11.086
REMARK INTER:                  -9.688
REMARK INTRA:                  -1.398
REMARK UNBOUND:                -1.295
REMARK  Name = 
REMARK  9 active torsions:
REMARK  status: ('A' for Active; 'I' for Inactive)
REMARK    1  A    between atoms: C_1  and  O_2
REMARK    2  A    between atoms: O_2  and  C_3
REMARK    3  A    between atoms: C_5  and  C_6
REMARK    4  A    between atoms: C_6  and  O_7
REMARK    5  A    between atoms: O_7  and  C_8
REMARK    6  A    between atoms: C_11  and  C_12
REMARK    7  A    between atoms: C_12  and  N_13
REMARK    8  A    between atoms: C_14  and  C_16
REMARK    9  A    between atoms: C_27  and  C_28
REMARK                            x       y       z     vdW  Elec       q    Type
REMARK                         _______ _______ _______ _____ _____    ______ ____
ROOT
ATOM      1  C   UNL     1      49.729   7.970  15.212  0.00  0.00    +0.000 A 
ATOM      2  N   UNL     1      49.914   7.023  14.264  0.00  0.00    +0.000 NA
ATOM      3  C   UNL     1      49.058   7.019  13.221  0.00  0.00    +0.000 A 
ATOM      4  C   UNL     1      48.017   7.922  13.068  0.00  0.00    +0.000 A 
ATOM      5  C   UNL     1      47.812   8.846  14.095  0.00  0.00    +0.000 A 
ATOM      6  C   UNL     1      48.684   8.891  15.190  0.00  0.00    +0.000 A 
ATOM      7  C   UNL     1      48.477   9.899  16.278  0.00  0.00    +0.000 C 
ENDROOT
BRANCH   1   8
ATOM      8  O   UNL     1      50.621   8.005  16.265  0.00  0.00    +0.000 OA
BRANCH   8   9
ATOM      9  C   UNL     1      50.714   6.721  16.896  0.00  0.00    +0.000 C 
BRANCH   9  12
ATOM     10  C   UNL     1      47.544   5.123  18.043  0.00  0.00    +0.000 A 
ATOM     11  C   UNL     1      48.655   5.345  17.268  0.00  0.00    +0.000 A 
ATOM     12  C   UNL     1      49.440   6.413  17.646  0.00  0.00    +0.000 A 
ATOM     13  N   UNL     1      49.128   7.193  18.708  0.00  0.00    +0.000 NA
ATOM     14  C   UNL     1      48.009   6.901  19.374  0.00  0.00    +0.000 A 
ATOM     15  N   UNL     1      47.678   7.696  20.450  0.00  0.00    +0.000 N 
ATOM     16  N   UNL     1      47.207   5.872  19.105  0.00  0.00    +0.000 NA
ATOM     17  H   UNL     1      48.508   8.138  20.819  0.00  0.00    +0.000 HD
ATOM     18  H   UNL     1      47.096   7.179  21.094  0.00  0.00    +0.000 HD
BRANCH  10  20
ATOM     19  C   UNL     1      47.488   2.850  17.493  0.00  0.00    +0.000 C 
ATOM     20  O   UNL     1      46.747   4.054  17.678  0.00  0.00    +0.000 OA
ENDBRANCH  10  20
ENDBRANCH   9  12
ENDBRANCH   8   9
ENDBRANCH   1   8
BRANCH   4  21
ATOM     21  C   UNL     1      47.156   7.901  11.843  0.00  0.00    +0.000 C 
BRANCH  21  22
ATOM     22  N   UNL     1      46.550   6.613  11.634  0.00  0.00    +0.000 N 
ATOM     23  C   UNL     1      45.194   6.449  11.550  0.00  0.00    +0.000 C 
ATOM     24  O   UNL     1      44.415   7.392  11.665  0.00  0.00    +0.000 OA
ATOM     25  H   UNL     1      47.156   5.800  11.686  0.00  0.00    +0.000 HD
BRANCH  23  26
ATOM     26  C   UNL     1      44.712   5.095  11.248  0.00  0.00    +0.000 A 
ATOM     27  C   UNL     1      43.905   4.442  12.170  0.00  0.00    +0.000 A 
ATOM     28  S   UNL     1      43.410   2.889  11.672  0.00  0.00    +0.000 S 
ATOM     29  C   UNL     1      44.294   3.015  10.223  0.00  0.00    +0.000 A 
ATOM     30  N   UNL     1      44.324   1.985   9.336  0.00  0.00    +0.000 NA
ATOM     31  C   UNL     1      45.058   2.195   8.297  0.00  0.00    +0.000 A 
ATOM     32  N   UNL     1      45.756   3.353   8.054  0.00  0.00    +0.000 N 
ATOM     33  C   UNL     1      45.700   4.447   8.892  0.00  0.00    +0.000 A 
ATOM     34  O   UNL     1      46.232   5.509   8.587  0.00  0.00    +0.000 OA
ATOM     35  C   UNL     1      44.930   4.239  10.103  0.00  0.00    +0.000 A 
ATOM     36  H   UNL     1      46.286   3.467   7.203  0.00  0.00    +0.000 HD
ENDBRANCH  23  26
ENDBRANCH  21  22
ENDBRANCH   4  21
TORSDOF 7
ENDMDL
MODEL 9
REMARK VINA RESULT:    -6.735      4.925      7.275
REMARK INTER + INTRA:         -10.786
REMARK INTER:                  -9.626
REMARK INTRA:                  -1.160
REMARK UNBOUND:                -1.295
REMARK  Name = 
REMARK  9 active torsions:
REMARK  status: ('A' for Active; 'I' for Inactive)
REMARK    1  A    between atoms: C_1  and  O_2
REMARK    2  A    between atoms: O_2  and  C_3
REMARK    3  A    between atoms: C_5  and  C_6
REMARK    4  A    between atoms: C_6  and  O_7
REMARK    5  A    between atoms: O_7  and  C_8
REMARK    6  A    between atoms: C_11  and  C_12
REMARK    7  A    between atoms: C_12  and  N_13
REMARK    8  A    between atoms: C_14  and  C_16
REMARK    9  A    between atoms: C_27  and  C_28
REMARK                            x       y       z     vdW  Elec       q    Type
REMARK                         _______ _______ _______ _____ _____    ______ ____
ROOT
ATOM      1  C   UNL     1      46.771   7.425  12.615  0.00  0.00    +0.000 A 
ATOM      2  N   UNL     1      47.120   8.617  12.078  0.00  0.00    +0.000 NA
ATOM      3  C   UNL     1      48.438   8.881  11.969  0.00  0.00    +0.000 A 
ATOM      4  C   UNL     1      49.440   8.009  12.367  0.00  0.00    +0.000 A 
ATOM      5  C   UNL     1      49.048   6.816  12.977  0.00  0.00    +0.000 A 
ATOM      6  C   UNL     1      47.690   6.498  13.101  0.00  0.00    +0.000 A 
ATOM      7  C   UNL     1      47.272   5.206  13.733  0.00  0.00    +0.000 C 
ENDROOT
BRANCH   1   8
ATOM      8  O   UNL     1      45.425   7.129  12.699  0.00  0.00    +0.000 OA
BRANCH   8   9
ATOM      9  C   UNL     1      44.856   6.974  11.392  0.00  0.00    +0.000 C 
BRANCH   9  12
ATOM     10  C   UNL     1      45.224   3.735   9.578  0.00  0.00    +0.000 A 
ATOM     11  C   UNL     1      45.284   5.088   9.801  0.00  0.00    +0.000 A 
ATOM     12  C   UNL     1      44.796   5.512  11.018  0.00  0.00    +0.000 A 
ATOM     13  N   UNL     1      44.284   4.648  11.927  0.00  0.00    +0.000 NA
ATOM     14  C   UNL     1      44.251   3.357  11.592  0.00  0.00    +0.000 A 
ATOM     15  N   UNL     1      43.724   2.471  12.507  0.00  0.00    +0.000 N 
ATOM     16  N   UNL     1      44.729   2.850  10.457  0.00  0.00    +0.000 NA
ATOM     17  H   UNL     1      43.792   2.857  13.438  0.00  0.00    +0.000 HD
ATOM     18  H   UNL     1      44.104   1.548  12.352  0.00  0.00    +0.000 HD
BRANCH  10  20
ATOM     19  C   UNL     1      45.929   1.885   8.330  0.00  0.00    +0.000 C 
ATOM     20  O   UNL     1      45.713   3.293   8.362  0.00  0.00    +0.000 OA
ENDBRANCH  10  20
ENDBRANCH   9  12
ENDBRANCH   8   9
ENDBRANCH   1   8
BRANCH   4  21
ATOM     21  C   UNL     1      50.883   8.343  12.142  0.00  0.00    +0.000 C 
BRANCH  21  22
ATOM     22  N   UNL     1      51.271   8.153  10.770  0.00  0.00    +0.000 N 
ATOM     23  C   UNL     1      52.539   8.410  10.326  0.00  0.00    +0.000 C 
ATOM     24  O   UNL     1      53.417   8.835  11.074  0.00  0.00    +0.000 OA
ATOM     25  H   UNL     1      50.533   7.949  10.102  0.00  0.00    +0.000 HD
BRANCH  23  26
ATOM     26  C   UNL     1      52.823   8.090   8.921  0.00  0.00    +0.000 A 
ATOM     27  C   UNL     1      52.644   9.069   7.954  0.00  0.00    +0.000 A 
ATOM     28  S   UNL     1      53.032   8.556   6.376  0.00  0.00    +0.000 S 
ATOM     29  C   UNL     1      53.414   6.991   6.923  0.00  0.00    +0.000 A 
ATOM     30  N   UNL     1      53.795   6.023   6.048  0.00  0.00    +0.000 NA
ATOM     31  C   UNL     1      54.022   4.873   6.586  0.00  0.00    +0.000 A 
ATOM     32  N   UNL     1      53.916   4.604   7.929  0.00  0.00    +0.000 N 
ATOM     33  C   UNL     1      53.598   5.571   8.860  0.00  0.00    +0.000 A 
ATOM     34  O   UNL     1      53.634   5.333  10.063  0.00  0.00    +0.000 OA
ATOM     35  C   UNL     1      53.281   6.869   8.297  0.00  0.00    +0.000 A 
ATOM     36  H   UNL     1      54.140   3.690   8.292  0.00  0.00    +0.000 HD
ENDBRANCH  23  26
ENDBRANCH  21  22
ENDBRANCH   4  21
TORSDOF 7
ENDMDL
