MODEL 1
REMARK VINA RESULT:    -7.222      0.000      0.000
REMARK INTER + INTRA:          -8.806
REMARK INTER:                  -8.488
REMARK INTRA:                  -0.317
REMARK UNBOUND:                -0.317
REMARK  Name = 
REMARK  3 active torsions:
REMARK  status: ('A' for Active; 'I' for Inactive)
REMARK    1  A    between atoms: C_5  and  N_6
REMARK    2  A    between atoms: N_6  and  C_7
REMARK    3  A    between atoms: C_7  and  C_8
REMARK                            x       y       z     vdW  Elec       q    Type
REMARK                         _______ _______ _______ _____ _____    ______ ____
ROOT
ATOM      1  C   UNL     1      44.768   4.450  11.554  0.00  0.00    +0.000 A 
ATOM      2  C   UNL     1      45.363   3.420  12.251  0.00  0.00    +0.000 A 
ATOM      3  C   UNL     1      46.273   3.799  13.198  0.00  0.00    +0.000 A 
ATOM      4  N   UNL     1      46.592   5.081  13.453  0.00  0.00    +0.000 NA
ATOM      5  C   UNL     1      45.957   6.037  12.756  0.00  0.00    +0.000 A 
ATOM      6  N   UNL     1      46.316   7.346  12.942  0.00  0.00    +0.000 N 
ATOM      7  C   UNL     1      47.472   7.689  13.760  0.00  0.00    +0.000 C 
ATOM      8  C   UNL     1      48.386   8.653  12.996  0.00  0.00    +0.000 C 
ATOM      9  S   UNL     1      47.540  10.216  12.559  0.00  0.00    +0.000 S 
ATOM     10  C   UNL     1      46.068   9.489  11.749  0.00  0.00    +0.000 C 
ATOM     11  C   UNL     1      45.383   8.419  12.606  0.00  0.00    +0.000 C 
ATOM     12  N   UNL     1      45.039   5.749  11.819  0.00  0.00    +0.000 NA
ENDROOT
BRANCH   1  13
ATOM     13  C   UNL     1      43.814   4.155  10.417  0.00  0.00    +0.000 C 
BRANCH  13  14
ATOM     14  N   UNL     1      44.424   4.398   9.118  0.00  0.00    +0.000 N 
ATOM     15  H   UNL     1      43.863   4.923   8.453  0.00  0.00    +0.000 HD
BRANCH  14  20
ATOM     16  C   UNL     1      47.077   2.863   7.005  0.00  0.00    +0.000 A 
ATOM     17  C   UNL     1      46.924   1.550   7.411  0.00  0.00    +0.000 A 
ATOM     18  N   UNL     1      46.032   1.160   8.341  0.00  0.00    +0.000 NA
ATOM     19  C   UNL     1      45.258   2.137   8.880  0.00  0.00    +0.000 A 
ATOM     20  C   UNL     1      45.332   3.499   8.569  0.00  0.00    +0.000 A 
ATOM     21  C   UNL     1      46.265   3.838   7.586  0.00  0.00    +0.000 A 
ENDBRANCH  14  20
ENDBRANCH  13  14
ENDBRANCH   1  13
TORSDOF 3
ENDMDL
MODEL 2
REMARK VINA RESULT:    -7.074      1.507      2.191
REMARK INTER + INTRA:          -8.632
REMARK INTER:                  -8.274
REMARK INTRA:                  -0.358
REMARK UNBOUND:                -0.317
REMARK  Name = 
REMARK  3 active torsions:
REMARK  status: ('A' for Active; 'I' for Inactive)
REMARK    1  A    between atoms: C_5  and  N_6
REMARK    2  A    between atoms: N_6  and  C_7
REMARK    3  A    between atoms: C_7  and  C_8
REMARK                            x       y       z     vdW  Elec       q    Type
REMARK                         _______ _______ _______ _____ _____    ______ ____
ROOT
ATOM      1  C   UNL     1      44.590   4.321  10.888  0.00  0.00    +0.000 A 
ATOM      2  C   UNL     1      43.279   4.749  10.922  0.00  0.00    +0.000 A 
ATOM      3  C   UNL     1      43.095   6.052  11.293  0.00  0.00    +0.000 A 
ATOM      4  N   UNL     1      44.103   6.883  11.615  0.00  0.00    +0.000 NA
ATOM      5  C   UNL     1      45.357   6.410  11.537  0.00  0.00    +0.000 A 
ATOM      6  N   UNL     1      46.396   7.212  11.930  0.00  0.00    +0.000 N 
ATOM      7  C   UNL     1      46.141   8.496  12.572  0.00  0.00    +0.000 C 
ATOM      8  C   UNL     1      46.961   8.606  13.862  0.00  0.00    +0.000 C 
ATOM      9  S   UNL     1      48.761   8.493  13.556  0.00  0.00    +0.000 S 
ATOM     10  C   UNL     1      48.757   6.941  12.586  0.00  0.00    +0.000 C 
ATOM     11  C   UNL     1      47.747   6.961  11.434  0.00  0.00    +0.000 C 
ATOM     12  N   UNL     1      45.623   5.148  11.165  0.00  0.00    +0.000 NA
ENDROOT
BRANCH   1  13
ATOM     13  C   UNL     1      44.915   2.875  10.582  0.00  0.00    +0.000 C 
BRANCH  13  14
ATOM     14  N   UNL     1      44.619   2.533   9.198  0.00  0.00    +0.000 N 
ATOM     15  H   UNL     1      43.812   1.935   9.050  0.00  0.00    +0.000 HD
BRANCH  14  20
ATOM     16  C   UNL     1      46.869   3.218   6.312  0.00  0.00    +0.000 A 
ATOM     17  C   UNL     1      47.525   2.002   6.275  0.00  0.00    +0.000 A 
ATOM     18  N   UNL     1      47.289   1.004   7.147  0.00  0.00    +0.000 NA
ATOM     19  C   UNL     1      46.345   1.242   8.094  0.00  0.00    +0.000 A 
ATOM     20  C   UNL     1      45.630   2.435   8.248  0.00  0.00    +0.000 A 
ATOM     21  C   UNL     1      45.908   3.426   7.304  0.00  0.00    +0.000 A 
ENDBRANCH  14  20
ENDBRANCH  13  14
ENDBRANCH   1  13
TORSDOF 3
ENDMDL
MODEL 3
REMARK VINA RESULT:    -6.836      2.865      4.011
REMARK INTER + INTRA:          -8.352
REMARK INTER:                  -8.178
REMARK INTRA:                  -0.174
REMARK UNBOUND:                -0.317
REMARK  Name = 
REMARK  3 active torsions:
REMARK  status: ('A' for Active; 'I' for Inactive)
REMARK    1  A    between atoms: C_5  and  N_6
REMARK    2  A    between atoms: N_6  and  C_7
REMARK    3  A    between atoms: C_7  and  C_8
REMARK                            x       y       z     vdW  Elec       q    Type
REMARK                         _______ _______ _______ _____ _____    ______ ____
ROOT
ATOM      1  C   UNL     1      45.568   4.400  12.677  0.00  0.00    +0.000 A 
ATOM      2  C   UNL     1      45.752   5.624  12.068  0.00  0.00    +0.000 A 
ATOM      3  C   UNL     1      46.635   6.463  12.689  0.00  0.00    +0.000 A 
ATOM      4  N   UNL     1      47.291   6.148  13.821  0.00  0.00    +0.000 NA
ATOM      5  C   UNL     1      47.085   4.930  14.348  0.00  0.00    +0.000 A 
ATOM      6  N   UNL     1      47.682   4.611  15.539  0.00  0.00    +0.000 N 
ATOM      7  C   UNL     1      48.399   5.624  16.305  0.00  0.00    +0.000 C 
ATOM      8  C   UNL     1      47.917   5.616  17.759  0.00  0.00    +0.000 C 
ATOM      9  S   UNL     1      48.201   4.006  18.580  0.00  0.00    +0.000 S 
ATOM     10  C   UNL     1      47.398   2.939  17.328  0.00  0.00    +0.000 C 
ATOM     11  C   UNL     1      47.894   3.213  15.904  0.00  0.00    +0.000 C 
ATOM     12  N   UNL     1      46.247   4.042  13.790  0.00  0.00    +0.000 NA
ENDROOT
BRANCH   1  13
ATOM     13  C   UNL     1      44.548   3.422  12.136  0.00  0.00    +0.000 C 
BRANCH  13  14
ATOM     14  N   UNL     1      44.070   3.809  10.817  0.00  0.00    +0.000 N 
ATOM     15  H   UNL     1      43.064   3.913  10.720  0.00  0.00    +0.000 HD
BRANCH  14  20
ATOM     16  C   UNL     1      45.925   1.847   8.253  0.00  0.00    +0.000 A 
ATOM     17  C   UNL     1      46.312   2.895   7.439  0.00  0.00    +0.000 A 
ATOM     18  N   UNL     1      45.979   4.178   7.672  0.00  0.00    +0.000 NA
ATOM     19  C   UNL     1      45.226   4.414   8.777  0.00  0.00    +0.000 A 
ATOM     20  C   UNL     1      44.756   3.440   9.664  0.00  0.00    +0.000 A 
ATOM     21  C   UNL     1      45.148   2.131   9.378  0.00  0.00    +0.000 A 
ENDBRANCH  14  20
ENDBRANCH  13  14
ENDBRANCH   1  13
TORSDOF 3
ENDMDL
MODEL 4
REMARK VINA RESULT:    -6.721      1.293      1.448
REMARK INTER + INTRA:          -8.217
REMARK INTER:                  -7.873
REMARK INTRA:                  -0.343
REMARK UNBOUND:                -0.317
REMARK  Name = 
REMARK  3 active torsions:
REMARK  status: ('A' for Active; 'I' for Inactive)
REMARK    1  A    between atoms: C_5  and  N_6
REMARK    2  A    between atoms: N_6  and  C_7
REMARK    3  A    between atoms: C_7  and  C_8
REMARK                            x       y       z     vdW  Elec       q    Type
REMARK                         _______ _______ _______ _____ _____    ______ ____
ROOT
ATOM      1  C   UNL     1      44.576   4.830  10.958  0.00  0.00    +0.000 A 
ATOM      2  C   UNL     1      45.255   4.081  11.896  0.00  0.00    +0.000 A 
ATOM      3  C   UNL     1      45.844   4.795  12.902  0.00  0.00    +0.000 A 
ATOM      4  N   UNL     1      45.789   6.136  12.995  0.00  0.00    +0.000 NA
ATOM      5  C   UNL     1      45.090   6.802  12.062  0.00  0.00    +0.000 A 
ATOM      6  N   UNL     1      45.079   8.172  12.090  0.00  0.00    +0.000 N 
ATOM      7  C   UNL     1      45.938   8.902  13.015  0.00  0.00    +0.000 C 
ATOM      8  C   UNL     1      46.722   9.980  12.260  0.00  0.00    +0.000 C 
ATOM      9  S   UNL     1      45.625  11.200  11.450  0.00  0.00    +0.000 S 
ATOM     10  C   UNL     1      44.557  10.021  10.545  0.00  0.00    +0.000 C 
ATOM     11  C   UNL     1      43.999   8.912  11.444  0.00  0.00    +0.000 C 
ATOM     12  N   UNL     1      44.468   6.175  11.051  0.00  0.00    +0.000 NA
ENDROOT
BRANCH   1  13
ATOM     13  C   UNL     1      43.959   4.163   9.747  0.00  0.00    +0.000 C 
BRANCH  13  14
ATOM     14  N   UNL     1      44.504   2.831   9.524  0.00  0.00    +0.000 N 
ATOM     15  H   UNL     1      44.550   2.226  10.338  0.00  0.00    +0.000 HD
BRANCH  14  20
ATOM     16  C   UNL     1      46.691   3.187   6.532  0.00  0.00    +0.000 A 
ATOM     17  C   UNL     1      47.218   1.910   6.514  0.00  0.00    +0.000 A 
ATOM     18  N   UNL     1      46.918   0.971   7.430  0.00  0.00    +0.000 NA
ATOM     19  C   UNL     1      46.043   1.335   8.403  0.00  0.00    +0.000 A 
ATOM     20  C   UNL     1      45.459   2.599   8.540  0.00  0.00    +0.000 A 
ATOM     21  C   UNL     1      45.798   3.525   7.551  0.00  0.00    +0.000 A 
ENDBRANCH  14  20
ENDBRANCH  13  14
ENDBRANCH   1  13
TORSDOF 3
ENDMDL
MODEL 5
REMARK VINA RESULT:    -6.355      2.877      3.871
REMARK INTER + INTRA:          -7.787
REMARK INTER:                  -7.508
REMARK INTRA:                  -0.278
REMARK UNBOUND:                -0.317
REMARK  Name = 
REMARK  3 active torsions:
REMARK  status: ('A' for Active; 'I' for Inactive)
REMARK    1  A    between atoms: C_5  and  N_6
REMARK    2  A    between atoms: N_6  and  C_7
REMARK    3  A    between atoms: C_7  and  C_8
REMARK                            x       y       z     vdW  Elec       q    Type
REMARK                         _______ _______ _______ _____ _____    ______ ____
ROOT
ATOM      1  C   UNL     1      45.933   5.309  12.800  0.00  0.00    +0.000 A 
ATOM      2  C   UNL     1      46.548   6.306  12.071  0.00  0.00    +0.000 A 
ATOM      3  C   UNL     1      47.674   6.838  12.636  0.00  0.00    +0.000 A 
ATOM      4  N   UNL     1      48.169   6.443  13.823  0.00  0.00    +0.000 NA
ATOM      5  C   UNL     1      47.536   5.451  14.469  0.00  0.00    +0.000 A 
ATOM      6  N   UNL     1      47.975   5.080  15.713  0.00  0.00    +0.000 N 
ATOM      7  C   UNL     1      49.007   5.850  16.396  0.00  0.00    +0.000 C 
ATOM      8  C   UNL     1      48.553   6.186  17.820  0.00  0.00    +0.000 C 
ATOM      9  S   UNL     1      48.234   4.688  18.821  0.00  0.00    +0.000 S 
ATOM     10  C   UNL     1      47.102   3.842  17.658  0.00  0.00    +0.000 C 
ATOM     11  C   UNL     1      47.666   3.751  16.236  0.00  0.00    +0.000 C 
ATOM     12  N   UNL     1      46.435   4.864  13.975  0.00  0.00    +0.000 NA
ENDROOT
BRANCH   1  13
ATOM     13  C   UNL     1      44.630   4.706  12.324  0.00  0.00    +0.000 C 
BRANCH  13  14
ATOM     14  N   UNL     1      44.402   4.952  10.907  0.00  0.00    +0.000 N 
ATOM     15  H   UNL     1      43.518   5.390  10.667  0.00  0.00    +0.000 HD
BRANCH  14  20
ATOM     16  C   UNL     1      46.009   3.707   7.788  0.00  0.00    +0.000 A 
ATOM     17  C   UNL     1      45.805   2.353   7.982  0.00  0.00    +0.000 A 
ATOM     18  N   UNL     1      45.205   1.843   9.074  0.00  0.00    +0.000 NA
ATOM     19  C   UNL     1      44.787   2.738  10.006  0.00  0.00    +0.000 A 
ATOM     20  C   UNL     1      44.954   4.125   9.934  0.00  0.00    +0.000 A 
ATOM     21  C   UNL     1      45.569   4.594   8.772  0.00  0.00    +0.000 A 
ENDBRANCH  14  20
ENDBRANCH  13  14
ENDBRANCH   1  13
TORSDOF 3
ENDMDL
MODEL 6
REMARK VINA RESULT:    -6.025      1.918      3.130
REMARK INTER + INTRA:          -7.399
REMARK INTER:                  -7.058
REMARK INTRA:                  -0.341
REMARK UNBOUND:                -0.317
REMARK  Name = 
REMARK  3 active torsions:
REMARK  status: ('A' for Active; 'I' for Inactive)
REMARK    1  A    between atoms: C_5  and  N_6
REMARK    2  A    between atoms: N_6  and  C_7
REMARK    3  A    between atoms: C_7  and  C_8
REMARK                            x       y       z     vdW  Elec       q    Type
REMARK                         _______ _______ _______ _____ _____    ______ ____
ROOT
ATOM      1  C   UNL     1      45.453   6.060  12.211  0.00  0.00    +0.000 A 
ATOM      2  C   UNL     1      44.729   7.066  11.606  0.00  0.00    +0.000 A 
ATOM      3  C   UNL     1      45.154   8.338  11.873  0.00  0.00    +0.000 A 
ATOM      4  N   UNL     1      46.199   8.621  12.672  0.00  0.00    +0.000 NA
ATOM      5  C   UNL     1      46.876   7.594  13.209  0.00  0.00    +0.000 A 
ATOM      6  N   UNL     1      47.898   7.855  14.084  0.00  0.00    +0.000 N 
ATOM      7  C   UNL     1      48.146   9.214  14.551  0.00  0.00    +0.000 C 
ATOM      8  C   UNL     1      48.249   9.229  16.080  0.00  0.00    +0.000 C 
ATOM      9  S   UNL     1      49.614   8.179  16.697  0.00  0.00    +0.000 S 
ATOM     10  C   UNL     1      49.172   6.641  15.810  0.00  0.00    +0.000 C 
ATOM     11  C   UNL     1      48.944   6.861  14.311  0.00  0.00    +0.000 C 
ATOM     12  N   UNL     1      46.534   6.316  12.983  0.00  0.00    +0.000 NA
ENDROOT
BRANCH   1  13
ATOM     13  C   UNL     1      45.025   4.615  12.066  0.00  0.00    +0.000 C 
BRANCH  13  14
ATOM     14  N   UNL     1      44.279   4.390  10.836  0.00  0.00    +0.000 N 
ATOM     15  H   UNL     1      43.288   4.200  10.945  0.00  0.00    +0.000 HD
BRANCH  14  20
ATOM     16  C   UNL     1      45.759   1.962   8.432  0.00  0.00    +0.000 A 
ATOM     17  C   UNL     1      46.316   2.868   7.548  0.00  0.00    +0.000 A 
ATOM     18  N   UNL     1      46.207   4.202   7.687  0.00  0.00    +0.000 NA
ATOM     19  C   UNL     1      45.512   4.642   8.767  0.00  0.00    +0.000 A 
ATOM     20  C   UNL     1      44.887   3.828   9.718  0.00  0.00    +0.000 A 
ATOM     21  C   UNL     1      45.048   2.454   9.529  0.00  0.00    +0.000 A 
ENDBRANCH  14  20
ENDBRANCH  13  14
ENDBRANCH   1  13
TORSDOF 3
ENDMDL
MODEL 7
REMARK VINA RESULT:    -5.999      3.599      6.829
REMARK INTER + INTRA:          -7.369
REMARK INTER:                  -6.964
REMARK INTRA:                  -0.405
REMARK UNBOUND:                -0.317
REMARK  Name = 
REMARK  3 active torsions:
REMARK  status: ('A' for Active; 'I' for Inactive)
REMARK    1  A    between atoms: C_5  and  N_6
REMARK    2  A    between atoms: N_6  and  C_7
REMARK    3  A    between atoms: C_7  and  C_8
REMARK                            x       y       z     vdW  Elec       q    Type
REMARK                         _______ _______ _______ _____ _____    ______ ____
ROOT
ATOM      1  C   UNL     1      48.293   6.815  14.333  0.00  0.00    +0.000 A 
ATOM      2  C   UNL     1      49.230   7.349  13.473  0.00  0.00    +0.000 A 
ATOM      3  C   UNL     1      48.869   7.379  12.155  0.00  0.00    +0.000 A 
ATOM      4  N   UNL     1      47.689   6.922  11.695  0.00  0.00    +0.000 NA
ATOM      5  C   UNL     1      46.812   6.438  12.589  0.00  0.00    +0.000 A 
ATOM      6  N   UNL     1      45.635   5.898  12.141  0.00  0.00    +0.000 N 
ATOM      7  C   UNL     1      45.403   5.704  10.715  0.00  0.00    +0.000 C 
ATOM      8  C   UNL     1      44.931   4.270  10.454  0.00  0.00    +0.000 C 
ATOM      9  S   UNL     1      43.368   3.882  11.322  0.00  0.00    +0.000 S 
ATOM     10  C   UNL     1      43.874   4.403  13.002  0.00  0.00    +0.000 C 
ATOM     11  C   UNL     1      44.481   5.810  13.032  0.00  0.00    +0.000 C 
ATOM     12  N   UNL     1      47.084   6.389  13.903  0.00  0.00    +0.000 NA
ENDROOT
BRANCH   1  13
ATOM     13  C   UNL     1      48.612   6.643  15.802  0.00  0.00    +0.000 C 
BRANCH  13  14
ATOM     14  N   UNL     1      47.979   5.457  16.360  0.00  0.00    +0.000 N 
ATOM     15  H   UNL     1      47.150   5.618  16.924  0.00  0.00    +0.000 HD
BRANCH  14  20
ATOM     16  C   UNL     1      50.665   3.203  17.613  0.00  0.00    +0.000 A 
ATOM     17  C   UNL     1      50.212   2.021  17.058  0.00  0.00    +0.000 A 
ATOM     18  N   UNL     1      49.082   1.928  16.333  0.00  0.00    +0.000 NA
ATOM     19  C   UNL     1      48.381   3.078  16.157  0.00  0.00    +0.000 A 
ATOM     20  C   UNL     1      48.724   4.328  16.684  0.00  0.00    +0.000 A 
ATOM     21  C   UNL     1      49.915   4.363  17.413  0.00  0.00    +0.000 A 
ENDBRANCH  14  20
ENDBRANCH  13  14
ENDBRANCH   1  13
TORSDOF 3
ENDMDL
MODEL 8
REMARK VINA RESULT:    -5.874      4.353      7.272
REMARK INTER + INTRA:          -7.221
REMARK INTER:                  -6.900
REMARK INTRA:                  -0.322
REMARK UNBOUND:                -0.317
REMARK  Name = 
REMARK  3 active torsions:
REMARK  status: ('A' for Active; 'I' for Inactive)
REMARK    1  A    between atoms: C_5  and  N_6
REMARK    2  A    between atoms: N_6  and  C_7
REMARK    3  A    between atoms: C_7  and  C_8
REMARK                            x       y       z     vdW  Elec       q    Type
REMARK                         _______ _______ _______ _____ _____    ______ ____
ROOT
ATOM      1  C   UNL     1      47.455   4.941  15.288  0.00  0.00    +0.000 A 
ATOM      2  C   UNL     1      48.307   6.025  15.252  0.00  0.00    +0.000 A 
ATOM      3  C   UNL     1      48.146   6.863  14.184  0.00  0.00    +0.000 A 
ATOM      4  N   UNL     1      47.233   6.668  13.215  0.00  0.00    +0.000 NA
ATOM      5  C   UNL     1      46.419   5.606  13.324  0.00  0.00    +0.000 A 
ATOM      6  N   UNL     1      45.532   5.341  12.314  0.00  0.00    +0.000 N 
ATOM      7  C   UNL     1      45.576   6.100  11.070  0.00  0.00    +0.000 C 
ATOM      8  C   UNL     1      45.591   5.142   9.874  0.00  0.00    +0.000 C 
ATOM      9  S   UNL     1      44.104   4.077   9.815  0.00  0.00    +0.000 S 
ATOM     10  C   UNL     1      44.186   3.432  11.526  0.00  0.00    +0.000 C 
ATOM     11  C   UNL     1      44.339   4.539  12.574  0.00  0.00    +0.000 C 
ATOM     12  N   UNL     1      46.501   4.744  14.350  0.00  0.00    +0.000 NA
ENDROOT
BRANCH   1  13
ATOM     13  C   UNL     1      47.596   3.892  16.371  0.00  0.00    +0.000 C 
BRANCH  13  14
ATOM     14  N   UNL     1      48.639   4.235  17.327  0.00  0.00    +0.000 N 
ATOM     15  H   UNL     1      48.769   5.226  17.509  0.00  0.00    +0.000 HD
BRANCH  14  20
ATOM     16  C   UNL     1      52.110   3.072  18.006  0.00  0.00    +0.000 A 
ATOM     17  C   UNL     1      51.993   1.787  17.511  0.00  0.00    +0.000 A 
ATOM     18  N   UNL     1      50.850   1.289  17.003  0.00  0.00    +0.000 NA
ATOM     19  C   UNL     1      49.781   2.127  16.989  0.00  0.00    +0.000 A 
ATOM     20  C   UNL     1      49.769   3.437  17.478  0.00  0.00    +0.000 A 
ATOM     21  C   UNL     1      50.987   3.901  17.978  0.00  0.00    +0.000 A 
ENDBRANCH  14  20
ENDBRANCH  13  14
ENDBRANCH   1  13
TORSDOF 3
ENDMDL
MODEL 9
REMARK VINA RESULT:    -5.779      3.244      6.959
REMARK INTER + INTRA:          -7.109
REMARK INTER:                  -6.732
REMARK INTRA:                  -0.377
REMARK UNBOUND:                -0.317
REMARK  Name = 
REMARK  3 active torsions:
REMARK  status: ('A' for Active; 'I' for Inactive)
REMARK    1  A    between atoms: C_5  and  N_6
REMARK    2  A    between atoms: N_6  and  C_7
REMARK    3  A    between atoms: C_7  and  C_8
REMARK                            x       y       z     vdW  Elec       q    Type
REMARK                         _______ _______ _______ _____ _____    ______ ____
ROOT
ATOM      1  C   UNL     1      47.382   7.532  13.752  0.00  0.00    +0.000 A 
ATOM      2  C   UNL     1      47.085   8.811  13.329  0.00  0.00    +0.000 A 
ATOM      3  C   UNL     1      45.982   8.924  12.530  0.00  0.00    +0.000 A 
ATOM      4  N   UNL     1      45.220   7.879  12.158  0.00  0.00    +0.000 NA
ATOM      5  C   UNL     1      45.550   6.665  12.626  0.00  0.00    +0.000 A 
ATOM      6  N   UNL     1      44.837   5.573  12.204  0.00  0.00    +0.000 N 
ATOM      7  C   UNL     1      43.842   5.700  11.146  0.00  0.00    +0.000 C 
ATOM      8  C   UNL     1      44.081   4.632  10.074  0.00  0.00    +0.000 C 
ATOM      9  S   UNL     1      43.957   2.933  10.742  0.00  0.00    +0.000 S 
ATOM     10  C   UNL     1      45.123   3.125  12.140  0.00  0.00    +0.000 C 
ATOM     11  C   UNL     1      44.818   4.352  13.006  0.00  0.00    +0.000 C 
ATOM     12  N   UNL     1      46.608   6.470  13.428  0.00  0.00    +0.000 NA
ENDROOT
BRANCH   1  13
ATOM     13  C   UNL     1      48.630   7.264  14.564  0.00  0.00    +0.000 C 
BRANCH  13  14
ATOM     14  N   UNL     1      48.315   6.803  15.909  0.00  0.00    +0.000 N 
ATOM     15  H   UNL     1      48.372   7.500  16.644  0.00  0.00    +0.000 HD
BRANCH  14  20
ATOM     16  C   UNL     1      47.898   3.193  16.721  0.00  0.00    +0.000 A 
ATOM     17  C   UNL     1      49.128   2.977  17.314  0.00  0.00    +0.000 A 
ATOM     18  N   UNL     1      50.073   3.928  17.431  0.00  0.00    +0.000 NA
ATOM     19  C   UNL     1      49.760   5.153  16.935  0.00  0.00    +0.000 A 
ATOM     20  C   UNL     1      48.562   5.490  16.296  0.00  0.00    +0.000 A 
ATOM     21  C   UNL     1      47.617   4.465  16.219  0.00  0.00    +0.000 A 
ENDBRANCH  14  20
ENDBRANCH  13  14
ENDBRANCH   1  13
TORSDOF 3
ENDMDL
