MODEL 1
REMARK VINA RESULT:    -8.279      0.000      0.000
REMARK INTER + INTRA:         -11.268
REMARK INTER:                 -10.941
REMARK INTRA:                  -0.327
REMARK UNBOUND:                -0.327
REMARK  Name = 
REMARK  6 active torsions:
REMARK  status: ('A' for Active; 'I' for Inactive)
REMARK    1  A    between atoms: N_1  and  C_2
REMARK    2  A    between atoms: C_2  and  C_3
REMARK    3  A    between atoms: C_3  and  C_4
REMARK    4  A    between atoms: C_7  and  C_8
REMARK    5  A    between atoms: C_8  and  N_9
REMARK    6  A    between atoms: C_14  and  C_15
REMARK                            x       y       z     vdW  Elec       q    Type
REMARK                         _______ _______ _______ _____ _____    ______ ____
ROOT
ATOM      1  N   UNL     1      44.567   5.450  11.296  0.00  0.00    +0.000 N 
ATOM      2  N   UNL     1      44.435   6.789  11.454  0.00  0.00    +0.000 NA
ATOM      3  C   UNL     1      45.145   7.053  12.553  0.00  0.00    +0.000 A 
ATOM      4  C   UNL     1      45.717   5.896  13.125  0.00  0.00    +0.000 A 
ATOM      5  C   UNL     1      46.489   5.611  14.256  0.00  0.00    +0.000 A 
ATOM      6  C   UNL     1      46.819   4.273  14.449  0.00  0.00    +0.000 A 
ATOM      7  N   UNL     1      46.454   3.255  13.616  0.00  0.00    +0.000 NA
ATOM      8  C   UNL     1      45.712   3.542  12.518  0.00  0.00    +0.000 A 
ATOM      9  C   UNL     1      45.334   4.859  12.277  0.00  0.00    +0.000 A 
ENDROOT
BRANCH   6  10
ATOM     10  C   UNL     1      47.615   3.895  15.664  0.00  0.00    +0.000 C 
ATOM     11  N   UNL     1      47.495   4.724  16.748  0.00  0.00    +0.000 N 
ATOM     12  O   UNL     1      48.339   2.907  15.697  0.00  0.00    +0.000 OA
ATOM     13  H   UNL     1      46.904   5.543  16.697  0.00  0.00    +0.000 HD
ATOM     14  H   UNL     1      48.020   4.520  17.588  0.00  0.00    +0.000 HD
ENDBRANCH   6  10
BRANCH   1  15
ATOM     15  C   UNL     1      43.771   4.777  10.272  0.00  0.00    +0.000 C 
BRANCH  15  19
ATOM     16  C   UNL     1      46.181   2.164   7.794  0.00  0.00    +0.000 A 
ATOM     17  C   UNL     1      45.266   1.629   8.708  0.00  0.00    +0.000 A 
ATOM     18  C   UNL     1      44.477   2.467   9.501  0.00  0.00    +0.000 A 
ATOM     19  C   UNL     1      44.593   3.860   9.402  0.00  0.00    +0.000 A 
ATOM     20  C   UNL     1      45.495   4.393   8.469  0.00  0.00    +0.000 A 
ATOM     21  C   UNL     1      46.274   3.554   7.668  0.00  0.00    +0.000 A 
BRANCH  16  22
ATOM     22  C   UNL     1      47.043   1.254   6.953  0.00  0.00    +0.000 C 
BRANCH  22  23
ATOM     23  C   UNL     1      48.352   1.930   6.534  0.00  0.00    +0.000 C 
BRANCH  23  24
ATOM     24  N   UNL     1      48.361   2.215   5.099  0.00  0.00    +0.000 NA
ATOM     25  H   UNL     1      48.065   1.384   4.589  0.00  0.00    +0.000 HD
ATOM     26  H   UNL     1      49.313   2.412   4.792  0.00  0.00    +0.000 HD
ENDBRANCH  23  24
ENDBRANCH  22  23
ENDBRANCH  16  22
ENDBRANCH  15  19
ENDBRANCH   1  15
TORSDOF 6
ENDMDL
MODEL 2
REMARK VINA RESULT:    -7.835      2.290      2.983
REMARK INTER + INTRA:         -10.681
REMARK INTER:                 -10.112
REMARK INTRA:                  -0.569
REMARK UNBOUND:                -0.327
REMARK  Name = 
REMARK  6 active torsions:
REMARK  status: ('A' for Active; 'I' for Inactive)
REMARK    1  A    between atoms: N_1  and  C_2
REMARK    2  A    between atoms: C_2  and  C_3
REMARK    3  A    between atoms: C_3  and  C_4
REMARK    4  A    between atoms: C_7  and  C_8
REMARK    5  A    between atoms: C_8  and  N_9
REMARK    6  A    between atoms: C_14  and  C_15
REMARK                            x       y       z     vdW  Elec       q    Type
REMARK                         _______ _______ _______ _____ _____    ______ ____
ROOT
ATOM      1  N   UNL     1      45.282   4.655  12.597  0.00  0.00    +0.000 N 
ATOM      2  N   UNL     1      45.777   3.567  13.235  0.00  0.00    +0.000 NA
ATOM      3  C   UNL     1      46.812   4.046  13.928  0.00  0.00    +0.000 A 
ATOM      4  C   UNL     1      47.009   5.430  13.730  0.00  0.00    +0.000 A 
ATOM      5  C   UNL     1      47.933   6.386  14.166  0.00  0.00    +0.000 A 
ATOM      6  C   UNL     1      47.750   7.677  13.679  0.00  0.00    +0.000 A 
ATOM      7  N   UNL     1      46.745   8.055  12.837  0.00  0.00    +0.000 NA
ATOM      8  C   UNL     1      45.851   7.123  12.426  0.00  0.00    +0.000 A 
ATOM      9  C   UNL     1      45.987   5.809  12.863  0.00  0.00    +0.000 A 
ENDROOT
BRANCH   6  10
ATOM     10  C   UNL     1      48.730   8.743  14.079  0.00  0.00    +0.000 C 
ATOM     11  N   UNL     1      48.221   9.794  14.794  0.00  0.00    +0.000 N 
ATOM     12  O   UNL     1      49.918   8.690  13.786  0.00  0.00    +0.000 OA
ATOM     13  H   UNL     1      47.234   9.828  15.015  0.00  0.00    +0.000 HD
ATOM     14  H   UNL     1      48.837  10.544  15.077  0.00  0.00    +0.000 HD
ENDBRANCH   6  10
BRANCH   1  15
ATOM     15  C   UNL     1      44.230   4.472  11.601  0.00  0.00    +0.000 C 
BRANCH  15  19
ATOM     16  C   UNL     1      45.807   3.122   7.797  0.00  0.00    +0.000 A 
ATOM     17  C   UNL     1      45.178   2.220   8.663  0.00  0.00    +0.000 A 
ATOM     18  C   UNL     1      44.656   2.653   9.886  0.00  0.00    +0.000 A 
ATOM     19  C   UNL     1      44.760   3.996  10.271  0.00  0.00    +0.000 A 
ATOM     20  C   UNL     1      45.372   4.901   9.390  0.00  0.00    +0.000 A 
ATOM     21  C   UNL     1      45.881   4.470   8.162  0.00  0.00    +0.000 A 
BRANCH  16  22
ATOM     22  C   UNL     1      46.385   2.646   6.485  0.00  0.00    +0.000 C 
BRANCH  22  23
ATOM     23  C   UNL     1      47.552   1.676   6.691  0.00  0.00    +0.000 C 
BRANCH  23  24
ATOM     24  N   UNL     1      48.593   1.884   5.685  0.00  0.00    +0.000 NA
ATOM     25  H   UNL     1      48.156   2.074   4.784  0.00  0.00    +0.000 HD
ATOM     26  H   UNL     1      49.132   1.028   5.564  0.00  0.00    +0.000 HD
ENDBRANCH  23  24
ENDBRANCH  22  23
ENDBRANCH  16  22
ENDBRANCH  15  19
ENDBRANCH   1  15
TORSDOF 6
ENDMDL
MODEL 3
REMARK VINA RESULT:    -7.637      2.814      7.149
REMARK INTER + INTRA:         -10.420
REMARK INTER:                  -9.944
REMARK INTRA:                  -0.476
REMARK UNBOUND:                -0.327
REMARK  Name = 
REMARK  6 active torsions:
REMARK  status: ('A' for Active; 'I' for Inactive)
REMARK    1  A    between atoms: N_1  and  C_2
REMARK    2  A    between atoms: C_2  and  C_3
REMARK    3  A    between atoms: C_3  and  C_4
REMARK    4  A    between atoms: C_7  and  C_8
REMARK    5  A    between atoms: C_8  and  N_9
REMARK    6  A    between atoms: C_14  and  C_15
REMARK                            x       y       z     vdW  Elec       q    Type
REMARK                         _______ _______ _______ _____ _____    ______ ____
ROOT
ATOM      1  N   UNL     1      43.990   4.244  10.557  0.00  0.00    +0.000 N 
ATOM      2  N   UNL     1      43.461   3.114  11.084  0.00  0.00    +0.000 NA
ATOM      3  C   UNL     1      44.043   2.134  10.390  0.00  0.00    +0.000 A 
ATOM      4  C   UNL     1      44.927   2.616   9.401  0.00  0.00    +0.000 A 
ATOM      5  C   UNL     1      45.733   2.045   8.410  0.00  0.00    +0.000 A 
ATOM      6  C   UNL     1      46.446   2.938   7.614  0.00  0.00    +0.000 A 
ATOM      7  N   UNL     1      46.415   4.295   7.750  0.00  0.00    +0.000 NA
ATOM      8  C   UNL     1      45.637   4.838   8.718  0.00  0.00    +0.000 A 
ATOM      9  C   UNL     1      44.885   4.001   9.536  0.00  0.00    +0.000 A 
ENDROOT
BRANCH   6  10
ATOM     10  C   UNL     1      47.302   2.391   6.507  0.00  0.00    +0.000 C 
ATOM     11  N   UNL     1      47.242   3.056   5.312  0.00  0.00    +0.000 N 
ATOM     12  O   UNL     1      48.013   1.404   6.651  0.00  0.00    +0.000 OA
ATOM     13  H   UNL     1      46.638   3.861   5.208  0.00  0.00    +0.000 HD
ATOM     14  H   UNL     1      47.790   2.721   4.531  0.00  0.00    +0.000 HD
ENDBRANCH   6  10
BRANCH   1  15
ATOM     15  C   UNL     1      43.448   5.537  10.966  0.00  0.00    +0.000 C 
BRANCH  15  19
ATOM     16  C   UNL     1      46.467   8.084  12.747  0.00  0.00    +0.000 A 
ATOM     17  C   UNL     1      45.455   8.635  11.953  0.00  0.00    +0.000 A 
ATOM     18  C   UNL     1      44.470   7.819  11.386  0.00  0.00    +0.000 A 
ATOM     19  C   UNL     1      44.484   6.434  11.596  0.00  0.00    +0.000 A 
ATOM     20  C   UNL     1      45.487   5.889  12.411  0.00  0.00    +0.000 A 
ATOM     21  C   UNL     1      46.463   6.706  12.988  0.00  0.00    +0.000 A 
BRANCH  16  22
ATOM     22  C   UNL     1      47.537   8.968  13.342  0.00  0.00    +0.000 C 
BRANCH  22  23
ATOM     23  C   UNL     1      48.082   8.402  14.658  0.00  0.00    +0.000 C 
BRANCH  23  24
ATOM     24  N   UNL     1      47.566   9.149  15.805  0.00  0.00    +0.000 NA
ATOM     25  H   UNL     1      46.846   9.796  15.488  0.00  0.00    +0.000 HD
ATOM     26  H   UNL     1      48.308   9.723  16.203  0.00  0.00    +0.000 HD
ENDBRANCH  23  24
ENDBRANCH  22  23
ENDBRANCH  16  22
ENDBRANCH  15  19
ENDBRANCH   1  15
TORSDOF 6
ENDMDL
MODEL 4
REMARK VINA RESULT:    -5.865      4.637      6.729
REMARK INTER + INTRA:          -8.078
REMARK INTER:                  -7.599
REMARK INTRA:                  -0.480
REMARK UNBOUND:                -0.327
REMARK  Name = 
REMARK  6 active torsions:
REMARK  status: ('A' for Active; 'I' for Inactive)
REMARK    1  A    between atoms: N_1  and  C_2
REMARK    2  A    between atoms: C_2  and  C_3
REMARK    3  A    between atoms: C_3  and  C_4
REMARK    4  A    between atoms: C_7  and  C_8
REMARK    5  A    between atoms: C_8  and  N_9
REMARK    6  A    between atoms: C_14  and  C_15
REMARK                            x       y       z     vdW  Elec       q    Type
REMARK                         _______ _______ _______ _____ _____    ______ ____
ROOT
ATOM      1  N   UNL     1      47.664   6.491  13.691  0.00  0.00    +0.000 N 
ATOM      2  N   UNL     1      47.844   5.618  14.711  0.00  0.00    +0.000 NA
ATOM      3  C   UNL     1      47.082   4.574  14.377  0.00  0.00    +0.000 A 
ATOM      4  C   UNL     1      46.391   4.769  13.162  0.00  0.00    +0.000 A 
ATOM      5  C   UNL     1      45.468   4.041  12.402  0.00  0.00    +0.000 A 
ATOM      6  C   UNL     1      45.016   4.655  11.238  0.00  0.00    +0.000 A 
ATOM      7  N   UNL     1      45.419   5.883  10.801  0.00  0.00    +0.000 NA
ATOM      8  C   UNL     1      46.318   6.578  11.540  0.00  0.00    +0.000 A 
ATOM      9  C   UNL     1      46.797   6.027  12.724  0.00  0.00    +0.000 A 
ENDROOT
BRANCH   6  10
ATOM     10  C   UNL     1      43.996   3.942  10.397  0.00  0.00    +0.000 C 
ATOM     11  N   UNL     1      43.877   4.368   9.102  0.00  0.00    +0.000 N 
ATOM     12  O   UNL     1      43.302   3.032  10.834  0.00  0.00    +0.000 OA
ATOM     13  H   UNL     1      44.449   5.130   8.763  0.00  0.00    +0.000 HD
ATOM     14  H   UNL     1      43.196   3.928   8.497  0.00  0.00    +0.000 HD
ENDBRANCH   6  10
BRANCH   1  15
ATOM     15  C   UNL     1      48.223   7.835  13.804  0.00  0.00    +0.000 C 
BRANCH  15  19
ATOM     16  C   UNL     1      52.046   8.212  11.798  0.00  0.00    +0.000 A 
ATOM     17  C   UNL     1      50.897   7.866  11.076  0.00  0.00    +0.000 A 
ATOM     18  C   UNL     1      49.659   7.756  11.715  0.00  0.00    +0.000 A 
ATOM     19  C   UNL     1      49.545   7.981  13.094  0.00  0.00    +0.000 A 
ATOM     20  C   UNL     1      50.695   8.349  13.810  0.00  0.00    +0.000 A 
ATOM     21  C   UNL     1      51.929   8.472  13.167  0.00  0.00    +0.000 A 
BRANCH  16  22
ATOM     22  C   UNL     1      53.383   8.313  11.105  0.00  0.00    +0.000 C 
BRANCH  22  23
ATOM     23  C   UNL     1      53.590   7.183  10.091  0.00  0.00    +0.000 C 
BRANCH  23  24
ATOM     24  N   UNL     1      53.902   5.922  10.765  0.00  0.00    +0.000 NA
ATOM     25  H   UNL     1      54.881   5.924  11.046  0.00  0.00    +0.000 HD
ATOM     26  H   UNL     1      53.795   5.147  10.112  0.00  0.00    +0.000 HD
ENDBRANCH  23  24
ENDBRANCH  22  23
ENDBRANCH  16  22
ENDBRANCH  15  19
ENDBRANCH   1  15
TORSDOF 6
ENDMDL
MODEL 5
REMARK VINA RESULT:    -5.769      4.048      5.882
REMARK INTER + INTRA:          -7.951
REMARK INTER:                  -7.446
REMARK INTRA:                  -0.504
REMARK UNBOUND:                -0.327
REMARK  Name = 
REMARK  6 active torsions:
REMARK  status: ('A' for Active; 'I' for Inactive)
REMARK    1  A    between atoms: N_1  and  C_2
REMARK    2  A    between atoms: C_2  and  C_3
REMARK    3  A    between atoms: C_3  and  C_4
REMARK    4  A    between atoms: C_7  and  C_8
REMARK    5  A    between atoms: C_8  and  N_9
REMARK    6  A    between atoms: C_14  and  C_15
REMARK                            x       y       z     vdW  Elec       q    Type
REMARK                         _______ _______ _______ _____ _____    ______ ____
ROOT
ATOM      1  N   UNL     1      48.701   7.240  15.052  0.00  0.00    +0.000 N 
ATOM      2  N   UNL     1      48.687   8.586  15.205  0.00  0.00    +0.000 NA
ATOM      3  C   UNL     1      48.626   8.757  16.527  0.00  0.00    +0.000 A 
ATOM      4  C   UNL     1      48.577   7.536  17.234  0.00  0.00    +0.000 A 
ATOM      5  C   UNL     1      48.472   7.155  18.577  0.00  0.00    +0.000 A 
ATOM      6  C   UNL     1      48.433   5.786  18.821  0.00  0.00    +0.000 A 
ATOM      7  N   UNL     1      48.504   4.822  17.859  0.00  0.00    +0.000 NA
ATOM      8  C   UNL     1      48.613   5.200  16.561  0.00  0.00    +0.000 A 
ATOM      9  C   UNL     1      48.639   6.555  16.247  0.00  0.00    +0.000 A 
ENDROOT
BRANCH   6  10
ATOM     10  C   UNL     1      48.284   5.312  20.239  0.00  0.00    +0.000 C 
ATOM     11  N   UNL     1      48.614   4.005  20.477  0.00  0.00    +0.000 N 
ATOM     12  O   UNL     1      47.886   6.041  21.139  0.00  0.00    +0.000 OA
ATOM     13  H   UNL     1      48.927   3.413  19.718  0.00  0.00    +0.000 HD
ATOM     14  H   UNL     1      48.520   3.633  21.413  0.00  0.00    +0.000 HD
ENDBRANCH   6  10
BRANCH   1  15
ATOM     15  C   UNL     1      48.592   6.680  13.707  0.00  0.00    +0.000 C 
BRANCH  15  19
ATOM     16  C   UNL     1      44.620   5.157  12.883  0.00  0.00    +0.000 A 
ATOM     17  C   UNL     1      44.901   6.520  12.734  0.00  0.00    +0.000 A 
ATOM     18  C   UNL     1      46.184   7.015  12.986  0.00  0.00    +0.000 A 
ATOM     19  C   UNL     1      47.211   6.157  13.401  0.00  0.00    +0.000 A 
ATOM     20  C   UNL     1      46.931   4.787  13.528  0.00  0.00    +0.000 A 
ATOM     21  C   UNL     1      45.652   4.292  13.262  0.00  0.00    +0.000 A 
BRANCH  16  22
ATOM     22  C   UNL     1      43.228   4.630  12.626  0.00  0.00    +0.000 C 
BRANCH  22  23
ATOM     23  C   UNL     1      43.160   3.791  11.346  0.00  0.00    +0.000 C 
BRANCH  23  24
ATOM     24  N   UNL     1      43.029   2.368  11.657  0.00  0.00    +0.000 NA
ATOM     25  H   UNL     1      42.175   2.009  11.233  0.00  0.00    +0.000 HD
ATOM     26  H   UNL     1      42.921   2.244  12.662  0.00  0.00    +0.000 HD
ENDBRANCH  23  24
ENDBRANCH  22  23
ENDBRANCH  16  22
ENDBRANCH  15  19
ENDBRANCH   1  15
TORSDOF 6
ENDMDL
MODEL 6
REMARK VINA RESULT:    -5.766      3.185      3.797
REMARK INTER + INTRA:          -7.948
REMARK INTER:                  -7.472
REMARK INTRA:                  -0.476
REMARK UNBOUND:                -0.327
REMARK  Name = 
REMARK  6 active torsions:
REMARK  status: ('A' for Active; 'I' for Inactive)
REMARK    1  A    between atoms: N_1  and  C_2
REMARK    2  A    between atoms: C_2  and  C_3
REMARK    3  A    between atoms: C_3  and  C_4
REMARK    4  A    between atoms: C_7  and  C_8
REMARK    5  A    between atoms: C_8  and  N_9
REMARK    6  A    between atoms: C_14  and  C_15
REMARK                            x       y       z     vdW  Elec       q    Type
REMARK                         _______ _______ _______ _____ _____    ______ ____
ROOT
ATOM      1  N   UNL     1      45.751   7.479  12.654  0.00  0.00    +0.000 N 
ATOM      2  N   UNL     1      45.257   8.694  12.316  0.00  0.00    +0.000 NA
ATOM      3  C   UNL     1      46.301   9.514  12.455  0.00  0.00    +0.000 A 
ATOM      4  C   UNL     1      47.462   8.849  12.902  0.00  0.00    +0.000 A 
ATOM      5  C   UNL     1      48.769   9.222  13.236  0.00  0.00    +0.000 A 
ATOM      6  C   UNL     1      49.604   8.197  13.669  0.00  0.00    +0.000 A 
ATOM      7  N   UNL     1      49.238   6.887  13.771  0.00  0.00    +0.000 NA
ATOM      8  C   UNL     1      47.972   6.533  13.439  0.00  0.00    +0.000 A 
ATOM      9  C   UNL     1      47.081   7.514  13.014  0.00  0.00    +0.000 A 
ENDROOT
BRANCH   6  10
ATOM     10  C   UNL     1      51.009   8.537  14.078  0.00  0.00    +0.000 C 
ATOM     11  N   UNL     1      52.009   7.937  13.361  0.00  0.00    +0.000 N 
ATOM     12  O   UNL     1      51.259   9.302  15.001  0.00  0.00    +0.000 OA
ATOM     13  H   UNL     1      51.784   7.297  12.611  0.00  0.00    +0.000 HD
ATOM     14  H   UNL     1      52.973   8.124  13.604  0.00  0.00    +0.000 HD
ENDBRANCH   6  10
BRANCH   1  15
ATOM     15  C   UNL     1      44.831   6.352  12.781  0.00  0.00    +0.000 C 
BRANCH  15  19
ATOM     16  C   UNL     1      45.054   3.656   9.395  0.00  0.00    +0.000 A 
ATOM     17  C   UNL     1      44.380   3.275  10.561  0.00  0.00    +0.000 A 
ATOM     18  C   UNL     1      44.293   4.146  11.652  0.00  0.00    +0.000 A 
ATOM     19  C   UNL     1      44.888   5.414  11.601  0.00  0.00    +0.000 A 
ATOM     20  C   UNL     1      45.544   5.800  10.422  0.00  0.00    +0.000 A 
ATOM     21  C   UNL     1      45.618   4.934   9.329  0.00  0.00    +0.000 A 
BRANCH  16  22
ATOM     22  C   UNL     1      45.159   2.705   8.227  0.00  0.00    +0.000 C 
BRANCH  22  23
ATOM     23  C   UNL     1      46.050   3.262   7.112  0.00  0.00    +0.000 C 
BRANCH  23  24
ATOM     24  N   UNL     1      47.326   2.549   7.054  0.00  0.00    +0.000 NA
ATOM     25  H   UNL     1      47.150   1.545   7.050  0.00  0.00    +0.000 HD
ATOM     26  H   UNL     1      47.866   2.740   7.897  0.00  0.00    +0.000 HD
ENDBRANCH  23  24
ENDBRANCH  22  23
ENDBRANCH  16  22
ENDBRANCH  15  19
ENDBRANCH   1  15
TORSDOF 6
ENDMDL
MODEL 7
REMARK VINA RESULT:    -5.507      2.883      3.932
REMARK INTER + INTRA:          -7.605
REMARK INTER:                  -7.109
REMARK INTRA:                  -0.496
REMARK UNBOUND:                -0.327
REMARK  Name = 
REMARK  6 active torsions:
REMARK  status: ('A' for Active; 'I' for Inactive)
REMARK    1  A    between atoms: N_1  and  C_2
REMARK    2  A    between atoms: C_2  and  C_3
REMARK    3  A    between atoms: C_3  and  C_4
REMARK    4  A    between atoms: C_7  and  C_8
REMARK    5  A    between atoms: C_8  and  N_9
REMARK    6  A    between atoms: C_14  and  C_15
REMARK                            x       y       z     vdW  Elec       q    Type
REMARK                         _______ _______ _______ _____ _____    ______ ____
ROOT
ATOM      1  N   UNL     1      47.279   7.012  13.105  0.00  0.00    +0.000 N 
ATOM      2  N   UNL     1      47.903   7.850  12.242  0.00  0.00    +0.000 NA
ATOM      3  C   UNL     1      49.109   8.028  12.784  0.00  0.00    +0.000 A 
ATOM      4  C   UNL     1      49.269   7.333  14.002  0.00  0.00    +0.000 A 
ATOM      5  C   UNL     1      50.278   7.208  14.963  0.00  0.00    +0.000 A 
ATOM      6  C   UNL     1      49.980   6.406  16.061  0.00  0.00    +0.000 A 
ATOM      7  N   UNL     1      48.802   5.742  16.241  0.00  0.00    +0.000 NA
ATOM      8  C   UNL     1      47.833   5.863  15.300  0.00  0.00    +0.000 A 
ATOM      9  C   UNL     1      48.061   6.665  14.187  0.00  0.00    +0.000 A 
ENDROOT
BRANCH   6  10
ATOM     10  C   UNL     1      51.007   6.261  17.147  0.00  0.00    +0.000 C 
ATOM     11  N   UNL     1      51.932   5.265  16.976  0.00  0.00    +0.000 N 
ATOM     12  O   UNL     1      51.026   6.982  18.137  0.00  0.00    +0.000 OA
ATOM     13  H   UNL     1      51.892   4.670  16.159  0.00  0.00    +0.000 HD
ATOM     14  H   UNL     1      52.638   5.118  17.685  0.00  0.00    +0.000 HD
ENDBRANCH   6  10
BRANCH   1  15
ATOM     15  C   UNL     1      45.859   6.731  12.916  0.00  0.00    +0.000 C 
BRANCH  15  19
ATOM     16  C   UNL     1      45.096   3.404  10.246  0.00  0.00    +0.000 A 
ATOM     17  C   UNL     1      45.251   4.699   9.738  0.00  0.00    +0.000 A 
ATOM     18  C   UNL     1      45.510   5.774  10.594  0.00  0.00    +0.000 A 
ATOM     19  C   UNL     1      45.611   5.576  11.977  0.00  0.00    +0.000 A 
ATOM     20  C   UNL     1      45.478   4.273  12.480  0.00  0.00    +0.000 A 
ATOM     21  C   UNL     1      45.232   3.198  11.623  0.00  0.00    +0.000 A 
BRANCH  16  22
ATOM     22  C   UNL     1      44.799   2.249   9.319  0.00  0.00    +0.000 C 
BRANCH  22  23
ATOM     23  C   UNL     1      45.819   2.152   8.181  0.00  0.00    +0.000 C 
BRANCH  23  24
ATOM     24  N   UNL     1      46.371   0.800   8.083  0.00  0.00    +0.000 NA
ATOM     25  H   UNL     1      46.418   0.526   7.103  0.00  0.00    +0.000 HD
ATOM     26  H   UNL     1      45.740   0.138   8.533  0.00  0.00    +0.000 HD
ENDBRANCH  23  24
ENDBRANCH  22  23
ENDBRANCH  16  22
ENDBRANCH  15  19
ENDBRANCH   1  15
TORSDOF 6
ENDMDL
