MODEL 1
REMARK VINA RESULT:    -8.603      0.000      0.000
REMARK INTER + INTRA:         -12.232
REMARK INTER:                 -11.369
REMARK INTRA:                  -0.863
REMARK UNBOUND:                -0.863
REMARK  Name = 
REMARK  7 active torsions:
REMARK  status: ('A' for Active; 'I' for Inactive)
REMARK    1  A    between atoms: C_1  and  C_2
REMARK    2  A    between atoms: C_2  and  N_3
REMARK    3  A    between atoms: C_2  and  C_17
REMARK    4  A    between atoms: C_4  and  C_6
REMARK    5  A    between atoms: C_12  and  N_13
REMARK    6  A    between atoms: C_20  and  C_21
REMARK    7  A    between atoms: C_21  and  C_22
REMARK                            x       y       z     vdW  Elec       q    Type
REMARK                         _______ _______ _______ _____ _____    ______ ____
ROOT
ATOM      1  N   UNL     1      46.713   6.155  13.996  0.00  0.00    +0.000 N 
ATOM      2  C   UNL     1      47.916   5.920  14.582  0.00  0.00    +0.000 C 
ATOM      3  O   UNL     1      48.985   6.230  14.060  0.00  0.00    +0.000 OA
ATOM      4  H   UNL     1      45.866   5.953  14.510  0.00  0.00    +0.000 HD
ENDROOT
BRANCH   2   5
ATOM      5  C   UNL     1      47.893   5.213  15.904  0.00  0.00    +0.000 A 
ATOM      6  C   UNL     1      47.471   3.937  15.902  0.00  0.00    +0.000 A 
ATOM      7  S   UNL     1      47.508   3.232  17.486  0.00  0.00    +0.000 S 
ATOM      8  C   UNL     1      48.139   4.724  18.155  0.00  0.00    +0.000 A 
ATOM      9  N   UNL     1      48.439   4.852  19.403  0.00  0.00    +0.000 NA
ATOM     10  C   UNL     1      48.905   6.082  19.775  0.00  0.00    +0.000 A 
ATOM     11  C   UNL     1      49.076   7.135  18.966  0.00  0.00    +0.000 A 
ATOM     12  C   UNL     1      48.766   6.912  17.506  0.00  0.00    +0.000 A 
ATOM     13  O   UNL     1      48.988   7.851  16.740  0.00  0.00    +0.000 OA
ATOM     14  N   UNL     1      48.261   5.680  17.165  0.00  0.00    +0.000 N 
BRANCH  11  15
ATOM     15  N   UNL     1      49.520   8.392  19.333  0.00  0.00    +0.000 N 
ATOM     16  H   UNL     1      49.524   9.075  18.581  0.00  0.00    +0.000 HD
ATOM     17  H   UNL     1      49.048   8.724  20.179  0.00  0.00    +0.000 HD
ENDBRANCH  11  15
ENDBRANCH   2   5
BRANCH   1  19
ATOM     18  C   UNL     1      45.613   8.075  12.969  0.00  0.00    +0.000 C 
ATOM     19  C   UNL     1      46.513   6.856  12.744  0.00  0.00    +0.000 C 
BRANCH  19  20
ATOM     20  C   UNL     1      45.930   5.888  11.732  0.00  0.00    +0.000 A 
ATOM     21  C   UNL     1      46.089   6.143  10.365  0.00  0.00    +0.000 A 
ATOM     22  C   UNL     1      45.616   5.239   9.412  0.00  0.00    +0.000 A 
ATOM     23  C   UNL     1      44.975   4.056   9.802  0.00  0.00    +0.000 A 
ATOM     24  C   UNL     1      44.815   3.797  11.169  0.00  0.00    +0.000 A 
ATOM     25  C   UNL     1      45.283   4.705  12.123  0.00  0.00    +0.000 A 
BRANCH  23  26
ATOM     26  C   UNL     1      44.520   3.053   8.766  0.00  0.00    +0.000 C 
BRANCH  26  27
ATOM     27  C   UNL     1      45.628   2.617   7.835  0.00  0.00    +0.000 A 
ATOM     28  C   UNL     1      46.359   1.449   8.095  0.00  0.00    +0.000 A 
ATOM     29  C   UNL     1      47.425   1.082   7.273  0.00  0.00    +0.000 A 
ATOM     30  C   UNL     1      47.771   1.877   6.180  0.00  0.00    +0.000 A 
ATOM     31  C   UNL     1      47.044   3.032   5.904  0.00  0.00    +0.000 A 
ATOM     32  C   UNL     1      45.977   3.401   6.725  0.00  0.00    +0.000 A 
ENDBRANCH  26  27
ENDBRANCH  23  26
ENDBRANCH  19  20
ENDBRANCH   1  19
TORSDOF 6
ENDMDL
MODEL 2
REMARK VINA RESULT:    -8.205      3.076      3.792
REMARK INTER + INTRA:         -11.705
REMARK INTER:                 -10.521
REMARK INTRA:                  -1.184
REMARK UNBOUND:                -0.863
REMARK  Name = 
REMARK  7 active torsions:
REMARK  status: ('A' for Active; 'I' for Inactive)
REMARK    1  A    between atoms: C_1  and  C_2
REMARK    2  A    between atoms: C_2  and  N_3
REMARK    3  A    between atoms: C_2  and  C_17
REMARK    4  A    between atoms: C_4  and  C_6
REMARK    5  A    between atoms: C_12  and  N_13
REMARK    6  A    between atoms: C_20  and  C_21
REMARK    7  A    between atoms: C_21  and  C_22
REMARK                            x       y       z     vdW  Elec       q    Type
REMARK                         _______ _______ _______ _____ _____    ______ ____
ROOT
ATOM      1  N   UNL     1      47.626   6.383  13.384  0.00  0.00    +0.000 N 
ATOM      2  C   UNL     1      47.733   7.736  13.438  0.00  0.00    +0.000 C 
ATOM      3  O   UNL     1      46.773   8.474  13.654  0.00  0.00    +0.000 OA
ATOM      4  H   UNL     1      48.464   5.826  13.284  0.00  0.00    +0.000 HD
ENDROOT
BRANCH   2   5
ATOM      5  C   UNL     1      49.091   8.314  13.175  0.00  0.00    +0.000 A 
ATOM      6  C   UNL     1      49.200   9.163  12.139  0.00  0.00    +0.000 A 
ATOM      7  S   UNL     1      50.813   9.770  11.954  0.00  0.00    +0.000 S 
ATOM      8  C   UNL     1      51.338   8.849  13.350  0.00  0.00    +0.000 A 
ATOM      9  N   UNL     1      52.547   8.897  13.798  0.00  0.00    +0.000 NA
ATOM     10  C   UNL     1      52.806   8.109  14.884  0.00  0.00    +0.000 A 
ATOM     11  C   UNL     1      51.925   7.317  15.508  0.00  0.00    +0.000 A 
ATOM     12  C   UNL     1      50.512   7.344  14.980  0.00  0.00    +0.000 A 
ATOM     13  O   UNL     1      49.677   6.676  15.590  0.00  0.00    +0.000 OA
ATOM     14  N   UNL     1      50.288   8.114  13.862  0.00  0.00    +0.000 N 
BRANCH  11  15
ATOM     15  N   UNL     1      52.180   6.495  16.591  0.00  0.00    +0.000 N 
ATOM     16  H   UNL     1      51.787   6.820  17.469  0.00  0.00    +0.000 HD
ATOM     17  H   UNL     1      51.951   5.519  16.381  0.00  0.00    +0.000 HD
ENDBRANCH  11  15
ENDBRANCH   2   5
BRANCH   1  19
ATOM     18  C   UNL     1      46.721   4.486  14.621  0.00  0.00    +0.000 C 
ATOM     19  C   UNL     1      46.418   5.627  13.645  0.00  0.00    +0.000 C 
BRANCH  19  20
ATOM     20  C   UNL     1      45.865   5.124  12.325  0.00  0.00    +0.000 A 
ATOM     21  C   UNL     1      46.048   5.888  11.166  0.00  0.00    +0.000 A 
ATOM     22  C   UNL     1      45.602   5.422   9.928  0.00  0.00    +0.000 A 
ATOM     23  C   UNL     1      44.968   4.177   9.816  0.00  0.00    +0.000 A 
ATOM     24  C   UNL     1      44.784   3.410  10.973  0.00  0.00    +0.000 A 
ATOM     25  C   UNL     1      45.223   3.880  12.214  0.00  0.00    +0.000 A 
BRANCH  23  26
ATOM     26  C   UNL     1      44.543   3.652   8.464  0.00  0.00    +0.000 C 
BRANCH  26  27
ATOM     27  C   UNL     1      45.634   2.879   7.758  0.00  0.00    +0.000 A 
ATOM     28  C   UNL     1      45.985   1.591   8.185  0.00  0.00    +0.000 A 
ATOM     29  C   UNL     1      47.037   0.905   7.576  0.00  0.00    +0.000 A 
ATOM     30  C   UNL     1      47.748   1.497   6.533  0.00  0.00    +0.000 A 
ATOM     31  C   UNL     1      47.400   2.771   6.091  0.00  0.00    +0.000 A 
ATOM     32  C   UNL     1      46.348   3.460   6.699  0.00  0.00    +0.000 A 
ENDBRANCH  26  27
ENDBRANCH  23  26
ENDBRANCH  19  20
ENDBRANCH   1  19
TORSDOF 6
ENDMDL
MODEL 3
REMARK VINA RESULT:    -7.793      1.831      2.777
REMARK INTER + INTRA:         -11.161
REMARK INTER:                  -9.944
REMARK INTRA:                  -1.218
REMARK UNBOUND:                -0.863
REMARK  Name = 
REMARK  7 active torsions:
REMARK  status: ('A' for Active; 'I' for Inactive)
REMARK    1  A    between atoms: C_1  and  C_2
REMARK    2  A    between atoms: C_2  and  N_3
REMARK    3  A    between atoms: C_2  and  C_17
REMARK    4  A    between atoms: C_4  and  C_6
REMARK    5  A    between atoms: C_12  and  N_13
REMARK    6  A    between atoms: C_20  and  C_21
REMARK    7  A    between atoms: C_21  and  C_22
REMARK                            x       y       z     vdW  Elec       q    Type
REMARK                         _______ _______ _______ _____ _____    ______ ____
ROOT
ATOM      1  N   UNL     1      47.877   7.984  14.840  0.00  0.00    +0.000 N 
ATOM      2  C   UNL     1      48.947   7.795  15.653  0.00  0.00    +0.000 C 
ATOM      3  O   UNL     1      50.100   7.710  15.232  0.00  0.00    +0.000 OA
ATOM      4  H   UNL     1      46.964   8.128  15.251  0.00  0.00    +0.000 HD
ENDROOT
BRANCH   2   5
ATOM      5  C   UNL     1      48.661   7.647  17.117  0.00  0.00    +0.000 A 
ATOM      6  C   UNL     1      48.260   8.750  17.772  0.00  0.00    +0.000 A 
ATOM      7  S   UNL     1      47.947   8.440  19.449  0.00  0.00    +0.000 S 
ATOM      8  C   UNL     1      48.360   6.751  19.232  0.00  0.00    +0.000 A 
ATOM      9  N   UNL     1      48.293   5.892  20.192  0.00  0.00    +0.000 NA
ATOM     10  C   UNL     1      48.662   4.616  19.870  0.00  0.00    +0.000 A 
ATOM     11  C   UNL     1      49.071   4.197  18.666  0.00  0.00    +0.000 A 
ATOM     12  C   UNL     1      49.074   5.229  17.566  0.00  0.00    +0.000 A 
ATOM     13  O   UNL     1      49.379   4.839  16.437  0.00  0.00    +0.000 OA
ATOM     14  N   UNL     1      48.737   6.513  17.925  0.00  0.00    +0.000 N 
BRANCH  11  15
ATOM     15  N   UNL     1      49.474   2.916  18.333  0.00  0.00    +0.000 N 
ATOM     16  H   UNL     1      49.111   2.188  18.940  0.00  0.00    +0.000 HD
ATOM     17  H   UNL     1      49.325   2.725  17.337  0.00  0.00    +0.000 HD
ENDBRANCH  11  15
ENDBRANCH   2   5
BRANCH   1  19
ATOM     18  C   UNL     1      47.693   9.665  13.082  0.00  0.00    +0.000 C 
ATOM     19  C   UNL     1      47.938   8.188  13.407  0.00  0.00    +0.000 C 
BRANCH  19  20
ATOM     20  C   UNL     1      46.925   7.276  12.742  0.00  0.00    +0.000 A 
ATOM     21  C   UNL     1      45.912   7.834  11.952  0.00  0.00    +0.000 A 
ATOM     22  C   UNL     1      45.002   7.016  11.279  0.00  0.00    +0.000 A 
ATOM     23  C   UNL     1      45.086   5.620  11.374  0.00  0.00    +0.000 A 
ATOM     24  C   UNL     1      46.098   5.060  12.162  0.00  0.00    +0.000 A 
ATOM     25  C   UNL     1      47.005   5.878  12.842  0.00  0.00    +0.000 A 
BRANCH  23  26
ATOM     26  C   UNL     1      44.135   4.740  10.594  0.00  0.00    +0.000 C 
BRANCH  26  27
ATOM     27  C   UNL     1      44.831   3.896   9.550  0.00  0.00    +0.000 A 
ATOM     28  C   UNL     1      44.795   2.496   9.627  0.00  0.00    +0.000 A 
ATOM     29  C   UNL     1      45.492   1.717   8.701  0.00  0.00    +0.000 A 
ATOM     30  C   UNL     1      46.230   2.328   7.688  0.00  0.00    +0.000 A 
ATOM     31  C   UNL     1      46.262   3.717   7.594  0.00  0.00    +0.000 A 
ATOM     32  C   UNL     1      45.566   4.498   8.519  0.00  0.00    +0.000 A 
ENDBRANCH  26  27
ENDBRANCH  23  26
ENDBRANCH  19  20
ENDBRANCH   1  19
TORSDOF 6
ENDMDL
MODEL 4
REMARK VINA RESULT:    -7.519      2.986      4.158
REMARK INTER + INTRA:         -10.800
REMARK INTER:                  -9.694
REMARK INTRA:                  -1.105
REMARK UNBOUND:                -0.863
REMARK  Name = 
REMARK  7 active torsions:
REMARK  status: ('A' for Active; 'I' for Inactive)
REMARK    1  A    between atoms: C_1  and  C_2
REMARK    2  A    between atoms: C_2  and  N_3
REMARK    3  A    between atoms: C_2  and  C_17
REMARK    4  A    between atoms: C_4  and  C_6
REMARK    5  A    between atoms: C_12  and  N_13
REMARK    6  A    between atoms: C_20  and  C_21
REMARK    7  A    between atoms: C_21  and  C_22
REMARK                            x       y       z     vdW  Elec       q    Type
REMARK                         _______ _______ _______ _____ _____    ______ ____
ROOT
ATOM      1  N   UNL     1      48.021   5.875  14.848  0.00  0.00    +0.000 N 
ATOM      2  C   UNL     1      48.683   6.551  15.823  0.00  0.00    +0.000 C 
ATOM      3  O   UNL     1      48.405   6.444  17.016  0.00  0.00    +0.000 OA
ATOM      4  H   UNL     1      48.348   5.941  13.893  0.00  0.00    +0.000 HD
ENDROOT
BRANCH   2   5
ATOM      5  C   UNL     1      49.764   7.487  15.376  0.00  0.00    +0.000 A 
ATOM      6  C   UNL     1      51.025   7.163  15.712  0.00  0.00    +0.000 A 
ATOM      7  S   UNL     1      52.178   8.317  15.122  0.00  0.00    +0.000 S 
ATOM      8  C   UNL     1      50.893   9.249  14.381  0.00  0.00    +0.000 A 
ATOM      9  N   UNL     1      51.118  10.318  13.694  0.00  0.00    +0.000 NA
ATOM     10  C   UNL     1      50.011  10.943  13.193  0.00  0.00    +0.000 A 
ATOM     11  C   UNL     1      48.743  10.540  13.349  0.00  0.00    +0.000 A 
ATOM     12  C   UNL     1      48.541   9.253  14.110  0.00  0.00    +0.000 A 
ATOM     13  O   UNL     1      47.386   8.834  14.198  0.00  0.00    +0.000 OA
ATOM     14  N   UNL     1      49.667   8.666  14.637  0.00  0.00    +0.000 N 
BRANCH  11  15
ATOM     15  N   UNL     1      47.612  11.176  12.871  0.00  0.00    +0.000 N 
ATOM     16  H   UNL     1      47.168  10.714  12.084  0.00  0.00    +0.000 HD
ATOM     17  H   UNL     1      46.961  11.401  13.629  0.00  0.00    +0.000 HD
ENDBRANCH  11  15
ENDBRANCH   2   5
BRANCH   1  19
ATOM     18  C   UNL     1      47.582   3.599  15.607  0.00  0.00    +0.000 C 
ATOM     19  C   UNL     1      46.975   4.898  15.067  0.00  0.00    +0.000 C 
BRANCH  19  20
ATOM     20  C   UNL     1      46.226   4.686  13.765  0.00  0.00    +0.000 A 
ATOM     21  C   UNL     1      45.820   5.797  13.016  0.00  0.00    +0.000 A 
ATOM     22  C   UNL     1      45.184   5.632  11.784  0.00  0.00    +0.000 A 
ATOM     23  C   UNL     1      44.942   4.351  11.268  0.00  0.00    +0.000 A 
ATOM     24  C   UNL     1      45.348   3.238  12.014  0.00  0.00    +0.000 A 
ATOM     25  C   UNL     1      45.979   3.403  13.251  0.00  0.00    +0.000 A 
BRANCH  23  26
ATOM     26  C   UNL     1      44.307   4.181   9.906  0.00  0.00    +0.000 C 
BRANCH  26  27
ATOM     27  C   UNL     1      45.201   3.462   8.921  0.00  0.00    +0.000 A 
ATOM     28  C   UNL     1      45.313   2.065   8.949  0.00  0.00    +0.000 A 
ATOM     29  C   UNL     1      46.188   1.406   8.084  0.00  0.00    +0.000 A 
ATOM     30  C   UNL     1      46.960   2.136   7.181  0.00  0.00    +0.000 A 
ATOM     31  C   UNL     1      46.848   3.524   7.135  0.00  0.00    +0.000 A 
ATOM     32  C   UNL     1      45.973   4.185   7.999  0.00  0.00    +0.000 A 
ENDBRANCH  26  27
ENDBRANCH  23  26
ENDBRANCH  19  20
ENDBRANCH   1  19
TORSDOF 6
ENDMDL
MODEL 5
REMARK VINA RESULT:    -7.491      1.714      2.751
REMARK INTER + INTRA:         -10.762
REMARK INTER:                  -9.438
REMARK INTRA:                  -1.324
REMARK UNBOUND:                -0.863
REMARK  Name = 
REMARK  7 active torsions:
REMARK  status: ('A' for Active; 'I' for Inactive)
REMARK    1  A    between atoms: C_1  and  C_2
REMARK    2  A    between atoms: C_2  and  N_3
REMARK    3  A    between atoms: C_2  and  C_17
REMARK    4  A    between atoms: C_4  and  C_6
REMARK    5  A    between atoms: C_12  and  N_13
REMARK    6  A    between atoms: C_20  and  C_21
REMARK    7  A    between atoms: C_21  and  C_22
REMARK                            x       y       z     vdW  Elec       q    Type
REMARK                         _______ _______ _______ _____ _____    ______ ____
ROOT
ATOM      1  N   UNL     1      48.241   7.157  15.589  0.00  0.00    +0.000 N 
ATOM      2  C   UNL     1      49.229   6.555  16.300  0.00  0.00    +0.000 C 
ATOM      3  O   UNL     1      50.362   6.378  15.853  0.00  0.00    +0.000 OA
ATOM      4  H   UNL     1      47.356   7.348  16.039  0.00  0.00    +0.000 HD
ENDROOT
BRANCH   2   5
ATOM      5  C   UNL     1      48.869   6.065  17.670  0.00  0.00    +0.000 A 
ATOM      6  C   UNL     1      49.104   4.768  17.932  0.00  0.00    +0.000 A 
ATOM      7  S   UNL     1      48.659   4.333  19.551  0.00  0.00    +0.000 S 
ATOM      8  C   UNL     1      48.159   5.982  19.874  0.00  0.00    +0.000 A 
ATOM      9  N   UNL     1      47.717   6.359  21.025  0.00  0.00    +0.000 NA
ATOM     10  C   UNL     1      47.351   7.673  21.116  0.00  0.00    +0.000 A 
ATOM     11  C   UNL     1      47.422   8.578  20.132  0.00  0.00    +0.000 A 
ATOM     12  C   UNL     1      48.002   8.098  18.824  0.00  0.00    +0.000 A 
ATOM     13  O   UNL     1      48.140   8.938  17.934  0.00  0.00    +0.000 OA
ATOM     14  N   UNL     1      48.324   6.763  18.747  0.00  0.00    +0.000 N 
BRANCH  11  15
ATOM     15  N   UNL     1      47.031   9.903  20.201  0.00  0.00    +0.000 N 
ATOM     16  H   UNL     1      46.280  10.088  20.858  0.00  0.00    +0.000 HD
ATOM     17  H   UNL     1      47.837  10.524  20.321  0.00  0.00    +0.000 HD
ENDBRANCH  11  15
ENDBRANCH   2   5
BRANCH   1  19
ATOM     18  C   UNL     1      48.182   9.250  14.337  0.00  0.00    +0.000 C 
ATOM     19  C   UNL     1      48.390   7.734  14.268  0.00  0.00    +0.000 C 
BRANCH  19  20
ATOM     20  C   UNL     1      47.408   7.060  13.329  0.00  0.00    +0.000 A 
ATOM     21  C   UNL     1      47.210   5.677  13.418  0.00  0.00    +0.000 A 
ATOM     22  C   UNL     1      46.269   5.038  12.608  0.00  0.00    +0.000 A 
ATOM     23  C   UNL     1      45.498   5.768  11.693  0.00  0.00    +0.000 A 
ATOM     24  C   UNL     1      45.693   7.152  11.602  0.00  0.00    +0.000 A 
ATOM     25  C   UNL     1      46.640   7.790  12.408  0.00  0.00    +0.000 A 
BRANCH  23  26
ATOM     26  C   UNL     1      44.438   5.080  10.862  0.00  0.00    +0.000 C 
BRANCH  26  27
ATOM     27  C   UNL     1      45.013   4.150   9.819  0.00  0.00    +0.000 A 
ATOM     28  C   UNL     1      45.718   4.661   8.720  0.00  0.00    +0.000 A 
ATOM     29  C   UNL     1      46.191   3.808   7.722  0.00  0.00    +0.000 A 
ATOM     30  C   UNL     1      45.968   2.434   7.812  0.00  0.00    +0.000 A 
ATOM     31  C   UNL     1      45.281   1.913   8.906  0.00  0.00    +0.000 A 
ATOM     32  C   UNL     1      44.807   2.765   9.905  0.00  0.00    +0.000 A 
ENDBRANCH  26  27
ENDBRANCH  23  26
ENDBRANCH  19  20
ENDBRANCH   1  19
TORSDOF 6
ENDMDL
MODEL 6
REMARK VINA RESULT:    -6.893      3.641     10.194
REMARK INTER + INTRA:          -9.971
REMARK INTER:                  -8.806
REMARK INTRA:                  -1.165
REMARK UNBOUND:                -0.863
REMARK  Name = 
REMARK  7 active torsions:
REMARK  status: ('A' for Active; 'I' for Inactive)
REMARK    1  A    between atoms: C_1  and  C_2
REMARK    2  A    between atoms: C_2  and  N_3
REMARK    3  A    between atoms: C_2  and  C_17
REMARK    4  A    between atoms: C_4  and  C_6
REMARK    5  A    between atoms: C_12  and  N_13
REMARK    6  A    between atoms: C_20  and  C_21
REMARK    7  A    between atoms: C_21  and  C_22
REMARK                            x       y       z     vdW  Elec       q    Type
REMARK                         _______ _______ _______ _____ _____    ______ ____
ROOT
ATOM      1  N   UNL     1      47.061   5.179  15.163  0.00  0.00    +0.000 N 
ATOM      2  C   UNL     1      47.400   5.719  13.964  0.00  0.00    +0.000 C 
ATOM      3  O   UNL     1      48.567   5.902  13.620  0.00  0.00    +0.000 OA
ATOM      4  H   UNL     1      46.088   4.977  15.355  0.00  0.00    +0.000 HD
ENDROOT
BRANCH   2   5
ATOM      5  C   UNL     1      46.271   6.134  13.070  0.00  0.00    +0.000 A 
ATOM      6  C   UNL     1      46.215   7.432  12.724  0.00  0.00    +0.000 A 
ATOM      7  S   UNL     1      44.877   7.775  11.677  0.00  0.00    +0.000 S 
ATOM      8  C   UNL     1      44.401   6.089  11.703  0.00  0.00    +0.000 A 
ATOM      9  N   UNL     1      43.396   5.641  11.029  0.00  0.00    +0.000 NA
ATOM     10  C   UNL     1      43.142   4.305  11.165  0.00  0.00    +0.000 A 
ATOM     11  C   UNL     1      43.840   3.445  11.916  0.00  0.00    +0.000 A 
ATOM     12  C   UNL     1      45.041   4.009  12.636  0.00  0.00    +0.000 A 
ATOM     13  O   UNL     1      45.733   3.213  13.272  0.00  0.00    +0.000 OA
ATOM     14  N   UNL     1      45.250   5.363  12.515  0.00  0.00    +0.000 N 
BRANCH  11  15
ATOM     15  N   UNL     1      43.579   2.097  12.084  0.00  0.00    +0.000 N 
ATOM     16  H   UNL     1      42.930   1.706  11.409  0.00  0.00    +0.000 HD
ATOM     17  H   UNL     1      44.444   1.557  12.174  0.00  0.00    +0.000 HD
ENDBRANCH  11  15
ENDBRANCH   2   5
BRANCH   1  19
ATOM     18  C   UNL     1      47.656   3.225  16.496  0.00  0.00    +0.000 C 
ATOM     19  C   UNL     1      47.993   4.679  16.152  0.00  0.00    +0.000 C 
BRANCH  19  20
ATOM     20  C   UNL     1      47.945   5.584  17.368  0.00  0.00    +0.000 A 
ATOM     21  C   UNL     1      47.202   5.193  18.488  0.00  0.00    +0.000 A 
ATOM     22  C   UNL     1      47.189   5.977  19.644  0.00  0.00    +0.000 A 
ATOM     23  C   UNL     1      47.922   7.169  19.709  0.00  0.00    +0.000 A 
ATOM     24  C   UNL     1      48.667   7.563  18.591  0.00  0.00    +0.000 A 
ATOM     25  C   UNL     1      48.675   6.782  17.432  0.00  0.00    +0.000 A 
BRANCH  23  26
ATOM     26  C   UNL     1      47.952   7.982  20.984  0.00  0.00    +0.000 C 
BRANCH  26  27
ATOM     27  C   UNL     1      48.888   9.167  20.910  0.00  0.00    +0.000 A 
ATOM     28  C   UNL     1      48.404  10.436  20.561  0.00  0.00    +0.000 A 
ATOM     29  C   UNL     1      49.279  11.516  20.428  0.00  0.00    +0.000 A 
ATOM     30  C   UNL     1      50.645  11.340  20.645  0.00  0.00    +0.000 A 
ATOM     31  C   UNL     1      51.135  10.088  21.006  0.00  0.00    +0.000 A 
ATOM     32  C   UNL     1      50.262   9.006  21.139  0.00  0.00    +0.000 A 
ENDBRANCH  26  27
ENDBRANCH  23  26
ENDBRANCH  19  20
ENDBRANCH   1  19
TORSDOF 6
ENDMDL
MODEL 7
REMARK VINA RESULT:    -6.739      4.422      5.174
REMARK INTER + INTRA:          -9.769
REMARK INTER:                  -8.564
REMARK INTRA:                  -1.205
REMARK UNBOUND:                -0.863
REMARK  Name = 
REMARK  7 active torsions:
REMARK  status: ('A' for Active; 'I' for Inactive)
REMARK    1  A    between atoms: C_1  and  C_2
REMARK    2  A    between atoms: C_2  and  N_3
REMARK    3  A    between atoms: C_2  and  C_17
REMARK    4  A    between atoms: C_4  and  C_6
REMARK    5  A    between atoms: C_12  and  N_13
REMARK    6  A    between atoms: C_20  and  C_21
REMARK    7  A    between atoms: C_21  and  C_22
REMARK                            x       y       z     vdW  Elec       q    Type
REMARK                         _______ _______ _______ _____ _____    ______ ____
ROOT
ATOM      1  N   UNL     1      49.382   7.137  13.064  0.00  0.00    +0.000 N 
ATOM      2  C   UNL     1      49.880   8.222  12.418  0.00  0.00    +0.000 C 
ATOM      3  O   UNL     1      49.263   9.282  12.318  0.00  0.00    +0.000 OA
ATOM      4  H   UNL     1      49.969   6.321  13.185  0.00  0.00    +0.000 HD
ENDROOT
BRANCH   2   5
ATOM      5  C   UNL     1      51.225   8.063  11.777  0.00  0.00    +0.000 A 
ATOM      6  C   UNL     1      51.243   7.761  10.467  0.00  0.00    +0.000 A 
ATOM      7  S   UNL     1      52.856   7.623   9.846  0.00  0.00    +0.000 S 
ATOM      8  C   UNL     1      53.514   8.010  11.423  0.00  0.00    +0.000 A 
ATOM      9  N   UNL     1      54.782   8.107  11.641  0.00  0.00    +0.000 NA
ATOM     10  C   UNL     1      55.141   8.400  12.927  0.00  0.00    +0.000 A 
ATOM     11  C   UNL     1      54.301   8.597  13.951  0.00  0.00    +0.000 A 
ATOM     12  C   UNL     1      52.828   8.531  13.628  0.00  0.00    +0.000 A 
ATOM     13  O   UNL     1      52.046   8.782  14.546  0.00  0.00    +0.000 OA
ATOM     14  N   UNL     1      52.496   8.195  12.337  0.00  0.00    +0.000 N 
BRANCH  11  15
ATOM     15  N   UNL     1      54.649   8.868  15.261  0.00  0.00    +0.000 N 
ATOM     16  H   UNL     1      55.616   9.150  15.392  0.00  0.00    +0.000 HD
ATOM     17  H   UNL     1      53.979   9.503  15.703  0.00  0.00    +0.000 HD
ENDBRANCH  11  15
ENDBRANCH   2   5
BRANCH   1  19
ATOM     18  C   UNL     1      48.319   6.396  15.131  0.00  0.00    +0.000 C 
ATOM     19  C   UNL     1      48.123   7.092  13.781  0.00  0.00    +0.000 C 
BRANCH  19  20
ATOM     20  C   UNL     1      47.095   6.389  12.915  0.00  0.00    +0.000 A 
ATOM     21  C   UNL     1      46.584   7.043  11.787  0.00  0.00    +0.000 A 
ATOM     22  C   UNL     1      45.682   6.398  10.938  0.00  0.00    +0.000 A 
ATOM     23  C   UNL     1      45.274   5.082  11.192  0.00  0.00    +0.000 A 
ATOM     24  C   UNL     1      45.785   4.425  12.318  0.00  0.00    +0.000 A 
ATOM     25  C   UNL     1      46.681   5.073  13.172  0.00  0.00    +0.000 A 
BRANCH  23  26
ATOM     26  C   UNL     1      44.345   4.369  10.235  0.00  0.00    +0.000 C 
BRANCH  26  27
ATOM     27  C   UNL     1      45.078   3.585   9.170  0.00  0.00    +0.000 A 
ATOM     28  C   UNL     1      45.188   2.190   9.262  0.00  0.00    +0.000 A 
ATOM     29  C   UNL     1      45.921   1.473   8.315  0.00  0.00    +0.000 A 
ATOM     30  C   UNL     1      46.551   2.142   7.265  0.00  0.00    +0.000 A 
ATOM     31  C   UNL     1      46.437   3.525   7.156  0.00  0.00    +0.000 A 
ATOM     32  C   UNL     1      45.705   4.244   8.103  0.00  0.00    +0.000 A 
ENDBRANCH  26  27
ENDBRANCH  23  26
ENDBRANCH  19  20
ENDBRANCH   1  19
TORSDOF 6
ENDMDL
MODEL 8
REMARK VINA RESULT:    -6.707      3.994      8.940
REMARK INTER + INTRA:          -9.727
REMARK INTER:                  -8.623
REMARK INTRA:                  -1.104
REMARK UNBOUND:                -0.863
REMARK  Name = 
REMARK  7 active torsions:
REMARK  status: ('A' for Active; 'I' for Inactive)
REMARK    1  A    between atoms: C_1  and  C_2
REMARK    2  A    between atoms: C_2  and  N_3
REMARK    3  A    between atoms: C_2  and  C_17
REMARK    4  A    between atoms: C_4  and  C_6
REMARK    5  A    between atoms: C_12  and  N_13
REMARK    6  A    between atoms: C_20  and  C_21
REMARK    7  A    between atoms: C_21  and  C_22
REMARK                            x       y       z     vdW  Elec       q    Type
REMARK                         _______ _______ _______ _____ _____    ______ ____
ROOT
ATOM      1  N   UNL     1      47.346   4.944  15.914  0.00  0.00    +0.000 N 
ATOM      2  C   UNL     1      47.231   4.425  14.665  0.00  0.00    +0.000 C 
ATOM      3  O   UNL     1      47.271   3.217  14.437  0.00  0.00    +0.000 OA
ATOM      4  H   UNL     1      47.222   5.940  16.048  0.00  0.00    +0.000 HD
ENDROOT
BRANCH   2   5
ATOM      5  C   UNL     1      47.092   5.405  13.539  0.00  0.00    +0.000 A 
ATOM      6  C   UNL     1      46.039   5.243  12.719  0.00  0.00    +0.000 A 
ATOM      7  S   UNL     1      45.985   6.448  11.474  0.00  0.00    +0.000 S 
ATOM      8  C   UNL     1      47.433   7.199  12.115  0.00  0.00    +0.000 A 
ATOM      9  N   UNL     1      47.945   8.268  11.603  0.00  0.00    +0.000 NA
ATOM     10  C   UNL     1      49.084   8.724  12.205  0.00  0.00    +0.000 A 
ATOM     11  C   UNL     1      49.691   8.168  13.261  0.00  0.00    +0.000 A 
ATOM     12  C   UNL     1      49.018   6.956  13.856  0.00  0.00    +0.000 A 
ATOM     13  O   UNL     1      49.527   6.479  14.871  0.00  0.00    +0.000 OA
ATOM     14  N   UNL     1      47.897   6.494  13.207  0.00  0.00    +0.000 N 
BRANCH  11  15
ATOM     15  N   UNL     1      50.858   8.603  13.863  0.00  0.00    +0.000 N 
ATOM     16  H   UNL     1      51.709   8.314  13.392  0.00  0.00    +0.000 HD
ATOM     17  H   UNL     1      50.825   9.607  14.061  0.00  0.00    +0.000 HD
ENDBRANCH  11  15
ENDBRANCH   2   5
BRANCH   1  19
ATOM     18  C   UNL     1      47.028   5.036  18.331  0.00  0.00    +0.000 C 
ATOM     19  C   UNL     1      47.449   4.174  17.137  0.00  0.00    +0.000 C 
BRANCH  19  20
ATOM     20  C   UNL     1      48.869   3.660  17.270  0.00  0.00    +0.000 A 
ATOM     21  C   UNL     1      49.868   4.514  17.753  0.00  0.00    +0.000 A 
ATOM     22  C   UNL     1      51.172   4.051  17.943  0.00  0.00    +0.000 A 
ATOM     23  C   UNL     1      51.508   2.721  17.659  0.00  0.00    +0.000 A 
ATOM     24  C   UNL     1      50.511   1.863  17.177  0.00  0.00    +0.000 A 
ATOM     25  C   UNL     1      49.208   2.328  16.980  0.00  0.00    +0.000 A 
BRANCH  23  26
ATOM     26  C   UNL     1      52.906   2.210  17.925  0.00  0.00    +0.000 C 
BRANCH  26  27
ATOM     27  C   UNL     1      53.831   3.273  18.475  0.00  0.00    +0.000 A 
ATOM     28  C   UNL     1      53.923   3.490  19.857  0.00  0.00    +0.000 A 
ATOM     29  C   UNL     1      54.726   4.515  20.360  0.00  0.00    +0.000 A 
ATOM     30  C   UNL     1      55.447   5.331  19.489  0.00  0.00    +0.000 A 
ATOM     31  C   UNL     1      55.374   5.115  18.116  0.00  0.00    +0.000 A 
ATOM     32  C   UNL     1      54.571   4.091  17.609  0.00  0.00    +0.000 A 
ENDBRANCH  26  27
ENDBRANCH  23  26
ENDBRANCH  19  20
ENDBRANCH   1  19
TORSDOF 6
ENDMDL
MODEL 9
REMARK VINA RESULT:    -6.502      3.703      9.497
REMARK INTER + INTRA:          -9.456
REMARK INTER:                  -8.080
REMARK INTRA:                  -1.376
REMARK UNBOUND:                -0.863
REMARK  Name = 
REMARK  7 active torsions:
REMARK  status: ('A' for Active; 'I' for Inactive)
REMARK    1  A    between atoms: C_1  and  C_2
REMARK    2  A    between atoms: C_2  and  N_3
REMARK    3  A    between atoms: C_2  and  C_17
REMARK    4  A    between atoms: C_4  and  C_6
REMARK    5  A    between atoms: C_12  and  N_13
REMARK    6  A    between atoms: C_20  and  C_21
REMARK    7  A    between atoms: C_21  and  C_22
REMARK                            x       y       z     vdW  Elec       q    Type
REMARK                         _______ _______ _______ _____ _____    ______ ____
ROOT
ATOM      1  N   UNL     1      47.109   5.106  15.198  0.00  0.00    +0.000 N 
ATOM      2  C   UNL     1      47.432   5.686  14.014  0.00  0.00    +0.000 C 
ATOM      3  O   UNL     1      48.594   5.838  13.640  0.00  0.00    +0.000 OA
ATOM      4  H   UNL     1      46.136   4.933  15.414  0.00  0.00    +0.000 HD
ENDROOT
BRANCH   2   5
ATOM      5  C   UNL     1      46.294   6.184  13.176  0.00  0.00    +0.000 A 
ATOM      6  C   UNL     1      46.260   7.503  12.920  0.00  0.00    +0.000 A 
ATOM      7  S   UNL     1      44.906   7.945  11.931  0.00  0.00    +0.000 S 
ATOM      8  C   UNL     1      44.393   6.272  11.855  0.00  0.00    +0.000 A 
ATOM      9  N   UNL     1      43.362   5.892  11.178  0.00  0.00    +0.000 NA
ATOM     10  C   UNL     1      43.080   4.556  11.230  0.00  0.00    +0.000 A 
ATOM     11  C   UNL     1      43.775   3.632  11.906  0.00  0.00    +0.000 A 
ATOM     12  C   UNL     1      45.004   4.121  12.632  0.00  0.00    +0.000 A 
ATOM     13  O   UNL     1      45.692   3.269  13.197  0.00  0.00    +0.000 OA
ATOM     14  N   UNL     1      45.242   5.474  12.597  0.00  0.00    +0.000 N 
BRANCH  11  15
ATOM     15  N   UNL     1      43.486   2.282  11.990  0.00  0.00    +0.000 N 
ATOM     16  H   UNL     1      43.584   1.774  11.116  0.00  0.00    +0.000 HD
ATOM     17  H   UNL     1      43.979   1.842  12.772  0.00  0.00    +0.000 HD
ENDBRANCH  11  15
ENDBRANCH   2   5
BRANCH   1  19
ATOM     18  C   UNL     1      47.353   3.456  16.979  0.00  0.00    +0.000 C 
ATOM     19  C   UNL     1      48.052   4.525  16.133  0.00  0.00    +0.000 C 
BRANCH  19  20
ATOM     20  C   UNL     1      48.642   5.635  16.981  0.00  0.00    +0.000 A 
ATOM     21  C   UNL     1      49.983   5.996  16.806  0.00  0.00    +0.000 A 
ATOM     22  C   UNL     1      50.537   7.055  17.530  0.00  0.00    +0.000 A 
ATOM     23  C   UNL     1      49.761   7.782  18.443  0.00  0.00    +0.000 A 
ATOM     24  C   UNL     1      48.419   7.424  18.620  0.00  0.00    +0.000 A 
ATOM     25  C   UNL     1      47.867   6.360  17.901  0.00  0.00    +0.000 A 
BRANCH  23  26
ATOM     26  C   UNL     1      50.350   8.965  19.177  0.00  0.00    +0.000 C 
BRANCH  26  27
ATOM     27  C   UNL     1      51.133   9.893  18.276  0.00  0.00    +0.000 A 
ATOM     28  C   UNL     1      50.486  10.614  17.263  0.00  0.00    +0.000 A 
ATOM     29  C   UNL     1      51.217  11.420  16.389  0.00  0.00    +0.000 A 
ATOM     30  C   UNL     1      52.602  11.515  16.519  0.00  0.00    +0.000 A 
ATOM     31  C   UNL     1      53.254  10.814  17.530  0.00  0.00    +0.000 A 
ATOM     32  C   UNL     1      52.525  10.007  18.405  0.00  0.00    +0.000 A 
ENDBRANCH  26  27
ENDBRANCH  23  26
ENDBRANCH  19  20
ENDBRANCH   1  19
TORSDOF 6
ENDMDL
