MODEL 1
REMARK VINA RESULT:    -6.364      0.000      0.000
REMARK INTER + INTRA:          -9.761
REMARK INTER:                  -8.968
REMARK INTRA:                  -0.792
REMARK UNBOUND:                -0.792
REMARK  Name = 
REMARK  8 active torsions:
REMARK  status: ('A' for Active; 'I' for Inactive)
REMARK    1  A    between atoms: C_1  and  C_2
REMARK    2  A    between atoms: C_2  and  O_3
REMARK    3  A    between atoms: O_3  and  C_4
REMARK    4  A    between atoms: C_4  and  C_5
REMARK    5  A    between atoms: C_4  and  C_19
REMARK    6  A    between atoms: C_5  and  N_6
REMARK    7  A    between atoms: N_9  and  C_10
REMARK    8  A    between atoms: C_10  and  C_11
REMARK                            x       y       z     vdW  Elec       q    Type
REMARK                         _______ _______ _______ _____ _____    ______ ____
ROOT
ATOM      1  C   UNL     1      45.890   6.246  12.708  0.00  0.00    +0.000 C 
ENDROOT
BRANCH   1   2
ATOM      2  C   UNL     1      46.300   7.716  12.861  0.00  0.00    +0.000 A 
ATOM      3  C   UNL     1      45.416   8.781  12.807  0.00  0.00    +0.000 A 
ATOM      4  S   UNL     1      46.143  10.173  12.113  0.00  0.00    +0.000 S 
ATOM      5  C   UNL     1      47.672   9.421  12.041  0.00  0.00    +0.000 A 
ATOM      6  N   UNL     1      48.727   9.992  11.400  0.00  0.00    +0.000 NA
ATOM      7  C   UNL     1      49.829   9.322  11.479  0.00  0.00    +0.000 A 
ATOM      8  N   UNL     1      49.981   8.148  12.164  0.00  0.00    +0.000 N 
ATOM      9  C   UNL     1      48.919   7.486  12.758  0.00  0.00    +0.000 A 
ATOM     10  O   UNL     1      49.056   6.381  13.279  0.00  0.00    +0.000 OA
ATOM     11  C   UNL     1      47.658   8.188  12.664  0.00  0.00    +0.000 A 
ATOM     12  H   UNL     1      50.882   7.693  12.232  0.00  0.00    +0.000 HD
ENDBRANCH   1   2
BRANCH   1  13
ATOM     13  O   UNL     1      45.703   5.578  13.988  0.00  0.00    +0.000 OA
BRANCH  13  15
ATOM     14  C   UNL     1      47.256   4.358  15.493  0.00  0.00    +0.000 C 
ATOM     15  C   UNL     1      46.557   4.438  14.148  0.00  0.00    +0.000 C 
ENDBRANCH  13  15
ENDBRANCH   1  13
BRANCH   1  16
ATOM     16  C   UNL     1      44.546   6.394  11.880  0.00  0.00    +0.000 C 
BRANCH  16  17
ATOM     17  N   UNL     1      44.318   5.659  10.637  0.00  0.00    +0.000 NA
ATOM     18  C   UNL     1      43.251   4.658  10.759  0.00  0.00    +0.000 C 
ATOM     19  C   UNL     1      43.705   3.260  11.225  0.00  0.00    +0.000 C 
ATOM     20  N   UNL     1      44.840   2.720  10.437  0.00  0.00    +0.000 NA
ATOM     21  C   UNL     1      45.949   3.687  10.592  0.00  0.00    +0.000 C 
ATOM     22  C   UNL     1      45.605   5.121  10.141  0.00  0.00    +0.000 C 
BRANCH  20  23
ATOM     23  C   UNL     1      44.414   2.568   9.027  0.00  0.00    +0.000 C 
BRANCH  23  24
ATOM     24  C   UNL     1      45.495   2.353   8.018  0.00  0.00    +0.000 A 
ATOM     25  C   UNL     1      45.869   3.266   7.059  0.00  0.00    +0.000 A 
ATOM     26  N   UNL     1      46.873   3.063   6.185  0.00  0.00    +0.000 NA
ATOM     27  C   UNL     1      47.539   1.904   6.316  0.00  0.00    +0.000 A 
ATOM     28  N   UNL     1      47.286   0.944   7.221  0.00  0.00    +0.000 NA
ATOM     29  C   UNL     1      46.269   1.200   8.065  0.00  0.00    +0.000 A 
ENDBRANCH  23  24
ENDBRANCH  20  23
ENDBRANCH  16  17
ENDBRANCH   1  16
TORSDOF 7
ENDMDL
MODEL 2
REMARK VINA RESULT:    -6.300      4.009      8.306
REMARK INTER + INTRA:          -9.670
REMARK INTER:                  -8.704
REMARK INTRA:                  -0.966
REMARK UNBOUND:                -0.792
REMARK  Name = 
REMARK  8 active torsions:
REMARK  status: ('A' for Active; 'I' for Inactive)
REMARK    1  A    between atoms: C_1  and  C_2
REMARK    2  A    between atoms: C_2  and  O_3
REMARK    3  A    between atoms: O_3  and  C_4
REMARK    4  A    between atoms: C_4  and  C_5
REMARK    5  A    between atoms: C_4  and  C_19
REMARK    6  A    between atoms: C_5  and  N_6
REMARK    7  A    between atoms: N_9  and  C_10
REMARK    8  A    between atoms: C_10  and  C_11
REMARK                            x       y       z     vdW  Elec       q    Type
REMARK                         _______ _______ _______ _____ _____    ______ ____
ROOT
ATOM      1  C   UNL     1      46.390   5.962  11.986  0.00  0.00    +0.000 C 
ENDROOT
BRANCH   1   2
ATOM      2  C   UNL     1      45.096   5.197  11.677  0.00  0.00    +0.000 A 
ATOM      3  C   UNL     1      44.180   4.796  12.636  0.00  0.00    +0.000 A 
ATOM      4  S   UNL     1      43.428   3.313  12.210  0.00  0.00    +0.000 S 
ATOM      5  C   UNL     1      44.186   3.288  10.683  0.00  0.00    +0.000 A 
ATOM      6  N   UNL     1      44.114   2.208   9.859  0.00  0.00    +0.000 NA
ATOM      7  C   UNL     1      44.698   2.366   8.717  0.00  0.00    +0.000 A 
ATOM      8  N   UNL     1      45.322   3.512   8.311  0.00  0.00    +0.000 N 
ATOM      9  C   UNL     1      45.496   4.604   9.144  0.00  0.00    +0.000 A 
ATOM     10  O   UNL     1      46.151   5.586   8.797  0.00  0.00    +0.000 OA
ATOM     11  C   UNL     1      44.884   4.457  10.447  0.00  0.00    +0.000 A 
ATOM     12  H   UNL     1      45.719   3.594   7.384  0.00  0.00    +0.000 HD
ENDBRANCH   1   2
BRANCH   1  13
ATOM     13  O   UNL     1      46.299   7.378  11.657  0.00  0.00    +0.000 OA
BRANCH  13  15
ATOM     14  C   UNL     1      45.193   9.479  12.382  0.00  0.00    +0.000 C 
ATOM     15  C   UNL     1      45.872   8.177  12.767  0.00  0.00    +0.000 C 
ENDBRANCH  13  15
ENDBRANCH   1  13
BRANCH   1  16
ATOM     16  C   UNL     1      46.532   5.693  13.542  0.00  0.00    +0.000 C 
BRANCH  16  17
ATOM     17  N   UNL     1      47.728   5.076  14.114  0.00  0.00    +0.000 NA
ATOM     18  C   UNL     1      47.420   3.900  14.937  0.00  0.00    +0.000 C 
ATOM     19  C   UNL     1      47.144   4.188  16.427  0.00  0.00    +0.000 C 
ATOM     20  N   UNL     1      48.197   5.012  17.069  0.00  0.00    +0.000 NA
ATOM     21  C   UNL     1      48.247   6.283  16.311  0.00  0.00    +0.000 C 
ATOM     22  C   UNL     1      48.532   6.110  14.805  0.00  0.00    +0.000 C 
BRANCH  20  23
ATOM     23  C   UNL     1      49.479   4.274  17.021  0.00  0.00    +0.000 C 
BRANCH  23  24
ATOM     24  C   UNL     1      50.351   4.362  18.230  0.00  0.00    +0.000 A 
ATOM     25  C   UNL     1      51.694   4.059  18.256  0.00  0.00    +0.000 A 
ATOM     26  N   UNL     1      52.467   4.184  19.352  0.00  0.00    +0.000 NA
ATOM     27  C   UNL     1      51.858   4.664  20.448  0.00  0.00    +0.000 A 
ATOM     28  N   UNL     1      50.565   5.015  20.545  0.00  0.00    +0.000 NA
ATOM     29  C   UNL     1      49.840   4.865  19.420  0.00  0.00    +0.000 A 
ENDBRANCH  23  24
ENDBRANCH  20  23
ENDBRANCH  16  17
ENDBRANCH   1  16
TORSDOF 7
ENDMDL
MODEL 3
REMARK VINA RESULT:    -5.789      3.729      6.382
REMARK INTER + INTRA:          -8.951
REMARK INTER:                  -7.684
REMARK INTRA:                  -1.267
REMARK UNBOUND:                -0.792
REMARK  Name = 
REMARK  8 active torsions:
REMARK  status: ('A' for Active; 'I' for Inactive)
REMARK    1  A    between atoms: C_1  and  C_2
REMARK    2  A    between atoms: C_2  and  O_3
REMARK    3  A    between atoms: O_3  and  C_4
REMARK    4  A    between atoms: C_4  and  C_5
REMARK    5  A    between atoms: C_4  and  C_19
REMARK    6  A    between atoms: C_5  and  N_6
REMARK    7  A    between atoms: N_9  and  C_10
REMARK    8  A    between atoms: C_10  and  C_11
REMARK                            x       y       z     vdW  Elec       q    Type
REMARK                         _______ _______ _______ _____ _____    ______ ____
ROOT
ATOM      1  C   UNL     1      48.711   7.111  16.246  0.00  0.00    +0.000 C 
ENDROOT
BRANCH   1   2
ATOM      2  C   UNL     1      49.642   6.263  17.124  0.00  0.00    +0.000 A 
ATOM      3  C   UNL     1      50.918   6.647  17.503  0.00  0.00    +0.000 A 
ATOM      4  S   UNL     1      51.970   5.296  17.636  0.00  0.00    +0.000 S 
ATOM      5  C   UNL     1      50.700   4.193  17.359  0.00  0.00    +0.000 A 
ATOM      6  N   UNL     1      50.925   2.864  17.175  0.00  0.00    +0.000 NA
ATOM      7  C   UNL     1      49.855   2.154  17.029  0.00  0.00    +0.000 A 
ATOM      8  N   UNL     1      48.580   2.645  17.078  0.00  0.00    +0.000 N 
ATOM      9  C   UNL     1      48.303   3.998  17.175  0.00  0.00    +0.000 A 
ATOM     10  O   UNL     1      47.153   4.430  17.113  0.00  0.00    +0.000 OA
ATOM     11  C   UNL     1      49.476   4.834  17.309  0.00  0.00    +0.000 A 
ATOM     12  H   UNL     1      47.779   2.032  17.005  0.00  0.00    +0.000 HD
ENDBRANCH   1   2
BRANCH   1  13
ATOM     13  O   UNL     1      48.558   8.472  16.739  0.00  0.00    +0.000 OA
BRANCH  13  15
ATOM     14  C   UNL     1      50.026  10.414  16.249  0.00  0.00    +0.000 C 
ATOM     15  C   UNL     1      48.948   9.457  15.773  0.00  0.00    +0.000 C 
ENDBRANCH  13  15
ENDBRANCH   1  13
BRANCH   1  16
ATOM     16  C   UNL     1      49.464   7.034  14.852  0.00  0.00    +0.000 C 
BRANCH  16  17
ATOM     17  N   UNL     1      48.898   6.325  13.705  0.00  0.00    +0.000 NA
ATOM     18  C   UNL     1      49.050   7.070  12.449  0.00  0.00    +0.000 C 
ATOM     19  C   UNL     1      47.902   8.044  12.113  0.00  0.00    +0.000 C 
ATOM     20  N   UNL     1      46.560   7.416  12.189  0.00  0.00    +0.000 NA
ATOM     21  C   UNL     1      46.411   6.922  13.576  0.00  0.00    +0.000 C 
ATOM     22  C   UNL     1      47.505   5.926  14.012  0.00  0.00    +0.000 C 
BRANCH  20  23
ATOM     23  C   UNL     1      46.484   6.327  11.189  0.00  0.00    +0.000 C 
BRANCH  23  24
ATOM     24  C   UNL     1      45.292   5.429  11.262  0.00  0.00    +0.000 A 
ATOM     25  C   UNL     1      45.337   4.081  11.536  0.00  0.00    +0.000 A 
ATOM     26  N   UNL     1      44.244   3.301  11.634  0.00  0.00    +0.000 NA
ATOM     27  C   UNL     1      43.064   3.923  11.480  0.00  0.00    +0.000 A 
ATOM     28  N   UNL     1      42.886   5.231  11.231  0.00  0.00    +0.000 NA
ATOM     29  C   UNL     1      44.014   5.961  11.139  0.00  0.00    +0.000 A 
ENDBRANCH  23  24
ENDBRANCH  20  23
ENDBRANCH  16  17
ENDBRANCH   1  16
TORSDOF 7
ENDMDL
MODEL 4
REMARK VINA RESULT:    -5.736      1.955      2.756
REMARK INTER + INTRA:          -8.875
REMARK INTER:                  -7.891
REMARK INTRA:                  -0.985
REMARK UNBOUND:                -0.792
REMARK  Name = 
REMARK  8 active torsions:
REMARK  status: ('A' for Active; 'I' for Inactive)
REMARK    1  A    between atoms: C_1  and  C_2
REMARK    2  A    between atoms: C_2  and  O_3
REMARK    3  A    between atoms: O_3  and  C_4
REMARK    4  A    between atoms: C_4  and  C_5
REMARK    5  A    between atoms: C_4  and  C_19
REMARK    6  A    between atoms: C_5  and  N_6
REMARK    7  A    between atoms: N_9  and  C_10
REMARK    8  A    between atoms: C_10  and  C_11
REMARK                            x       y       z     vdW  Elec       q    Type
REMARK                         _______ _______ _______ _____ _____    ______ ____
ROOT
ATOM      1  C   UNL     1      48.331   6.345  14.356  0.00  0.00    +0.000 C 
ENDROOT
BRANCH   1   2
ATOM      2  C   UNL     1      48.963   7.722  14.602  0.00  0.00    +0.000 A 
ATOM      3  C   UNL     1      49.034   8.336  15.841  0.00  0.00    +0.000 A 
ATOM      4  S   UNL     1      48.912  10.044  15.708  0.00  0.00    +0.000 S 
ATOM      5  C   UNL     1      48.936   9.980  14.004  0.00  0.00    +0.000 A 
ATOM      6  N   UNL     1      48.700  11.079  13.238  0.00  0.00    +0.000 NA
ATOM      7  C   UNL     1      48.805  10.878  11.966  0.00  0.00    +0.000 A 
ATOM      8  N   UNL     1      49.153   9.688  11.390  0.00  0.00    +0.000 N 
ATOM      9  C   UNL     1      49.319   8.523  12.121  0.00  0.00    +0.000 A 
ATOM     10  O   UNL     1      49.529   7.441  11.576  0.00  0.00    +0.000 OA
ATOM     11  C   UNL     1      49.177   8.697  13.550  0.00  0.00    +0.000 A 
ATOM     12  H   UNL     1      49.269   9.603  10.388  0.00  0.00    +0.000 HD
ENDBRANCH   1   2
BRANCH   1  13
ATOM     13  O   UNL     1      48.440   5.462  15.509  0.00  0.00    +0.000 OA
BRANCH  13  15
ATOM     14  C   UNL     1      47.188   3.927  17.007  0.00  0.00    +0.000 C 
ATOM     15  C   UNL     1      47.307   4.594  15.648  0.00  0.00    +0.000 C 
ENDBRANCH  13  15
ENDBRANCH   1  13
BRANCH   1  16
ATOM     16  C   UNL     1      46.835   6.758  14.027  0.00  0.00    +0.000 C 
BRANCH  16  17
ATOM     17  N   UNL     1      46.263   6.589  12.692  0.00  0.00    +0.000 NA
ATOM     18  C   UNL     1      44.809   6.791  12.670  0.00  0.00    +0.000 C 
ATOM     19  C   UNL     1      43.961   5.529  12.935  0.00  0.00    +0.000 C 
ATOM     20  N   UNL     1      44.341   4.379  12.080  0.00  0.00    +0.000 NA
ATOM     21  C   UNL     1      45.765   4.099  12.371  0.00  0.00    +0.000 C 
ATOM     22  C   UNL     1      46.707   5.295  12.126  0.00  0.00    +0.000 C 
BRANCH  20  23
ATOM     23  C   UNL     1      44.114   4.740  10.662  0.00  0.00    +0.000 C 
BRANCH  23  24
ATOM     24  C   UNL     1      44.872   3.959   9.639  0.00  0.00    +0.000 A 
ATOM     25  C   UNL     1      44.856   2.587   9.526  0.00  0.00    +0.000 A 
ATOM     26  N   UNL     1      45.518   1.908   8.570  0.00  0.00    +0.000 NA
ATOM     27  C   UNL     1      46.193   2.655   7.681  0.00  0.00    +0.000 A 
ATOM     28  N   UNL     1      46.269   3.996   7.671  0.00  0.00    +0.000 NA
ATOM     29  C   UNL     1      45.590   4.621   8.651  0.00  0.00    +0.000 A 
ENDBRANCH  23  24
ENDBRANCH  20  23
ENDBRANCH  16  17
ENDBRANCH   1  16
TORSDOF 7
ENDMDL
MODEL 5
REMARK VINA RESULT:    -5.571      4.030      6.817
REMARK INTER + INTRA:          -8.643
REMARK INTER:                  -7.285
REMARK INTRA:                  -1.358
REMARK UNBOUND:                -0.792
REMARK  Name = 
REMARK  8 active torsions:
REMARK  status: ('A' for Active; 'I' for Inactive)
REMARK    1  A    between atoms: C_1  and  C_2
REMARK    2  A    between atoms: C_2  and  O_3
REMARK    3  A    between atoms: O_3  and  C_4
REMARK    4  A    between atoms: C_4  and  C_5
REMARK    5  A    between atoms: C_4  and  C_19
REMARK    6  A    between atoms: C_5  and  N_6
REMARK    7  A    between atoms: N_9  and  C_10
REMARK    8  A    between atoms: C_10  and  C_11
REMARK                            x       y       z     vdW  Elec       q    Type
REMARK                         _______ _______ _______ _____ _____    ______ ____
ROOT
ATOM      1  C   UNL     1      50.267   7.341  16.891  0.00  0.00    +0.000 C 
ENDROOT
BRANCH   1   2
ATOM      2  C   UNL     1      50.445   5.969  17.555  0.00  0.00    +0.000 A 
ATOM      3  C   UNL     1      51.617   5.232  17.517  0.00  0.00    +0.000 A 
ATOM      4  S   UNL     1      51.302   3.544  17.488  0.00  0.00    +0.000 S 
ATOM      5  C   UNL     1      49.627   3.785  17.697  0.00  0.00    +0.000 A 
ATOM      6  N   UNL     1      48.733   2.764  17.597  0.00  0.00    +0.000 NA
ATOM      7  C   UNL     1      47.508   3.100  17.833  0.00  0.00    +0.000 A 
ATOM      8  N   UNL     1      47.096   4.354  18.187  0.00  0.00    +0.000 N 
ATOM      9  C   UNL     1      47.954   5.442  18.217  0.00  0.00    +0.000 A 
ATOM     10  O   UNL     1      47.546   6.581  18.436  0.00  0.00    +0.000 OA
ATOM     11  C   UNL     1      49.333   5.115  17.928  0.00  0.00    +0.000 A 
ATOM     12  H   UNL     1      46.128   4.546  18.408  0.00  0.00    +0.000 HD
ENDBRANCH   1   2
BRANCH   1  13
ATOM     13  O   UNL     1      51.509   8.097  16.817  0.00  0.00    +0.000 OA
BRANCH  13  15
ATOM     14  C   UNL     1      53.239   7.816  15.058  0.00  0.00    +0.000 C 
ATOM     15  C   UNL     1      51.896   8.394  15.469  0.00  0.00    +0.000 C 
ENDBRANCH  13  15
ENDBRANCH   1  13
BRANCH   1  16
ATOM     16  C   UNL     1      49.712   6.914  15.468  0.00  0.00    +0.000 C 
BRANCH  16  17
ATOM     17  N   UNL     1      48.326   7.160  15.073  0.00  0.00    +0.000 NA
ATOM     18  C   UNL     1      47.634   5.936  14.647  0.00  0.00    +0.000 C 
ATOM     19  C   UNL     1      47.753   5.597  13.147  0.00  0.00    +0.000 C 
ATOM     20  N   UNL     1      47.399   6.732  12.260  0.00  0.00    +0.000 NA
ATOM     21  C   UNL     1      48.330   7.831  12.603  0.00  0.00    +0.000 C 
ATOM     22  C   UNL     1      48.283   8.260  14.084  0.00  0.00    +0.000 C 
BRANCH  20  23
ATOM     23  C   UNL     1      45.983   7.098  12.491  0.00  0.00    +0.000 C 
BRANCH  23  24
ATOM     24  C   UNL     1      44.954   6.104  12.062  0.00  0.00    +0.000 A 
ATOM     25  C   UNL     1      44.875   5.545  10.806  0.00  0.00    +0.000 A 
ATOM     26  N   UNL     1      43.960   4.621  10.455  0.00  0.00    +0.000 NA
ATOM     27  C   UNL     1      43.118   4.231  11.427  0.00  0.00    +0.000 A 
ATOM     28  N   UNL     1      43.107   4.683  12.692  0.00  0.00    +0.000 NA
ATOM     29  C   UNL     1      44.041   5.607  12.984  0.00  0.00    +0.000 A 
ENDBRANCH  23  24
ENDBRANCH  20  23
ENDBRANCH  16  17
ENDBRANCH   1  16
TORSDOF 7
ENDMDL
MODEL 6
REMARK VINA RESULT:    -5.374      3.677      6.285
REMARK INTER + INTRA:          -8.365
REMARK INTER:                  -7.258
REMARK INTRA:                  -1.107
REMARK UNBOUND:                -0.792
REMARK  Name = 
REMARK  8 active torsions:
REMARK  status: ('A' for Active; 'I' for Inactive)
REMARK    1  A    between atoms: C_1  and  C_2
REMARK    2  A    between atoms: C_2  and  O_3
REMARK    3  A    between atoms: O_3  and  C_4
REMARK    4  A    between atoms: C_4  and  C_5
REMARK    5  A    between atoms: C_4  and  C_19
REMARK    6  A    between atoms: C_5  and  N_6
REMARK    7  A    between atoms: N_9  and  C_10
REMARK    8  A    between atoms: C_10  and  C_11
REMARK                            x       y       z     vdW  Elec       q    Type
REMARK                         _______ _______ _______ _____ _____    ______ ____
ROOT
ATOM      1  C   UNL     1      50.074   8.762  15.041  0.00  0.00    +0.000 C 
ENDROOT
BRANCH   1   2
ATOM      2  C   UNL     1      50.378   7.860  16.244  0.00  0.00    +0.000 A 
ATOM      3  C   UNL     1      51.378   6.902  16.266  0.00  0.00    +0.000 A 
ATOM      4  S   UNL     1      50.935   5.548  17.225  0.00  0.00    +0.000 S 
ATOM      5  C   UNL     1      49.497   6.302  17.746  0.00  0.00    +0.000 A 
ATOM      6  N   UNL     1      48.551   5.636  18.462  0.00  0.00    +0.000 NA
ATOM      7  C   UNL     1      47.545   6.361  18.825  0.00  0.00    +0.000 A 
ATOM      8  N   UNL     1      47.410   7.696  18.564  0.00  0.00    +0.000 N 
ATOM      9  C   UNL     1      48.301   8.396  17.768  0.00  0.00    +0.000 A 
ATOM     10  O   UNL     1      48.108   9.570  17.459  0.00  0.00    +0.000 OA
ATOM     11  C   UNL     1      49.429   7.613  17.312  0.00  0.00    +0.000 A 
ATOM     12  H   UNL     1      46.622   8.223  18.918  0.00  0.00    +0.000 HD
ENDBRANCH   1   2
BRANCH   1  13
ATOM     13  O   UNL     1      51.272   9.364  14.471  0.00  0.00    +0.000 OA
BRANCH  13  15
ATOM     14  C   UNL     1      51.378  10.561  12.298  0.00  0.00    +0.000 C 
ATOM     15  C   UNL     1      51.328   9.240  13.044  0.00  0.00    +0.000 C 
ENDBRANCH  13  15
ENDBRANCH   1  13
BRANCH   1  16
ATOM     16  C   UNL     1      49.371   7.730  14.063  0.00  0.00    +0.000 C 
BRANCH  16  17
ATOM     17  N   UNL     1      47.962   7.367  14.206  0.00  0.00    +0.000 NA
ATOM     18  C   UNL     1      47.630   6.110  13.522  0.00  0.00    +0.000 C 
ATOM     19  C   UNL     1      47.200   6.253  12.047  0.00  0.00    +0.000 C 
ATOM     20  N   UNL     1      46.126   7.257  11.845  0.00  0.00    +0.000 NA
ATOM     21  C   UNL     1      46.665   8.544  12.339  0.00  0.00    +0.000 C 
ATOM     22  C   UNL     1      47.115   8.516  13.814  0.00  0.00    +0.000 C 
BRANCH  20  23
ATOM     23  C   UNL     1      44.921   6.826  12.588  0.00  0.00    +0.000 C 
BRANCH  23  24
ATOM     24  C   UNL     1      44.386   5.467  12.272  0.00  0.00    +0.000 A 
ATOM     25  C   UNL     1      44.254   4.442  13.181  0.00  0.00    +0.000 A 
ATOM     26  N   UNL     1      43.733   3.237  12.880  0.00  0.00    +0.000 NA
ATOM     27  C   UNL     1      43.302   3.085  11.616  0.00  0.00    +0.000 A 
ATOM     28  N   UNL     1      43.356   4.011  10.645  0.00  0.00    +0.000 NA
ATOM     29  C   UNL     1      43.890   5.194  11.004  0.00  0.00    +0.000 A 
ENDBRANCH  23  24
ENDBRANCH  20  23
ENDBRANCH  16  17
ENDBRANCH   1  16
TORSDOF 7
ENDMDL
MODEL 7
REMARK VINA RESULT:    -5.139      3.507      7.334
REMARK INTER + INTRA:          -8.034
REMARK INTER:                  -7.429
REMARK INTRA:                  -0.605
REMARK UNBOUND:                -0.792
REMARK  Name = 
REMARK  8 active torsions:
REMARK  status: ('A' for Active; 'I' for Inactive)
REMARK    1  A    between atoms: C_1  and  C_2
REMARK    2  A    between atoms: C_2  and  O_3
REMARK    3  A    between atoms: O_3  and  C_4
REMARK    4  A    between atoms: C_4  and  C_5
REMARK    5  A    between atoms: C_4  and  C_19
REMARK    6  A    between atoms: C_5  and  N_6
REMARK    7  A    between atoms: N_9  and  C_10
REMARK    8  A    between atoms: C_10  and  C_11
REMARK                            x       y       z     vdW  Elec       q    Type
REMARK                         _______ _______ _______ _____ _____    ______ ____
ROOT
ATOM      1  C   UNL     1      45.627   7.632  11.783  0.00  0.00    +0.000 C 
ENDROOT
BRANCH   1   2
ATOM      2  C   UNL     1      45.469   6.447  12.745  0.00  0.00    +0.000 A 
ATOM      3  C   UNL     1      46.431   6.054  13.661  0.00  0.00    +0.000 A 
ATOM      4  S   UNL     1      46.425   4.352  13.892  0.00  0.00    +0.000 S 
ATOM      5  C   UNL     1      45.043   4.156  12.913  0.00  0.00    +0.000 A 
ATOM      6  N   UNL     1      44.587   2.928  12.546  0.00  0.00    +0.000 NA
ATOM      7  C   UNL     1      43.500   2.946  11.847  0.00  0.00    +0.000 A 
ATOM      8  N   UNL     1      42.811   4.077  11.505  0.00  0.00    +0.000 N 
ATOM      9  C   UNL     1      43.280   5.350  11.781  0.00  0.00    +0.000 A 
ATOM     10  O   UNL     1      42.700   6.355  11.374  0.00  0.00    +0.000 OA
ATOM     11  C   UNL     1      44.514   5.376  12.536  0.00  0.00    +0.000 A 
ATOM     12  H   UNL     1      41.938   4.025  10.998  0.00  0.00    +0.000 HD
ENDBRANCH   1   2
BRANCH   1  13
ATOM     13  O   UNL     1      44.491   8.543  11.819  0.00  0.00    +0.000 OA
BRANCH  13  15
ATOM     14  C   UNL     1      44.219  10.865  10.984  0.00  0.00    +0.000 C 
ATOM     15  C   UNL     1      44.886   9.914  11.961  0.00  0.00    +0.000 C 
ENDBRANCH  13  15
ENDBRANCH   1  13
BRANCH   1  16
ATOM     16  C   UNL     1      46.966   8.284  12.329  0.00  0.00    +0.000 C 
BRANCH  16  17
ATOM     17  N   UNL     1      48.140   8.469  11.478  0.00  0.00    +0.000 NA
ATOM     18  C   UNL     1      49.172   7.449  11.708  0.00  0.00    +0.000 C 
ATOM     19  C   UNL     1      50.205   7.789  12.802  0.00  0.00    +0.000 C 
ATOM     20  N   UNL     1      50.822   9.126  12.629  0.00  0.00    +0.000 NA
ATOM     21  C   UNL     1      49.711  10.103  12.667  0.00  0.00    +0.000 C 
ATOM     22  C   UNL     1      48.623   9.863  11.600  0.00  0.00    +0.000 C 
BRANCH  20  23
ATOM     23  C   UNL     1      51.556   9.153  11.344  0.00  0.00    +0.000 C 
BRANCH  23  24
ATOM     24  C   UNL     1      52.617   8.118  11.154  0.00  0.00    +0.000 A 
ATOM     25  C   UNL     1      52.629   7.178  10.149  0.00  0.00    +0.000 A 
ATOM     26  N   UNL     1      53.617   6.280   9.976  0.00  0.00    +0.000 NA
ATOM     27  C   UNL     1      54.644   6.366  10.838  0.00  0.00    +0.000 A 
ATOM     28  N   UNL     1      54.760   7.248  11.844  0.00  0.00    +0.000 NA
ATOM     29  C   UNL     1      53.741   8.118  11.971  0.00  0.00    +0.000 A 
ENDBRANCH  23  24
ENDBRANCH  20  23
ENDBRANCH  16  17
ENDBRANCH   1  16
TORSDOF 7
ENDMDL
MODEL 8
REMARK VINA RESULT:    -5.011      4.060      6.741
REMARK INTER + INTRA:          -7.854
REMARK INTER:                  -6.838
REMARK INTRA:                  -1.016
REMARK UNBOUND:                -0.792
REMARK  Name = 
REMARK  8 active torsions:
REMARK  status: ('A' for Active; 'I' for Inactive)
REMARK    1  A    between atoms: C_1  and  C_2
REMARK    2  A    between atoms: C_2  and  O_3
REMARK    3  A    between atoms: O_3  and  C_4
REMARK    4  A    between atoms: C_4  and  C_5
REMARK    5  A    between atoms: C_4  and  C_19
REMARK    6  A    between atoms: C_5  and  N_6
REMARK    7  A    between atoms: N_9  and  C_10
REMARK    8  A    between atoms: C_10  and  C_11
REMARK                            x       y       z     vdW  Elec       q    Type
REMARK                         _______ _______ _______ _____ _____    ______ ____
ROOT
ATOM      1  C   UNL     1      49.241   8.015  15.957  0.00  0.00    +0.000 C 
ENDROOT
BRANCH   1   2
ATOM      2  C   UNL     1      50.111   7.199  16.923  0.00  0.00    +0.000 A 
ATOM      3  C   UNL     1      51.350   6.673  16.599  0.00  0.00    +0.000 A 
ATOM      4  S   UNL     1      51.634   5.183  17.405  0.00  0.00    +0.000 S 
ATOM      5  C   UNL     1      50.195   5.321  18.310  0.00  0.00    +0.000 A 
ATOM      6  N   UNL     1      49.730   4.304  19.086  0.00  0.00    +0.000 NA
ATOM      7  C   UNL     1      48.656   4.583  19.747  0.00  0.00    +0.000 A 
ATOM      8  N   UNL     1      48.019   5.793  19.728  0.00  0.00    +0.000 N 
ATOM      9  C   UNL     1      48.403   6.827  18.890  0.00  0.00    +0.000 A 
ATOM     10  O   UNL     1      47.756   7.869  18.810  0.00  0.00    +0.000 OA
ATOM     11  C   UNL     1      49.585   6.544  18.106  0.00  0.00    +0.000 A 
ATOM     12  H   UNL     1      47.208   5.969  20.307  0.00  0.00    +0.000 HD
ENDBRANCH   1   2
BRANCH   1  13
ATOM     13  O   UNL     1      49.307   9.447  16.212  0.00  0.00    +0.000 OA
BRANCH  13  15
ATOM     14  C   UNL     1      50.391  11.288  14.946  0.00  0.00    +0.000 C 
ATOM     15  C   UNL     1      49.310  10.223  15.007  0.00  0.00    +0.000 C 
ENDBRANCH  13  15
ENDBRANCH   1  13
BRANCH   1  16
ATOM     16  C   UNL     1      49.873   7.600  14.563  0.00  0.00    +0.000 C 
BRANCH  16  17
ATOM     17  N   UNL     1      49.186   6.699  13.640  0.00  0.00    +0.000 NA
ATOM     18  C   UNL     1      49.264   7.150  12.244  0.00  0.00    +0.000 C 
ATOM     19  C   UNL     1      48.133   8.096  11.790  0.00  0.00    +0.000 C 
ATOM     20  N   UNL     1      46.778   7.576  12.095  0.00  0.00    +0.000 NA
ATOM     21  C   UNL     1      46.724   7.396  13.563  0.00  0.00    +0.000 C 
ATOM     22  C   UNL     1      47.809   6.454  14.125  0.00  0.00    +0.000 C 
BRANCH  20  23
ATOM     23  C   UNL     1      46.576   6.306  11.362  0.00  0.00    +0.000 C 
BRANCH  23  24
ATOM     24  C   UNL     1      45.384   5.490  11.746  0.00  0.00    +0.000 A 
ATOM     25  C   UNL     1      45.437   4.272  12.385  0.00  0.00    +0.000 A 
ATOM     26  N   UNL     1      44.347   3.574  12.755  0.00  0.00    +0.000 NA
ATOM     27  C   UNL     1      43.163   4.154  12.494  0.00  0.00    +0.000 A 
ATOM     28  N   UNL     1      42.979   5.343  11.897  0.00  0.00    +0.000 NA
ATOM     29  C   UNL     1      44.105   5.993  11.546  0.00  0.00    +0.000 A 
ENDBRANCH  23  24
ENDBRANCH  20  23
ENDBRANCH  16  17
ENDBRANCH   1  16
TORSDOF 7
ENDMDL
MODEL 9
REMARK VINA RESULT:    -5.000      3.940      6.198
REMARK INTER + INTRA:          -7.838
REMARK INTER:                  -7.644
REMARK INTRA:                  -0.195
REMARK UNBOUND:                -0.792
REMARK  Name = 
REMARK  8 active torsions:
REMARK  status: ('A' for Active; 'I' for Inactive)
REMARK    1  A    between atoms: C_1  and  C_2
REMARK    2  A    between atoms: C_2  and  O_3
REMARK    3  A    between atoms: O_3  and  C_4
REMARK    4  A    between atoms: C_4  and  C_5
REMARK    5  A    between atoms: C_4  and  C_19
REMARK    6  A    between atoms: C_5  and  N_6
REMARK    7  A    between atoms: N_9  and  C_10
REMARK    8  A    between atoms: C_10  and  C_11
REMARK                            x       y       z     vdW  Elec       q    Type
REMARK                         _______ _______ _______ _____ _____    ______ ____
ROOT
ATOM      1  C   UNL     1      50.182   7.440  15.900  0.00  0.00    +0.000 C 
ENDROOT
BRANCH   1   2
ATOM      2  C   UNL     1      49.039   7.497  16.922  0.00  0.00    +0.000 A 
ATOM      3  C   UNL     1      48.510   8.670  17.435  0.00  0.00    +0.000 A 
ATOM      4  S   UNL     1      47.994   8.472  19.061  0.00  0.00    +0.000 S 
ATOM      5  C   UNL     1      48.311   6.797  19.029  0.00  0.00    +0.000 A 
ATOM      6  N   UNL     1      48.248   6.029  20.150  0.00  0.00    +0.000 NA
ATOM      7  C   UNL     1      48.464   4.770  19.951  0.00  0.00    +0.000 A 
ATOM      8  N   UNL     1      48.710   4.204  18.731  0.00  0.00    +0.000 N 
ATOM      9  C   UNL     1      48.870   4.954  17.577  0.00  0.00    +0.000 A 
ATOM     10  O   UNL     1      49.194   4.437  16.509  0.00  0.00    +0.000 OA
ATOM     11  C   UNL     1      48.667   6.374  17.762  0.00  0.00    +0.000 A 
ATOM     12  H   UNL     1      48.823   3.204  18.629  0.00  0.00    +0.000 HD
ENDBRANCH   1   2
BRANCH   1  13
ATOM     13  O   UNL     1      51.035   6.272  16.073  0.00  0.00    +0.000 OA
BRANCH  13  15
ATOM     14  C   UNL     1      52.550   7.361  17.712  0.00  0.00    +0.000 C 
ATOM     15  C   UNL     1      52.387   6.619  16.398  0.00  0.00    +0.000 C 
ENDBRANCH  13  15
ENDBRANCH   1  13
BRANCH   1  16
ATOM     16  C   UNL     1      49.367   7.420  14.540  0.00  0.00    +0.000 C 
BRANCH  16  17
ATOM     17  N   UNL     1      47.921   7.204  14.507  0.00  0.00    +0.000 NA
ATOM     18  C   UNL     1      47.557   5.897  13.947  0.00  0.00    +0.000 C 
ATOM     19  C   UNL     1      47.358   5.864  12.418  0.00  0.00    +0.000 C 
ATOM     20  N   UNL     1      46.438   6.918  11.925  0.00  0.00    +0.000 NA
ATOM     21  C   UNL     1      47.036   8.211  12.326  0.00  0.00    +0.000 C 
ATOM     22  C   UNL     1      47.267   8.355  13.845  0.00  0.00    +0.000 C 
BRANCH  20  23
ATOM     23  C   UNL     1      45.100   6.703  12.521  0.00  0.00    +0.000 C 
BRANCH  23  24
ATOM     24  C   UNL     1      44.412   5.420  12.185  0.00  0.00    +0.000 A 
ATOM     25  C   UNL     1      44.004   5.053  10.923  0.00  0.00    +0.000 A 
ATOM     26  N   UNL     1      43.420   3.873  10.640  0.00  0.00    +0.000 NA
ATOM     27  C   UNL     1      43.277   3.027  11.674  0.00  0.00    +0.000 A 
ATOM     28  N   UNL     1      43.652   3.258  12.943  0.00  0.00    +0.000 NA
ATOM     29  C   UNL     1      44.226   4.455  13.167  0.00  0.00    +0.000 A 
ENDBRANCH  23  24
ENDBRANCH  20  23
ENDBRANCH  16  17
ENDBRANCH   1  16
TORSDOF 7
ENDMDL
