MODEL 1
REMARK VINA RESULT:    -8.189      0.000      0.000
REMARK INTER + INTRA:         -13.459
REMARK INTER:                 -12.019
REMARK INTRA:                  -1.439
REMARK UNBOUND:                -1.439
REMARK  Name = 
REMARK  9 active torsions:
REMARK  status: ('A' for Active; 'I' for Inactive)
REMARK    1  A    between atoms: C_1  and  O_2
REMARK    2  A    between atoms: O_2  and  C_3
REMARK    3  A    between atoms: C_10  and  C_11
REMARK    4  A    between atoms: N_13  and  C_14
REMARK    5  A    between atoms: C_14  and  C_15
REMARK    6  A    between atoms: C_18  and  N_19
REMARK    7  A    between atoms: N_19  and  C_20
REMARK    8  A    between atoms: C_20  and  C_21
REMARK    9  A    between atoms: C_21  and  C_22
REMARK                            x       y       z     vdW  Elec       q    Type
REMARK                         _______ _______ _______ _____ _____    ______ ____
ROOT
ATOM      1  C   UNL     1      47.206   8.188  13.395  0.00  0.00    +0.000 C 
ENDROOT
BRANCH   1   2
ATOM      2  C   UNL     1      46.295   7.432  12.465  0.00  0.00    +0.000 A 
ATOM      3  C   UNL     1      46.821   6.547  11.519  0.00  0.00    +0.000 A 
ATOM      4  C   UNL     1      45.973   5.758  10.732  0.00  0.00    +0.000 A 
ATOM      5  C   UNL     1      44.584   5.822  10.883  0.00  0.00    +0.000 A 
ATOM      6  C   UNL     1      44.065   6.801  11.735  0.00  0.00    +0.000 A 
ATOM      7  C   UNL     1      44.906   7.590  12.531  0.00  0.00    +0.000 A 
BRANCH   5   8
ATOM      8  N   UNL     1      43.682   5.034  10.143  0.00  0.00    +0.000 N 
ATOM      9  H   UNL     1      42.862   5.592   9.911  0.00  0.00    +0.000 HD
BRANCH   8  10
ATOM     10  C   UNL     1      44.237   4.353   8.958  0.00  0.00    +0.000 C 
BRANCH  10  11
ATOM     11  C   UNL     1      44.518   2.883   9.257  0.00  0.00    +0.000 C 
BRANCH  11  12
ATOM     12  C   UNL     1      45.660   2.393   8.408  0.00  0.00    +0.000 A 
ATOM     13  N   UNL     1      46.336   3.303   7.679  0.00  0.00    +0.000 NA
ATOM     14  C   UNL     1      47.349   2.835   6.924  0.00  0.00    +0.000 A 
ATOM     15  C   UNL     1      47.704   1.510   6.867  0.00  0.00    +0.000 A 
ATOM     16  C   UNL     1      46.945   0.661   7.637  0.00  0.00    +0.000 A 
ATOM     17  N   UNL     1      45.920   1.072   8.409  0.00  0.00    +0.000 NA
ENDBRANCH  11  12
ENDBRANCH  10  11
ENDBRANCH   8  10
ENDBRANCH   5   8
ENDBRANCH   1   2
BRANCH   1  20
ATOM     18  C   UNL     1      48.813   6.878  14.694  0.00  0.00    +0.000 C 
ATOM     19  O   UNL     1      49.669   7.035  13.826  0.00  0.00    +0.000 OA
ATOM     20  N   UNL     1      47.561   7.414  14.555  0.00  0.00    +0.000 N 
ATOM     21  H   UNL     1      46.845   7.237  15.247  0.00  0.00    +0.000 HD
BRANCH  18  29
ATOM     22  C   UNL     1      47.278   4.219  16.264  0.00  0.00    +0.000 A 
ATOM     23  N   UNL     1      46.856   3.261  17.113  0.00  0.00    +0.000 NA
ATOM     24  C   UNL     1      47.551   3.060  18.236  0.00  0.00    +0.000 A 
ATOM     25  N   UNL     1      48.647   3.706  18.626  0.00  0.00    +0.000 NA
ATOM     26  C   UNL     1      49.029   4.659  17.759  0.00  0.00    +0.000 A 
ATOM     27  S   UNL     1      50.417   5.579  18.091  0.00  0.00    +0.000 S 
ATOM     28  C   UNL     1      50.215   6.486  16.670  0.00  0.00    +0.000 A 
ATOM     29  C   UNL     1      49.102   6.119  15.920  0.00  0.00    +0.000 A 
ATOM     30  C   UNL     1      48.408   5.004  16.561  0.00  0.00    +0.000 A 
BRANCH  22  32
ATOM     31  C   UNL     1      47.109   3.636  13.990  0.00  0.00    +0.000 C 
ATOM     32  O   UNL     1      46.592   4.398  15.080  0.00  0.00    +0.000 OA
ENDBRANCH  22  32
ENDBRANCH  18  29
ENDBRANCH   1  20
TORSDOF 8
ENDMDL
MODEL 2
REMARK VINA RESULT:    -7.513      1.504      2.041
REMARK INTER + INTRA:         -12.465
REMARK INTER:                 -11.333
REMARK INTRA:                  -1.133
REMARK UNBOUND:                -1.439
REMARK  Name = 
REMARK  9 active torsions:
REMARK  status: ('A' for Active; 'I' for Inactive)
REMARK    1  A    between atoms: C_1  and  O_2
REMARK    2  A    between atoms: O_2  and  C_3
REMARK    3  A    between atoms: C_10  and  C_11
REMARK    4  A    between atoms: N_13  and  C_14
REMARK    5  A    between atoms: C_14  and  C_15
REMARK    6  A    between atoms: C_18  and  N_19
REMARK    7  A    between atoms: N_19  and  C_20
REMARK    8  A    between atoms: C_20  and  C_21
REMARK    9  A    between atoms: C_21  and  C_22
REMARK                            x       y       z     vdW  Elec       q    Type
REMARK                         _______ _______ _______ _____ _____    ______ ____
ROOT
ATOM      1  C   UNL     1      47.805   7.611  13.361  0.00  0.00    +0.000 C 
ENDROOT
BRANCH   1   2
ATOM      2  C   UNL     1      46.971   6.485  12.811  0.00  0.00    +0.000 A 
ATOM      3  C   UNL     1      46.720   5.344  13.580  0.00  0.00    +0.000 A 
ATOM      4  C   UNL     1      45.851   4.349  13.117  0.00  0.00    +0.000 A 
ATOM      5  C   UNL     1      45.200   4.477  11.885  0.00  0.00    +0.000 A 
ATOM      6  C   UNL     1      45.557   5.553  11.067  0.00  0.00    +0.000 A 
ATOM      7  C   UNL     1      46.420   6.557  11.526  0.00  0.00    +0.000 A 
BRANCH   5   8
ATOM      8  N   UNL     1      44.294   3.525  11.379  0.00  0.00    +0.000 N 
ATOM      9  H   UNL     1      43.392   3.645  11.837  0.00  0.00    +0.000 HD
BRANCH   8  10
ATOM     10  C   UNL     1      44.162   3.473   9.911  0.00  0.00    +0.000 C 
BRANCH  10  11
ATOM     11  C   UNL     1      44.483   2.077   9.386  0.00  0.00    +0.000 C 
BRANCH  11  12
ATOM     12  C   UNL     1      45.608   2.148   8.388  0.00  0.00    +0.000 A 
ATOM     13  N   UNL     1      46.297   1.017   8.138  0.00  0.00    +0.000 NA
ATOM     14  C   UNL     1      47.302   1.111   7.246  0.00  0.00    +0.000 A 
ATOM     15  C   UNL     1      47.643   2.277   6.606  0.00  0.00    +0.000 A 
ATOM     16  C   UNL     1      46.889   3.376   6.940  0.00  0.00    +0.000 A 
ATOM     17  N   UNL     1      45.874   3.342   7.825  0.00  0.00    +0.000 NA
ENDBRANCH  11  12
ENDBRANCH  10  11
ENDBRANCH   8  10
ENDBRANCH   5   8
ENDBRANCH   1   2
BRANCH   1  20
ATOM     18  C   UNL     1      49.105   7.191  15.390  0.00  0.00    +0.000 C 
ATOM     19  O   UNL     1      50.093   6.905  14.719  0.00  0.00    +0.000 OA
ATOM     20  N   UNL     1      47.926   7.549  14.793  0.00  0.00    +0.000 N 
ATOM     21  H   UNL     1      47.101   7.731  15.350  0.00  0.00    +0.000 HD
BRANCH  18  29
ATOM     22  C   UNL     1      48.887   4.685  17.749  0.00  0.00    +0.000 A 
ATOM     23  N   UNL     1      48.759   3.938  18.864  0.00  0.00    +0.000 NA
ATOM     24  C   UNL     1      48.799   4.558  20.047  0.00  0.00    +0.000 A 
ATOM     25  N   UNL     1      48.962   5.860  20.264  0.00  0.00    +0.000 NA
ATOM     26  C   UNL     1      49.074   6.570  19.129  0.00  0.00    +0.000 A 
ATOM     27  S   UNL     1      49.298   8.251  19.216  0.00  0.00    +0.000 S 
ATOM     28  C   UNL     1      49.315   8.385  17.525  0.00  0.00    +0.000 A 
ATOM     29  C   UNL     1      49.151   7.174  16.861  0.00  0.00    +0.000 A 
ATOM     30  C   UNL     1      49.035   6.083  17.825  0.00  0.00    +0.000 A 
BRANCH  22  32
ATOM     31  C   UNL     1      47.931   2.999  16.415  0.00  0.00    +0.000 C 
ATOM     32  O   UNL     1      48.894   4.045  16.526  0.00  0.00    +0.000 OA
ENDBRANCH  22  32
ENDBRANCH  18  29
ENDBRANCH   1  20
TORSDOF 8
ENDMDL
MODEL 3
REMARK VINA RESULT:    -7.311      2.315      3.039
REMARK INTER + INTRA:         -12.169
REMARK INTER:                 -10.970
REMARK INTRA:                  -1.199
REMARK UNBOUND:                -1.439
REMARK  Name = 
REMARK  9 active torsions:
REMARK  status: ('A' for Active; 'I' for Inactive)
REMARK    1  A    between atoms: C_1  and  O_2
REMARK    2  A    between atoms: O_2  and  C_3
REMARK    3  A    between atoms: C_10  and  C_11
REMARK    4  A    between atoms: N_13  and  C_14
REMARK    5  A    between atoms: C_14  and  C_15
REMARK    6  A    between atoms: C_18  and  N_19
REMARK    7  A    between atoms: N_19  and  C_20
REMARK    8  A    between atoms: C_20  and  C_21
REMARK    9  A    between atoms: C_21  and  C_22
REMARK                            x       y       z     vdW  Elec       q    Type
REMARK                         _______ _______ _______ _____ _____    ______ ____
ROOT
ATOM      1  C   UNL     1      47.985   7.068  13.757  0.00  0.00    +0.000 C 
ENDROOT
BRANCH   1   2
ATOM      2  C   UNL     1      46.948   6.332  12.952  0.00  0.00    +0.000 A 
ATOM      3  C   UNL     1      46.209   5.292  13.524  0.00  0.00    +0.000 A 
ATOM      4  C   UNL     1      45.166   4.684  12.815  0.00  0.00    +0.000 A 
ATOM      5  C   UNL     1      44.827   5.110  11.527  0.00  0.00    +0.000 A 
ATOM      6  C   UNL     1      45.653   6.057  10.913  0.00  0.00    +0.000 A 
ATOM      7  C   UNL     1      46.694   6.676  11.619  0.00  0.00    +0.000 A 
BRANCH   5   8
ATOM      8  N   UNL     1      43.771   4.559  10.775  0.00  0.00    +0.000 N 
ATOM      9  H   UNL     1      43.003   5.227  10.735  0.00  0.00    +0.000 HD
BRANCH   8  10
ATOM     10  C   UNL     1      44.125   4.048   9.437  0.00  0.00    +0.000 C 
BRANCH  10  11
ATOM     11  C   UNL     1      44.715   2.645   9.529  0.00  0.00    +0.000 C 
BRANCH  11  12
ATOM     12  C   UNL     1      45.670   2.410   8.390  0.00  0.00    +0.000 A 
ATOM     13  N   UNL     1      46.242   1.194   8.291  0.00  0.00    +0.000 NA
ATOM     14  C   UNL     1      47.097   1.014   7.265  0.00  0.00    +0.000 A 
ATOM     15  C   UNL     1      47.401   1.991   6.350  0.00  0.00    +0.000 A 
ATOM     16  C   UNL     1      46.776   3.200   6.546  0.00  0.00    +0.000 A 
ATOM     17  N   UNL     1      45.914   3.438   7.554  0.00  0.00    +0.000 NA
ENDBRANCH  11  12
ENDBRANCH  10  11
ENDBRANCH   8  10
ENDBRANCH   5   8
ENDBRANCH   1   2
BRANCH   1  20
ATOM     18  C   UNL     1      49.025   6.555  15.911  0.00  0.00    +0.000 C 
ATOM     19  O   UNL     1      50.143   6.611  15.405  0.00  0.00    +0.000 OA
ATOM     20  N   UNL     1      47.899   6.765  15.161  0.00  0.00    +0.000 N 
ATOM     21  H   UNL     1      46.980   6.664  15.572  0.00  0.00    +0.000 HD
BRANCH  18  29
ATOM     22  C   UNL     1      47.856   8.404  18.576  0.00  0.00    +0.000 A 
ATOM     23  N   UNL     1      47.528   8.905  19.784  0.00  0.00    +0.000 NA
ATOM     24  C   UNL     1      47.679   8.121  20.856  0.00  0.00    +0.000 A 
ATOM     25  N   UNL     1      48.120   6.867  20.874  0.00  0.00    +0.000 NA
ATOM     26  C   UNL     1      48.447   6.409  19.654  0.00  0.00    +0.000 A 
ATOM     27  S   UNL     1      49.021   4.819  19.487  0.00  0.00    +0.000 S 
ATOM     28  C   UNL     1      49.212   5.012  17.812  0.00  0.00    +0.000 A 
ATOM     29  C   UNL     1      48.851   6.272  17.344  0.00  0.00    +0.000 A 
ATOM     30  C   UNL     1      48.367   7.099  18.447  0.00  0.00    +0.000 A 
BRANCH  22  32
ATOM     31  C   UNL     1      48.676  10.169  17.253  0.00  0.00    +0.000 C 
ATOM     32  O   UNL     1      47.657   9.192  17.461  0.00  0.00    +0.000 OA
ENDBRANCH  22  32
ENDBRANCH  18  29
ENDBRANCH   1  20
TORSDOF 8
ENDMDL
MODEL 4
REMARK VINA RESULT:    -7.104      1.617      2.246
REMARK INTER + INTRA:         -11.866
REMARK INTER:                 -10.615
REMARK INTRA:                  -1.251
REMARK UNBOUND:                -1.439
REMARK  Name = 
REMARK  9 active torsions:
REMARK  status: ('A' for Active; 'I' for Inactive)
REMARK    1  A    between atoms: C_1  and  O_2
REMARK    2  A    between atoms: O_2  and  C_3
REMARK    3  A    between atoms: C_10  and  C_11
REMARK    4  A    between atoms: N_13  and  C_14
REMARK    5  A    between atoms: C_14  and  C_15
REMARK    6  A    between atoms: C_18  and  N_19
REMARK    7  A    between atoms: N_19  and  C_20
REMARK    8  A    between atoms: C_20  and  C_21
REMARK    9  A    between atoms: C_21  and  C_22
REMARK                            x       y       z     vdW  Elec       q    Type
REMARK                         _______ _______ _______ _____ _____    ______ ____
ROOT
ATOM      1  C   UNL     1      47.704   7.580  13.442  0.00  0.00    +0.000 C 
ENDROOT
BRANCH   1   2
ATOM      2  C   UNL     1      46.826   6.526  12.821  0.00  0.00    +0.000 A 
ATOM      3  C   UNL     1      46.469   5.383  13.542  0.00  0.00    +0.000 A 
ATOM      4  C   UNL     1      45.561   4.460  13.011  0.00  0.00    +0.000 A 
ATOM      5  C   UNL     1      44.976   4.665  11.757  0.00  0.00    +0.000 A 
ATOM      6  C   UNL     1      45.436   5.739  10.990  0.00  0.00    +0.000 A 
ATOM      7  C   UNL     1      46.340   6.671  11.517  0.00  0.00    +0.000 A 
BRANCH   5   8
ATOM      8  N   UNL     1      44.035   3.789  11.183  0.00  0.00    +0.000 N 
ATOM      9  H   UNL     1      43.096   4.090  11.439  0.00  0.00    +0.000 HD
BRANCH   8  10
ATOM     10  C   UNL     1      44.161   3.563   9.730  0.00  0.00    +0.000 C 
BRANCH  10  11
ATOM     11  C   UNL     1      44.640   2.144   9.440  0.00  0.00    +0.000 C 
BRANCH  11  12
ATOM     12  C   UNL     1      45.696   2.164   8.369  0.00  0.00    +0.000 A 
ATOM     13  N   UNL     1      46.396   1.033   8.155  0.00  0.00    +0.000 NA
ATOM     14  C   UNL     1      47.339   1.082   7.195  0.00  0.00    +0.000 A 
ATOM     15  C   UNL     1      47.611   2.205   6.453  0.00  0.00    +0.000 A 
ATOM     16  C   UNL     1      46.852   3.310   6.756  0.00  0.00    +0.000 A 
ATOM     17  N   UNL     1      45.897   3.321   7.707  0.00  0.00    +0.000 NA
ENDBRANCH  11  12
ENDBRANCH  10  11
ENDBRANCH   8  10
ENDBRANCH   5   8
ENDBRANCH   1   2
BRANCH   1  20
ATOM     18  C   UNL     1      49.401   7.675  15.202  0.00  0.00    +0.000 C 
ATOM     19  O   UNL     1      49.001   8.783  15.552  0.00  0.00    +0.000 OA
ATOM     20  N   UNL     1      48.814   7.010  14.159  0.00  0.00    +0.000 N 
ATOM     21  H   UNL     1      49.181   6.123  13.841  0.00  0.00    +0.000 HD
BRANCH  18  29
ATOM     22  C   UNL     1      49.686   4.734  16.979  0.00  0.00    +0.000 A 
ATOM     23  N   UNL     1      50.062   3.707  17.767  0.00  0.00    +0.000 NA
ATOM     24  C   UNL     1      51.319   3.683  18.218  0.00  0.00    +0.000 A 
ATOM     25  N   UNL     1      52.276   4.573  17.971  0.00  0.00    +0.000 NA
ATOM     26  C   UNL     1      51.859   5.586  17.192  0.00  0.00    +0.000 A 
ATOM     27  S   UNL     1      52.952   6.813  16.764  0.00  0.00    +0.000 S 
ATOM     28  C   UNL     1      51.758   7.638  15.885  0.00  0.00    +0.000 A 
ATOM     29  C   UNL     1      50.516   7.013  15.897  0.00  0.00    +0.000 A 
ATOM     30  C   UNL     1      50.586   5.768  16.658  0.00  0.00    +0.000 A 
BRANCH  22  32
ATOM     31  C   UNL     1      47.726   3.488  16.597  0.00  0.00    +0.000 C 
ATOM     32  O   UNL     1      48.403   4.738  16.472  0.00  0.00    +0.000 OA
ENDBRANCH  22  32
ENDBRANCH  18  29
ENDBRANCH   1  20
TORSDOF 8
ENDMDL
MODEL 5
REMARK VINA RESULT:    -6.820      4.090      9.075
REMARK INTER + INTRA:         -11.449
REMARK INTER:                  -9.864
REMARK INTRA:                  -1.585
REMARK UNBOUND:                -1.439
REMARK  Name = 
REMARK  9 active torsions:
REMARK  status: ('A' for Active; 'I' for Inactive)
REMARK    1  A    between atoms: C_1  and  O_2
REMARK    2  A    between atoms: O_2  and  C_3
REMARK    3  A    between atoms: C_10  and  C_11
REMARK    4  A    between atoms: N_13  and  C_14
REMARK    5  A    between atoms: C_14  and  C_15
REMARK    6  A    between atoms: C_18  and  N_19
REMARK    7  A    between atoms: N_19  and  C_20
REMARK    8  A    between atoms: C_20  and  C_21
REMARK    9  A    between atoms: C_21  and  C_22
REMARK                            x       y       z     vdW  Elec       q    Type
REMARK                         _______ _______ _______ _____ _____    ______ ____
ROOT
ATOM      1  C   UNL     1      47.248   3.348  16.785  0.00  0.00    +0.000 C 
ENDROOT
BRANCH   1   2
ATOM      2  C   UNL     1      48.695   3.335  17.197  0.00  0.00    +0.000 A 
ATOM      3  C   UNL     1      49.477   2.190  17.015  0.00  0.00    +0.000 A 
ATOM      4  C   UNL     1      50.849   2.213  17.289  0.00  0.00    +0.000 A 
ATOM      5  C   UNL     1      51.477   3.381  17.733  0.00  0.00    +0.000 A 
ATOM      6  C   UNL     1      50.668   4.481  18.036  0.00  0.00    +0.000 A 
ATOM      7  C   UNL     1      49.294   4.469  17.759  0.00  0.00    +0.000 A 
BRANCH   5   8
ATOM      8  N   UNL     1      52.856   3.475  17.996  0.00  0.00    +0.000 N 
ATOM      9  H   UNL     1      53.268   4.178  17.385  0.00  0.00    +0.000 HD
BRANCH   8  10
ATOM     10  C   UNL     1      53.234   3.685  19.407  0.00  0.00    +0.000 C 
BRANCH  10  11
ATOM     11  C   UNL     1      54.278   2.664  19.849  0.00  0.00    +0.000 C 
BRANCH  11  12
ATOM     12  C   UNL     1      54.538   1.680  18.741  0.00  0.00    +0.000 A 
ATOM     13  N   UNL     1      55.444   2.016  17.802  0.00  0.00    +0.000 NA
ATOM     14  C   UNL     1      55.652   1.119  16.819  0.00  0.00    +0.000 A 
ATOM     15  C   UNL     1      54.994  -0.084  16.736  0.00  0.00    +0.000 A 
ATOM     16  C   UNL     1      54.080  -0.326  17.733  0.00  0.00    +0.000 A 
ATOM     17  N   UNL     1      53.829   0.534  18.740  0.00  0.00    +0.000 NA
ENDBRANCH  11  12
ENDBRANCH  10  11
ENDBRANCH   8  10
ENDBRANCH   5   8
ENDBRANCH   1   2
BRANCH   1  20
ATOM     18  C   UNL     1      46.965   4.251  14.530  0.00  0.00    +0.000 C 
ATOM     19  O   UNL     1      47.246   3.161  14.039  0.00  0.00    +0.000 OA
ATOM     20  N   UNL     1      46.947   4.431  15.887  0.00  0.00    +0.000 N 
ATOM     21  H   UNL     1      46.766   5.343  16.284  0.00  0.00    +0.000 HD
BRANCH  18  29
ATOM     22  C   UNL     1      44.165   5.123  12.715  0.00  0.00    +0.000 A 
ATOM     23  N   UNL     1      43.260   5.666  11.877  0.00  0.00    +0.000 NA
ATOM     24  C   UNL     1      43.580   6.804  11.253  0.00  0.00    +0.000 A 
ATOM     25  N   UNL     1      44.714   7.489  11.368  0.00  0.00    +0.000 NA
ATOM     26  C   UNL     1      45.593   6.909  12.202  0.00  0.00    +0.000 A 
ATOM     27  S   UNL     1      47.094   7.653  12.478  0.00  0.00    +0.000 S 
ATOM     28  C   UNL     1      47.576   6.404  13.521  0.00  0.00    +0.000 A 
ATOM     29  C   UNL     1      46.623   5.404  13.681  0.00  0.00    +0.000 A 
ATOM     30  C   UNL     1      45.423   5.723  12.912  0.00  0.00    +0.000 A 
BRANCH  22  32
ATOM     31  C   UNL     1      43.602   2.844  12.557  0.00  0.00    +0.000 C 
ATOM     32  O   UNL     1      43.822   3.974  13.399  0.00  0.00    +0.000 OA
ENDBRANCH  22  32
ENDBRANCH  18  29
ENDBRANCH   1  20
TORSDOF 8
ENDMDL
MODEL 6
REMARK VINA RESULT:    -6.403      2.721      4.048
REMARK INTER + INTRA:         -10.836
REMARK INTER:                  -9.097
REMARK INTRA:                  -1.739
REMARK UNBOUND:                -1.439
REMARK  Name = 
REMARK  9 active torsions:
REMARK  status: ('A' for Active; 'I' for Inactive)
REMARK    1  A    between atoms: C_1  and  O_2
REMARK    2  A    between atoms: O_2  and  C_3
REMARK    3  A    between atoms: C_10  and  C_11
REMARK    4  A    between atoms: N_13  and  C_14
REMARK    5  A    between atoms: C_14  and  C_15
REMARK    6  A    between atoms: C_18  and  N_19
REMARK    7  A    between atoms: N_19  and  C_20
REMARK    8  A    between atoms: C_20  and  C_21
REMARK    9  A    between atoms: C_21  and  C_22
REMARK                            x       y       z     vdW  Elec       q    Type
REMARK                         _______ _______ _______ _____ _____    ______ ____
ROOT
ATOM      1  C   UNL     1      49.379   7.336  16.035  0.00  0.00    +0.000 C 
ENDROOT
BRANCH   1   2
ATOM      2  C   UNL     1      48.572   6.976  14.817  0.00  0.00    +0.000 A 
ATOM      3  C   UNL     1      47.890   5.757  14.750  0.00  0.00    +0.000 A 
ATOM      4  C   UNL     1      47.046   5.471  13.670  0.00  0.00    +0.000 A 
ATOM      5  C   UNL     1      46.850   6.399  12.642  0.00  0.00    +0.000 A 
ATOM      6  C   UNL     1      47.635   7.556  12.650  0.00  0.00    +0.000 A 
ATOM      7  C   UNL     1      48.477   7.854  13.731  0.00  0.00    +0.000 A 
BRANCH   5   8
ATOM      8  N   UNL     1      45.993   6.181  11.547  0.00  0.00    +0.000 N 
ATOM      9  H   UNL     1      45.600   5.243  11.610  0.00  0.00    +0.000 HD
BRANCH   8  10
ATOM     10  C   UNL     1      44.950   7.201  11.327  0.00  0.00    +0.000 C 
BRANCH  10  11
ATOM     11  C   UNL     1      43.565   6.563  11.290  0.00  0.00    +0.000 C 
BRANCH  11  12
ATOM     12  C   UNL     1      43.688   5.071  11.138  0.00  0.00    +0.000 A 
ATOM     13  N   UNL     1      44.090   4.592   9.945  0.00  0.00    +0.000 NA
ATOM     14  C   UNL     1      44.185   3.253   9.835  0.00  0.00    +0.000 A 
ATOM     15  C   UNL     1      43.892   2.384  10.858  0.00  0.00    +0.000 A 
ATOM     16  C   UNL     1      43.478   2.971  12.030  0.00  0.00    +0.000 A 
ATOM     17  N   UNL     1      43.363   4.303  12.197  0.00  0.00    +0.000 NA
ENDBRANCH  11  12
ENDBRANCH  10  11
ENDBRANCH   8  10
ENDBRANCH   5   8
ENDBRANCH   1   2
BRANCH   1  20
ATOM     18  C   UNL     1      50.657   6.091  17.709  0.00  0.00    +0.000 C 
ATOM     19  O   UNL     1      50.202   6.796  18.606  0.00  0.00    +0.000 OA
ATOM     20  N   UNL     1      50.303   6.295  16.402  0.00  0.00    +0.000 N 
ATOM     21  H   UNL     1      50.721   5.747  15.663  0.00  0.00    +0.000 HD
BRANCH  18  29
ATOM     22  C   UNL     1      50.565   2.686  17.173  0.00  0.00    +0.000 A 
ATOM     23  N   UNL     1      50.762   1.353  17.161  0.00  0.00    +0.000 NA
ATOM     24  C   UNL     1      51.880   0.874  17.714  0.00  0.00    +0.000 A 
ATOM     25  N   UNL     1      52.854   1.576  18.286  0.00  0.00    +0.000 NA
ATOM     26  C   UNL     1      52.615   2.898  18.288  0.00  0.00    +0.000 A 
ATOM     27  S   UNL     1      53.760   3.951  18.969  0.00  0.00    +0.000 S 
ATOM     28  C   UNL     1      52.791   5.302  18.631  0.00  0.00    +0.000 A 
ATOM     29  C   UNL     1      51.590   4.992  18.002  0.00  0.00    +0.000 A 
ATOM     30  C   UNL     1      51.499   3.552  17.772  0.00  0.00    +0.000 A 
BRANCH  22  32
ATOM     31  C   UNL     1      48.228   2.945  17.282  0.00  0.00    +0.000 C 
ATOM     32  O   UNL     1      49.435   3.189  16.561  0.00  0.00    +0.000 OA
ENDBRANCH  22  32
ENDBRANCH  18  29
ENDBRANCH   1  20
TORSDOF 8
ENDMDL
MODEL 7
REMARK VINA RESULT:    -6.366      2.813      3.309
REMARK INTER + INTRA:         -10.783
REMARK INTER:                  -9.334
REMARK INTRA:                  -1.449
REMARK UNBOUND:                -1.439
REMARK  Name = 
REMARK  9 active torsions:
REMARK  status: ('A' for Active; 'I' for Inactive)
REMARK    1  A    between atoms: C_1  and  O_2
REMARK    2  A    between atoms: O_2  and  C_3
REMARK    3  A    between atoms: C_10  and  C_11
REMARK    4  A    between atoms: N_13  and  C_14
REMARK    5  A    between atoms: C_14  and  C_15
REMARK    6  A    between atoms: C_18  and  N_19
REMARK    7  A    between atoms: N_19  and  C_20
REMARK    8  A    between atoms: C_20  and  C_21
REMARK    9  A    between atoms: C_21  and  C_22
REMARK                            x       y       z     vdW  Elec       q    Type
REMARK                         _______ _______ _______ _____ _____    ______ ____
ROOT
ATOM      1  C   UNL     1      47.254   8.703  13.558  0.00  0.00    +0.000 C 
ENDROOT
BRANCH   1   2
ATOM      2  C   UNL     1      46.645   7.358  13.268  0.00  0.00    +0.000 A 
ATOM      3  C   UNL     1      47.331   6.183  13.589  0.00  0.00    +0.000 A 
ATOM      4  C   UNL     1      46.720   4.934  13.428  0.00  0.00    +0.000 A 
ATOM      5  C   UNL     1      45.406   4.829  12.959  0.00  0.00    +0.000 A 
ATOM      6  C   UNL     1      44.776   5.997  12.518  0.00  0.00    +0.000 A 
ATOM      7  C   UNL     1      45.379   7.252  12.683  0.00  0.00    +0.000 A 
BRANCH   5   8
ATOM      8  N   UNL     1      44.728   3.605  12.803  0.00  0.00    +0.000 N 
ATOM      9  H   UNL     1      44.434   3.266  13.718  0.00  0.00    +0.000 HD
BRANCH   8  10
ATOM     10  C   UNL     1      43.618   3.598  11.832  0.00  0.00    +0.000 C 
BRANCH  10  11
ATOM     11  C   UNL     1      43.759   2.436  10.854  0.00  0.00    +0.000 C 
BRANCH  11  12
ATOM     12  C   UNL     1      44.663   2.826   9.716  0.00  0.00    +0.000 A 
ATOM     13  N   UNL     1      44.795   4.139   9.440  0.00  0.00    +0.000 NA
ATOM     14  C   UNL     1      45.605   4.458   8.413  0.00  0.00    +0.000 A 
ATOM     15  C   UNL     1      46.276   3.529   7.657  0.00  0.00    +0.000 A 
ATOM     16  C   UNL     1      46.064   2.217   8.009  0.00  0.00    +0.000 A 
ATOM     17  N   UNL     1      45.264   1.838   9.025  0.00  0.00    +0.000 NA
ENDBRANCH  11  12
ENDBRANCH  10  11
ENDBRANCH   8  10
ENDBRANCH   5   8
ENDBRANCH   1   2
BRANCH   1  20
ATOM     18  C   UNL     1      48.567   9.566  15.434  0.00  0.00    +0.000 C 
ATOM     19  O   UNL     1      49.430   9.978  14.663  0.00  0.00    +0.000 OA
ATOM     20  N   UNL     1      47.455   8.918  14.967  0.00  0.00    +0.000 N 
ATOM     21  H   UNL     1      46.774   8.534  15.609  0.00  0.00    +0.000 HD
BRANCH  18  29
ATOM     22  C   UNL     1      48.561   7.423  18.135  0.00  0.00    +0.000 A 
ATOM     23  N   UNL     1      48.516   6.842  19.351  0.00  0.00    +0.000 NA
ATOM     24  C   UNL     1      48.590   7.628  20.430  0.00  0.00    +0.000 A 
ATOM     25  N   UNL     1      48.712   8.952  20.449  0.00  0.00    +0.000 NA
ATOM     26  C   UNL     1      48.741   9.493  19.219  0.00  0.00    +0.000 A 
ATOM     27  S   UNL     1      48.904  11.175  19.053  0.00  0.00    +0.000 S 
ATOM     28  C   UNL     1      48.834  11.063  17.361  0.00  0.00    +0.000 A 
ATOM     29  C   UNL     1      48.685   9.764  16.887  0.00  0.00    +0.000 A 
ATOM     30  C   UNL     1      48.658   8.821  18.003  0.00  0.00    +0.000 A 
BRANCH  22  32
ATOM     31  C   UNL     1      48.149   5.266  17.289  0.00  0.00    +0.000 C 
ATOM     32  O   UNL     1      48.533   6.613  17.018  0.00  0.00    +0.000 OA
ENDBRANCH  22  32
ENDBRANCH  18  29
ENDBRANCH   1  20
TORSDOF 8
ENDMDL
MODEL 8
REMARK VINA RESULT:    -6.330      3.140      7.813
REMARK INTER + INTRA:         -10.730
REMARK INTER:                  -8.941
REMARK INTRA:                  -1.789
REMARK UNBOUND:                -1.439
REMARK  Name = 
REMARK  9 active torsions:
REMARK  status: ('A' for Active; 'I' for Inactive)
REMARK    1  A    between atoms: C_1  and  O_2
REMARK    2  A    between atoms: O_2  and  C_3
REMARK    3  A    between atoms: C_10  and  C_11
REMARK    4  A    between atoms: N_13  and  C_14
REMARK    5  A    between atoms: C_14  and  C_15
REMARK    6  A    between atoms: C_18  and  N_19
REMARK    7  A    between atoms: N_19  and  C_20
REMARK    8  A    between atoms: C_20  and  C_21
REMARK    9  A    between atoms: C_21  and  C_22
REMARK                            x       y       z     vdW  Elec       q    Type
REMARK                         _______ _______ _______ _____ _____    ______ ____
ROOT
ATOM      1  C   UNL     1      48.396   7.864  12.082  0.00  0.00    +0.000 C 
ENDROOT
BRANCH   1   2
ATOM      2  C   UNL     1      48.446   7.791  13.584  0.00  0.00    +0.000 A 
ATOM      3  C   UNL     1      48.942   6.652  14.225  0.00  0.00    +0.000 A 
ATOM      4  C   UNL     1      49.097   6.627  15.616  0.00  0.00    +0.000 A 
ATOM      5  C   UNL     1      48.777   7.741  16.397  0.00  0.00    +0.000 A 
ATOM      6  C   UNL     1      48.160   8.825  15.765  0.00  0.00    +0.000 A 
ATOM      7  C   UNL     1      48.008   8.861  14.373  0.00  0.00    +0.000 A 
BRANCH   5   8
ATOM      8  N   UNL     1      48.938   7.787  17.795  0.00  0.00    +0.000 N 
ATOM      9  H   UNL     1      49.593   8.531  18.033  0.00  0.00    +0.000 HD
BRANCH   8  10
ATOM     10  C   UNL     1      47.697   7.873  18.588  0.00  0.00    +0.000 C 
BRANCH  10  11
ATOM     11  C   UNL     1      47.578   6.687  19.541  0.00  0.00    +0.000 C 
BRANCH  11  12
ATOM     12  C   UNL     1      47.900   5.408  18.816  0.00  0.00    +0.000 A 
ATOM     13  N   UNL     1      49.137   4.896  18.966  0.00  0.00    +0.000 NA
ATOM     14  C   UNL     1      49.399   3.754  18.301  0.00  0.00    +0.000 A 
ATOM     15  C   UNL     1      48.485   3.115  17.498  0.00  0.00    +0.000 A 
ATOM     16  C   UNL     1      47.257   3.726  17.400  0.00  0.00    +0.000 A 
ATOM     17  N   UNL     1      46.940   4.868  18.041  0.00  0.00    +0.000 NA
ENDBRANCH  11  12
ENDBRANCH  10  11
ENDBRANCH   8  10
ENDBRANCH   5   8
ENDBRANCH   1   2
BRANCH   1  20
ATOM     18  C   UNL     1      46.306   6.825  11.349  0.00  0.00    +0.000 C 
ATOM     19  O   UNL     1      45.670   7.816  11.699  0.00  0.00    +0.000 OA
ATOM     20  N   UNL     1      47.665   6.766  11.507  0.00  0.00    +0.000 N 
ATOM     21  H   UNL     1      48.176   5.928  11.266  0.00  0.00    +0.000 HD
BRANCH  18  29
ATOM     22  C   UNL     1      44.401   4.236  12.596  0.00  0.00    +0.000 A 
ATOM     23  N   UNL     1      43.708   3.100  12.809  0.00  0.00    +0.000 NA
ATOM     24  C   UNL     1      43.440   2.317  11.760  0.00  0.00    +0.000 A 
ATOM     25  N   UNL     1      43.777   2.533  10.492  0.00  0.00    +0.000 NA
ATOM     26  C   UNL     1      44.476   3.669  10.323  0.00  0.00    +0.000 A 
ATOM     27  S   UNL     1      44.982   4.111   8.764  0.00  0.00    +0.000 S 
ATOM     28  C   UNL     1      45.745   5.507   9.355  0.00  0.00    +0.000 A 
ATOM     29  C   UNL     1      45.637   5.669  10.732  0.00  0.00    +0.000 A 
ATOM     30  C   UNL     1      44.851   4.580  11.307  0.00  0.00    +0.000 A 
BRANCH  22  32
ATOM     31  C   UNL     1      45.909   4.871  14.288  0.00  0.00    +0.000 C 
ATOM     32  O   UNL     1      44.639   5.072  13.668  0.00  0.00    +0.000 OA
ENDBRANCH  22  32
ENDBRANCH  18  29
ENDBRANCH   1  20
TORSDOF 8
ENDMDL
MODEL 9
REMARK VINA RESULT:    -6.198      4.371      9.241
REMARK INTER + INTRA:         -10.536
REMARK INTER:                  -8.817
REMARK INTRA:                  -1.719
REMARK UNBOUND:                -1.439
REMARK  Name = 
REMARK  9 active torsions:
REMARK  status: ('A' for Active; 'I' for Inactive)
REMARK    1  A    between atoms: C_1  and  O_2
REMARK    2  A    between atoms: O_2  and  C_3
REMARK    3  A    between atoms: C_10  and  C_11
REMARK    4  A    between atoms: N_13  and  C_14
REMARK    5  A    between atoms: C_14  and  C_15
REMARK    6  A    between atoms: C_18  and  N_19
REMARK    7  A    between atoms: N_19  and  C_20
REMARK    8  A    between atoms: C_20  and  C_21
REMARK    9  A    between atoms: C_21  and  C_22
REMARK                            x       y       z     vdW  Elec       q    Type
REMARK                         _______ _______ _______ _____ _____    ______ ____
ROOT
ATOM      1  C   UNL     1      47.231   3.741  16.788  0.00  0.00    +0.000 C 
ENDROOT
BRANCH   1   2
ATOM      2  C   UNL     1      48.661   3.368  17.073  0.00  0.00    +0.000 A 
ATOM      3  C   UNL     1      49.509   4.259  17.737  0.00  0.00    +0.000 A 
ATOM      4  C   UNL     1      50.803   3.871  18.105  0.00  0.00    +0.000 A 
ATOM      5  C   UNL     1      51.274   2.582  17.834  0.00  0.00    +0.000 A 
ATOM      6  C   UNL     1      50.469   1.744  17.055  0.00  0.00    +0.000 A 
ATOM      7  C   UNL     1      49.171   2.122  16.689  0.00  0.00    +0.000 A 
BRANCH   5   8
ATOM      8  N   UNL     1      52.553   2.124  18.204  0.00  0.00    +0.000 N 
ATOM      9  H   UNL     1      52.970   1.625  17.420  0.00  0.00    +0.000 HD
BRANCH   8  10
ATOM     10  C   UNL     1      53.469   3.139  18.759  0.00  0.00    +0.000 C 
BRANCH  10  11
ATOM     11  C   UNL     1      54.860   2.553  18.978  0.00  0.00    +0.000 C 
BRANCH  11  12
ATOM     12  C   UNL     1      54.905   1.132  18.486  0.00  0.00    +0.000 A 
ATOM     13  N   UNL     1      55.164   0.927  17.180  0.00  0.00    +0.000 NA
ATOM     14  C   UNL     1      55.192  -0.355  16.766  0.00  0.00    +0.000 A 
ATOM     15  C   UNL     1      54.969  -1.426  17.596  0.00  0.00    +0.000 A 
ATOM     16  C   UNL     1      54.700  -1.111  18.907  0.00  0.00    +0.000 A 
ATOM     17  N   UNL     1      54.658   0.151  19.377  0.00  0.00    +0.000 NA
ENDBRANCH  11  12
ENDBRANCH  10  11
ENDBRANCH   8  10
ENDBRANCH   5   8
ENDBRANCH   1   2
BRANCH   1  20
ATOM     18  C   UNL     1      47.089   4.405  14.438  0.00  0.00    +0.000 C 
ATOM     19  O   UNL     1      47.157   3.230  14.084  0.00  0.00    +0.000 OA
ATOM     20  N   UNL     1      47.123   4.745  15.764  0.00  0.00    +0.000 N 
ATOM     21  H   UNL     1      47.121   5.716  16.047  0.00  0.00    +0.000 HD
BRANCH  18  29
ATOM     22  C   UNL     1      48.882   7.283  13.814  0.00  0.00    +0.000 A 
ATOM     23  N   UNL     1      49.338   8.483  13.404  0.00  0.00    +0.000 NA
ATOM     24  C   UNL     1      48.683   9.105  12.419  0.00  0.00    +0.000 A 
ATOM     25  N   UNL     1      47.608   8.667  11.771  0.00  0.00    +0.000 NA
ATOM     26  C   UNL     1      47.179   7.474  12.217  0.00  0.00    +0.000 A 
ATOM     27  S   UNL     1      45.820   6.755  11.495  0.00  0.00    +0.000 S 
ATOM     28  C   UNL     1      45.908   5.423  12.542  0.00  0.00    +0.000 A 
ATOM     29  C   UNL     1      46.956   5.491  13.455  0.00  0.00    +0.000 A 
ATOM     30  C   UNL     1      47.733   6.709  13.239  0.00  0.00    +0.000 A 
BRANCH  22  32
ATOM     31  C   UNL     1      50.067   7.461  15.840  0.00  0.00    +0.000 C 
ATOM     32  O   UNL     1      49.583   6.615  14.798  0.00  0.00    +0.000 OA
ENDBRANCH  22  32
ENDBRANCH  18  29
ENDBRANCH   1  20
TORSDOF 8
ENDMDL
