MODEL 1
REMARK VINA RESULT:    -8.116      0.000      0.000
REMARK INTER + INTRA:         -11.257
REMARK INTER:                 -10.488
REMARK INTRA:                  -0.769
REMARK UNBOUND:                -0.769
REMARK  Name = 
REMARK  5 active torsions:
REMARK  status: ('A' for Active; 'I' for Inactive)
REMARK    1  A    between atoms: C_2  and  C_4
REMARK    2  A    between atoms: C_7  and  S_8
REMARK    3  A    between atoms: S_8  and  C_9
REMARK    4  A    between atoms: C_9  and  C_10
REMARK    5  A    between atoms: C_14  and  C_15
REMARK                            x       y       z     vdW  Elec       q    Type
REMARK                         _______ _______ _______ _____ _____    ______ ____
ROOT
ATOM      1  C   UNL     1      44.123   5.851  11.279  0.00  0.00    +0.000 C 
ENDROOT
BRANCH   1   2
ATOM      2  C   UNL     1      45.263   5.637  12.235  0.00  0.00    +0.000 A 
ATOM      3  C   UNL     1      45.197   4.671  13.232  0.00  0.00    +0.000 A 
ATOM      4  N   UNL     1      46.183   4.438  14.123  0.00  0.00    +0.000 NA
ATOM      5  C   UNL     1      47.304   5.187  14.003  0.00  0.00    +0.000 A 
ATOM      6  C   UNL     1      47.504   6.177  13.038  0.00  0.00    +0.000 A 
ATOM      7  C   UNL     1      46.440   6.390  12.148  0.00  0.00    +0.000 A 
BRANCH   6   8
ATOM      8  C   UNL     1      48.750   6.956  12.965  0.00  0.00    +0.000 A 
ATOM      9  C   UNL     1      49.291   7.383  11.744  0.00  0.00    +0.000 A 
ATOM     10  C   UNL     1      50.463   8.133  11.711  0.00  0.00    +0.000 A 
ATOM     11  C   UNL     1      51.079   8.437  12.911  0.00  0.00    +0.000 A 
ATOM     12  N   UNL     1      50.616   8.041  14.116  0.00  0.00    +0.000 NA
ATOM     13  C   UNL     1      49.470   7.317  14.108  0.00  0.00    +0.000 A 
ENDBRANCH   6   8
ENDBRANCH   1   2
BRANCH   1  14
ATOM     14  S   UNL     1      43.430   4.266  10.702  0.00  0.00    +0.000 S 
BRANCH  14  18
ATOM     15  C   UNL     1      46.450   2.454   7.826  0.00  0.00    +0.000 A 
ATOM     16  C   UNL     1      46.248   3.827   7.735  0.00  0.00    +0.000 A 
ATOM     17  C   UNL     1      45.334   4.433   8.604  0.00  0.00    +0.000 A 
ATOM     18  C   UNL     1      44.643   3.662   9.539  0.00  0.00    +0.000 A 
ATOM     19  C   UNL     1      44.927   2.292   9.548  0.00  0.00    +0.000 A 
ATOM     20  N   UNL     1      45.804   1.664   8.722  0.00  0.00    +0.000 NA
BRANCH  15  22
ATOM     21  N   UNL     1      48.498   2.486   6.492  0.00  0.00    +0.000 N 
ATOM     22  C   UNL     1      47.401   1.772   6.893  0.00  0.00    +0.000 C 
ATOM     23  O   UNL     1      47.229   0.614   6.518  0.00  0.00    +0.000 OA
ATOM     24  H   UNL     1      49.196   2.009   5.940  0.00  0.00    +0.000 HD
ATOM     25  H   UNL     1      48.729   3.360   6.952  0.00  0.00    +0.000 HD
ENDBRANCH  15  22
ENDBRANCH  14  18
ENDBRANCH   1  14
TORSDOF 5
ENDMDL
MODEL 2
REMARK VINA RESULT:    -8.099      2.026      2.454
REMARK INTER + INTRA:         -11.235
REMARK INTER:                 -10.501
REMARK INTRA:                  -0.734
REMARK UNBOUND:                -0.769
REMARK  Name = 
REMARK  5 active torsions:
REMARK  status: ('A' for Active; 'I' for Inactive)
REMARK    1  A    between atoms: C_2  and  C_4
REMARK    2  A    between atoms: C_7  and  S_8
REMARK    3  A    between atoms: S_8  and  C_9
REMARK    4  A    between atoms: C_9  and  C_10
REMARK    5  A    between atoms: C_14  and  C_15
REMARK                            x       y       z     vdW  Elec       q    Type
REMARK                         _______ _______ _______ _____ _____    ______ ____
ROOT
ATOM      1  C   UNL     1      44.213   3.777  12.323  0.00  0.00    +0.000 C 
ENDROOT
BRANCH   1   2
ATOM      2  C   UNL     1      45.425   4.586  12.693  0.00  0.00    +0.000 A 
ATOM      3  C   UNL     1      46.494   4.014  13.371  0.00  0.00    +0.000 A 
ATOM      4  N   UNL     1      47.604   4.689  13.735  0.00  0.00    +0.000 NA
ATOM      5  C   UNL     1      47.665   5.995  13.388  0.00  0.00    +0.000 A 
ATOM      6  C   UNL     1      46.669   6.686  12.693  0.00  0.00    +0.000 A 
ATOM      7  C   UNL     1      45.530   5.940  12.354  0.00  0.00    +0.000 A 
BRANCH   6   8
ATOM      8  C   UNL     1      46.802   8.110  12.347  0.00  0.00    +0.000 A 
ATOM      9  C   UNL     1      48.045   8.695  12.066  0.00  0.00    +0.000 A 
ATOM     10  C   UNL     1      48.134  10.042  11.726  0.00  0.00    +0.000 A 
ATOM     11  C   UNL     1      46.968  10.783  11.678  0.00  0.00    +0.000 A 
ATOM     12  N   UNL     1      45.745  10.280  11.954  0.00  0.00    +0.000 NA
ATOM     13  C   UNL     1      45.698   8.964  12.277  0.00  0.00    +0.000 A 
ENDBRANCH   6   8
ENDBRANCH   1   2
BRANCH   1  14
ATOM     14  S   UNL     1      43.527   4.300  10.716  0.00  0.00    +0.000 S 
BRANCH  14  18
ATOM     15  C   UNL     1      46.476   2.807   7.594  0.00  0.00    +0.000 A 
ATOM     16  C   UNL     1      45.879   1.843   8.400  0.00  0.00    +0.000 A 
ATOM     17  C   UNL     1      44.959   2.252   9.371  0.00  0.00    +0.000 A 
ATOM     18  C   UNL     1      44.655   3.605   9.519  0.00  0.00    +0.000 A 
ATOM     19  C   UNL     1      45.307   4.488   8.651  0.00  0.00    +0.000 A 
ATOM     20  N   UNL     1      46.208   4.133   7.697  0.00  0.00    +0.000 NA
BRANCH  15  22
ATOM     21  N   UNL     1      47.461   3.079   5.374  0.00  0.00    +0.000 N 
ATOM     22  C   UNL     1      47.485   2.404   6.564  0.00  0.00    +0.000 C 
ATOM     23  O   UNL     1      48.319   1.527   6.777  0.00  0.00    +0.000 OA
ATOM     24  H   UNL     1      48.194   2.886   4.706  0.00  0.00    +0.000 HD
ATOM     25  H   UNL     1      46.903   3.921   5.279  0.00  0.00    +0.000 HD
ENDBRANCH  15  22
ENDBRANCH  14  18
ENDBRANCH   1  14
TORSDOF 5
ENDMDL
MODEL 3
REMARK VINA RESULT:    -8.001      3.246      7.238
REMARK INTER + INTRA:         -11.109
REMARK INTER:                 -10.787
REMARK INTRA:                  -0.322
REMARK UNBOUND:                -0.769
REMARK  Name = 
REMARK  5 active torsions:
REMARK  status: ('A' for Active; 'I' for Inactive)
REMARK    1  A    between atoms: C_2  and  C_4
REMARK    2  A    between atoms: C_7  and  S_8
REMARK    3  A    between atoms: S_8  and  C_9
REMARK    4  A    between atoms: C_9  and  C_10
REMARK    5  A    between atoms: C_14  and  C_15
REMARK                            x       y       z     vdW  Elec       q    Type
REMARK                         _______ _______ _______ _____ _____    ______ ____
ROOT
ATOM      1  C   UNL     1      44.821   6.328  11.506  0.00  0.00    +0.000 C 
ENDROOT
BRANCH   1   2
ATOM      2  C   UNL     1      44.594   4.969  10.907  0.00  0.00    +0.000 A 
ATOM      3  C   UNL     1      43.619   4.114  11.405  0.00  0.00    +0.000 A 
ATOM      4  N   UNL     1      43.374   2.881  10.915  0.00  0.00    +0.000 NA
ATOM      5  C   UNL     1      44.122   2.485   9.859  0.00  0.00    +0.000 A 
ATOM      6  C   UNL     1      45.122   3.250   9.255  0.00  0.00    +0.000 A 
ATOM      7  C   UNL     1      45.346   4.517   9.815  0.00  0.00    +0.000 A 
BRANCH   6   8
ATOM      8  C   UNL     1      45.898   2.756   8.107  0.00  0.00    +0.000 A 
ATOM      9  C   UNL     1      46.202   3.570   7.007  0.00  0.00    +0.000 A 
ATOM     10  C   UNL     1      46.953   3.076   5.945  0.00  0.00    +0.000 A 
ATOM     11  C   UNL     1      47.385   1.764   6.003  0.00  0.00    +0.000 A 
ATOM     12  N   UNL     1      47.110   0.927   7.027  0.00  0.00    +0.000 NA
ATOM     13  C   UNL     1      46.381   1.445   8.045  0.00  0.00    +0.000 A 
ENDBRANCH   6   8
ENDBRANCH   1   2
BRANCH   1  14
ATOM     14  S   UNL     1      46.598   6.664  11.744  0.00  0.00    +0.000 S 
BRANCH  14  18
ATOM     15  C   UNL     1      47.384   4.488  15.657  0.00  0.00    +0.000 A 
ATOM     16  C   UNL     1      48.140   5.630  15.416  0.00  0.00    +0.000 A 
ATOM     17  C   UNL     1      47.930   6.340  14.228  0.00  0.00    +0.000 A 
ATOM     18  C   UNL     1      46.977   5.897  13.311  0.00  0.00    +0.000 A 
ATOM     19  C   UNL     1      46.269   4.741  13.657  0.00  0.00    +0.000 A 
ATOM     20  N   UNL     1      46.444   4.022  14.797  0.00  0.00    +0.000 NA
BRANCH  15  22
ATOM     21  N   UNL     1      48.825   3.815  17.513  0.00  0.00    +0.000 N 
ATOM     22  C   UNL     1      47.605   3.692  16.905  0.00  0.00    +0.000 C 
ATOM     23  O   UNL     1      46.728   2.978  17.387  0.00  0.00    +0.000 OA
ATOM     24  H   UNL     1      48.957   3.360  18.406  0.00  0.00    +0.000 HD
ATOM     25  H   UNL     1      49.466   4.545  17.220  0.00  0.00    +0.000 HD
ENDBRANCH  15  22
ENDBRANCH  14  18
ENDBRANCH   1  14
TORSDOF 5
ENDMDL
MODEL 4
REMARK VINA RESULT:    -7.834      2.123      3.328
REMARK INTER + INTRA:         -10.892
REMARK INTER:                 -10.301
REMARK INTRA:                  -0.592
REMARK UNBOUND:                -0.769
REMARK  Name = 
REMARK  5 active torsions:
REMARK  status: ('A' for Active; 'I' for Inactive)
REMARK    1  A    between atoms: C_2  and  C_4
REMARK    2  A    between atoms: C_7  and  S_8
REMARK    3  A    between atoms: S_8  and  C_9
REMARK    4  A    between atoms: C_9  and  C_10
REMARK    5  A    between atoms: C_14  and  C_15
REMARK                            x       y       z     vdW  Elec       q    Type
REMARK                         _______ _______ _______ _____ _____    ______ ____
ROOT
ATOM      1  C   UNL     1      44.195   4.238  12.252  0.00  0.00    +0.000 C 
ENDROOT
BRANCH   1   2
ATOM      2  C   UNL     1      45.426   4.905  12.799  0.00  0.00    +0.000 A 
ATOM      3  C   UNL     1      46.052   5.938  12.113  0.00  0.00    +0.000 A 
ATOM      4  N   UNL     1      47.162   6.570  12.549  0.00  0.00    +0.000 NA
ATOM      5  C   UNL     1      47.664   6.169  13.740  0.00  0.00    +0.000 A 
ATOM      6  C   UNL     1      47.124   5.156  14.536  0.00  0.00    +0.000 A 
ATOM      7  C   UNL     1      45.979   4.522  14.027  0.00  0.00    +0.000 A 
BRANCH   6   8
ATOM      8  C   UNL     1      47.722   4.771  15.823  0.00  0.00    +0.000 A 
ATOM      9  C   UNL     1      47.406   3.562  16.459  0.00  0.00    +0.000 A 
ATOM     10  C   UNL     1      48.003   3.220  17.669  0.00  0.00    +0.000 A 
ATOM     11  C   UNL     1      48.907   4.106  18.226  0.00  0.00    +0.000 A 
ATOM     12  N   UNL     1      49.239   5.291  17.670  0.00  0.00    +0.000 NA
ATOM     13  C   UNL     1      48.641   5.587  16.490  0.00  0.00    +0.000 A 
ENDBRANCH   6   8
ENDBRANCH   1   2
BRANCH   1  14
ATOM     14  S   UNL     1      43.790   4.852  10.583  0.00  0.00    +0.000 S 
BRANCH  14  18
ATOM     15  C   UNL     1      46.470   2.551   7.721  0.00  0.00    +0.000 A 
ATOM     16  C   UNL     1      45.718   1.796   8.615  0.00  0.00    +0.000 A 
ATOM     17  C   UNL     1      44.872   2.457   9.511  0.00  0.00    +0.000 A 
ATOM     18  C   UNL     1      44.794   3.850   9.499  0.00  0.00    +0.000 A 
ATOM     19  C   UNL     1      45.588   4.510   8.554  0.00  0.00    +0.000 A 
ATOM     20  N   UNL     1      46.424   3.907   7.669  0.00  0.00    +0.000 NA
BRANCH  15  22
ATOM     21  N   UNL     1      48.455   2.615   6.296  0.00  0.00    +0.000 N 
ATOM     22  C   UNL     1      47.405   1.874   6.768  0.00  0.00    +0.000 C 
ATOM     23  O   UNL     1      47.261   0.699   6.438  0.00  0.00    +0.000 OA
ATOM     24  H   UNL     1      49.147   2.146   5.728  0.00  0.00    +0.000 HD
ATOM     25  H   UNL     1      48.673   3.511   6.718  0.00  0.00    +0.000 HD
ENDBRANCH  15  22
ENDBRANCH  14  18
ENDBRANCH   1  14
TORSDOF 5
ENDMDL
MODEL 5
REMARK VINA RESULT:    -7.163      1.766      2.226
REMARK INTER + INTRA:         -10.026
REMARK INTER:                  -9.397
REMARK INTRA:                  -0.629
REMARK UNBOUND:                -0.769
REMARK  Name = 
REMARK  5 active torsions:
REMARK  status: ('A' for Active; 'I' for Inactive)
REMARK    1  A    between atoms: C_2  and  C_4
REMARK    2  A    between atoms: C_7  and  S_8
REMARK    3  A    between atoms: S_8  and  C_9
REMARK    4  A    between atoms: C_9  and  C_10
REMARK    5  A    between atoms: C_14  and  C_15
REMARK                            x       y       z     vdW  Elec       q    Type
REMARK                         _______ _______ _______ _____ _____    ______ ____
ROOT
ATOM      1  C   UNL     1      45.373   4.552  12.344  0.00  0.00    +0.000 C 
ENDROOT
BRANCH   1   2
ATOM      2  C   UNL     1      45.711   6.016  12.302  0.00  0.00    +0.000 A 
ATOM      3  C   UNL     1      44.748   6.986  12.547  0.00  0.00    +0.000 A 
ATOM      4  N   UNL     1      44.988   8.313  12.517  0.00  0.00    +0.000 NA
ATOM      5  C   UNL     1      46.258   8.697  12.251  0.00  0.00    +0.000 A 
ATOM      6  C   UNL     1      47.322   7.826  12.003  0.00  0.00    +0.000 A 
ATOM      7  C   UNL     1      47.011   6.458  12.031  0.00  0.00    +0.000 A 
BRANCH   6   8
ATOM      8  C   UNL     1      48.681   8.313  11.720  0.00  0.00    +0.000 A 
ATOM      9  C   UNL     1      48.958   9.673  11.522  0.00  0.00    +0.000 A 
ATOM     10  C   UNL     1      50.259  10.102  11.272  0.00  0.00    +0.000 A 
ATOM     11  C   UNL     1      51.262   9.153  11.222  0.00  0.00    +0.000 A 
ATOM     12  N   UNL     1      51.055   7.829  11.389  0.00  0.00    +0.000 NA
ATOM     13  C   UNL     1      49.777   7.450  11.634  0.00  0.00    +0.000 A 
ENDBRANCH   6   8
ENDBRANCH   1   2
BRANCH   1  14
ATOM     14  S   UNL     1      44.067   4.134  11.142  0.00  0.00    +0.000 S 
BRANCH  14  18
ATOM     15  C   UNL     1      46.431   3.056   7.411  0.00  0.00    +0.000 A 
ATOM     16  C   UNL     1      45.944   1.996   8.169  0.00  0.00    +0.000 A 
ATOM     17  C   UNL     1      45.204   2.276   9.323  0.00  0.00    +0.000 A 
ATOM     18  C   UNL     1      44.967   3.599   9.695  0.00  0.00    +0.000 A 
ATOM     19  C   UNL     1      45.497   4.587   8.857  0.00  0.00    +0.000 A 
ATOM     20  N   UNL     1      46.222   4.358   7.731  0.00  0.00    +0.000 NA
BRANCH  15  22
ATOM     21  N   UNL     1      48.575   2.504   6.374  0.00  0.00    +0.000 N 
ATOM     22  C   UNL     1      47.249   2.789   6.186  0.00  0.00    +0.000 C 
ATOM     23  O   UNL     1      46.758   2.795   5.060  0.00  0.00    +0.000 OA
ATOM     24  H   UNL     1      49.119   2.228   5.569  0.00  0.00    +0.000 HD
ATOM     25  H   UNL     1      48.925   2.312   7.307  0.00  0.00    +0.000 HD
ENDBRANCH  15  22
ENDBRANCH  14  18
ENDBRANCH   1  14
TORSDOF 5
ENDMDL
MODEL 6
REMARK VINA RESULT:    -7.098      3.497      7.485
REMARK INTER + INTRA:          -9.942
REMARK INTER:                  -9.259
REMARK INTRA:                  -0.683
REMARK UNBOUND:                -0.769
REMARK  Name = 
REMARK  5 active torsions:
REMARK  status: ('A' for Active; 'I' for Inactive)
REMARK    1  A    between atoms: C_2  and  C_4
REMARK    2  A    between atoms: C_7  and  S_8
REMARK    3  A    between atoms: S_8  and  C_9
REMARK    4  A    between atoms: C_9  and  C_10
REMARK    5  A    between atoms: C_14  and  C_15
REMARK                            x       y       z     vdW  Elec       q    Type
REMARK                         _______ _______ _______ _____ _____    ______ ____
ROOT
ATOM      1  C   UNL     1      45.765   7.249  12.267  0.00  0.00    +0.000 C 
ENDROOT
BRANCH   1   2
ATOM      2  C   UNL     1      45.009   6.246  11.441  0.00  0.00    +0.000 A 
ATOM      3  C   UNL     1      43.624   6.150  11.509  0.00  0.00    +0.000 A 
ATOM      4  N   UNL     1      42.892   5.267  10.799  0.00  0.00    +0.000 NA
ATOM      5  C   UNL     1      43.569   4.451   9.958  0.00  0.00    +0.000 A 
ATOM      6  C   UNL     1      44.954   4.454   9.782  0.00  0.00    +0.000 A 
ATOM      7  C   UNL     1      45.668   5.381  10.558  0.00  0.00    +0.000 A 
BRANCH   6   8
ATOM      8  C   UNL     1      45.626   3.537   8.849  0.00  0.00    +0.000 A 
ATOM      9  C   UNL     1      45.593   2.146   9.019  0.00  0.00    +0.000 A 
ATOM     10  C   UNL     1      46.226   1.305   8.108  0.00  0.00    +0.000 A 
ATOM     11  C   UNL     1      46.886   1.878   7.038  0.00  0.00    +0.000 A 
ATOM     12  N   UNL     1      46.965   3.210   6.829  0.00  0.00    +0.000 NA
ATOM     13  C   UNL     1      46.334   3.997   7.735  0.00  0.00    +0.000 A 
ENDBRANCH   6   8
ENDBRANCH   1   2
BRANCH   1  14
ATOM     14  S   UNL     1      47.532   6.816  12.387  0.00  0.00    +0.000 S 
BRANCH  14  18
ATOM     15  C   UNL     1      47.985   4.624  16.344  0.00  0.00    +0.000 A 
ATOM     16  C   UNL     1      47.105   4.069  15.420  0.00  0.00    +0.000 A 
ATOM     17  C   UNL     1      46.937   4.702  14.184  0.00  0.00    +0.000 A 
ATOM     18  C   UNL     1      47.644   5.870  13.897  0.00  0.00    +0.000 A 
ATOM     19  C   UNL     1      48.507   6.337  14.894  0.00  0.00    +0.000 A 
ATOM     20  N   UNL     1      48.697   5.754  16.107  0.00  0.00    +0.000 NA
BRANCH  15  22
ATOM     21  N   UNL     1      47.243   3.044  18.055  0.00  0.00    +0.000 N 
ATOM     22  C   UNL     1      48.167   3.984  17.685  0.00  0.00    +0.000 C 
ATOM     23  O   UNL     1      49.113   4.263  18.417  0.00  0.00    +0.000 OA
ATOM     24  H   UNL     1      47.404   2.535  18.913  0.00  0.00    +0.000 HD
ATOM     25  H   UNL     1      46.584   2.684  17.372  0.00  0.00    +0.000 HD
ENDBRANCH  15  22
ENDBRANCH  14  18
ENDBRANCH   1  14
TORSDOF 5
ENDMDL
MODEL 7
REMARK VINA RESULT:    -6.903      3.099      7.128
REMARK INTER + INTRA:          -9.690
REMARK INTER:                  -9.109
REMARK INTRA:                  -0.581
REMARK UNBOUND:                -0.769
REMARK  Name = 
REMARK  5 active torsions:
REMARK  status: ('A' for Active; 'I' for Inactive)
REMARK    1  A    between atoms: C_2  and  C_4
REMARK    2  A    between atoms: C_7  and  S_8
REMARK    3  A    between atoms: S_8  and  C_9
REMARK    4  A    between atoms: C_9  and  C_10
REMARK    5  A    between atoms: C_14  and  C_15
REMARK                            x       y       z     vdW  Elec       q    Type
REMARK                         _______ _______ _______ _____ _____    ______ ____
ROOT
ATOM      1  C   UNL     1      44.260   6.229  12.411  0.00  0.00    +0.000 C 
ENDROOT
BRANCH   1   2
ATOM      2  C   UNL     1      44.163   4.911  11.695  0.00  0.00    +0.000 A 
ATOM      3  C   UNL     1      43.295   3.916  12.126  0.00  0.00    +0.000 A 
ATOM      4  N   UNL     1      43.169   2.713  11.530  0.00  0.00    +0.000 NA
ATOM      5  C   UNL     1      43.930   2.494  10.433  0.00  0.00    +0.000 A 
ATOM      6  C   UNL     1      44.829   3.412   9.886  0.00  0.00    +0.000 A 
ATOM      7  C   UNL     1      44.932   4.641  10.556  0.00  0.00    +0.000 A 
BRANCH   6   8
ATOM      8  C   UNL     1      45.626   3.107   8.688  0.00  0.00    +0.000 A 
ATOM      9  C   UNL     1      46.094   1.814   8.414  0.00  0.00    +0.000 A 
ATOM     10  C   UNL     1      46.833   1.556   7.263  0.00  0.00    +0.000 A 
ATOM     11  C   UNL     1      47.093   2.606   6.403  0.00  0.00    +0.000 A 
ATOM     12  N   UNL     1      46.683   3.875   6.621  0.00  0.00    +0.000 NA
ATOM     13  C   UNL     1      45.964   4.087   7.749  0.00  0.00    +0.000 A 
ENDBRANCH   6   8
ENDBRANCH   1   2
BRANCH   1  14
ATOM     14  S   UNL     1      45.414   7.363  11.569  0.00  0.00    +0.000 S 
BRANCH  14  18
ATOM     15  C   UNL     1      49.100   7.324  14.229  0.00  0.00    +0.000 A 
ATOM     16  C   UNL     1      48.258   8.424  14.347  0.00  0.00    +0.000 A 
ATOM     17  C   UNL     1      47.106   8.480  13.554  0.00  0.00    +0.000 A 
ATOM     18  C   UNL     1      46.820   7.443  12.666  0.00  0.00    +0.000 A 
ATOM     19  C   UNL     1      47.731   6.381  12.633  0.00  0.00    +0.000 A 
ATOM     20  N   UNL     1      48.861   6.290  13.383  0.00  0.00    +0.000 NA
BRANCH  15  22
ATOM     21  N   UNL     1      51.507   7.686  14.450  0.00  0.00    +0.000 N 
ATOM     22  C   UNL     1      50.354   7.248  15.043  0.00  0.00    +0.000 C 
ATOM     23  O   UNL     1      50.355   6.840  16.202  0.00  0.00    +0.000 OA
ATOM     24  H   UNL     1      52.343   7.730  15.016  0.00  0.00    +0.000 HD
ATOM     25  H   UNL     1      51.465   8.194  13.573  0.00  0.00    +0.000 HD
ENDBRANCH  15  22
ENDBRANCH  14  18
ENDBRANCH   1  14
TORSDOF 5
ENDMDL
MODEL 8
REMARK VINA RESULT:    -6.740      1.675      2.428
REMARK INTER + INTRA:          -9.479
REMARK INTER:                  -8.853
REMARK INTRA:                  -0.626
REMARK UNBOUND:                -0.769
REMARK  Name = 
REMARK  5 active torsions:
REMARK  status: ('A' for Active; 'I' for Inactive)
REMARK    1  A    between atoms: C_2  and  C_4
REMARK    2  A    between atoms: C_7  and  S_8
REMARK    3  A    between atoms: S_8  and  C_9
REMARK    4  A    between atoms: C_9  and  C_10
REMARK    5  A    between atoms: C_14  and  C_15
REMARK                            x       y       z     vdW  Elec       q    Type
REMARK                         _______ _______ _______ _____ _____    ______ ____
ROOT
ATOM      1  C   UNL     1      44.417   4.482  12.643  0.00  0.00    +0.000 C 
ENDROOT
BRANCH   1   2
ATOM      2  C   UNL     1      45.337   5.667  12.731  0.00  0.00    +0.000 A 
ATOM      3  C   UNL     1      45.093   6.826  12.005  0.00  0.00    +0.000 A 
ATOM      4  N   UNL     1      45.885   7.918  12.037  0.00  0.00    +0.000 NA
ATOM      5  C   UNL     1      46.964   7.865  12.851  0.00  0.00    +0.000 A 
ATOM      6  C   UNL     1      47.314   6.770  13.645  0.00  0.00    +0.000 A 
ATOM      7  C   UNL     1      46.465   5.656  13.560  0.00  0.00    +0.000 A 
BRANCH   6   8
ATOM      8  C   UNL     1      48.505   6.780  14.509  0.00  0.00    +0.000 A 
ATOM      9  C   UNL     1      48.545   6.089  15.729  0.00  0.00    +0.000 A 
ATOM     10  C   UNL     1      49.693   6.107  16.516  0.00  0.00    +0.000 A 
ATOM     11  C   UNL     1      50.785   6.824  16.064  0.00  0.00    +0.000 A 
ATOM     12  N   UNL     1      50.801   7.522  14.908  0.00  0.00    +0.000 NA
ATOM     13  C   UNL     1      49.667   7.478  14.167  0.00  0.00    +0.000 A 
ENDBRANCH   6   8
ENDBRANCH   1   2
BRANCH   1  14
ATOM     14  S   UNL     1      43.374   4.558  11.148  0.00  0.00    +0.000 S 
BRANCH  14  18
ATOM     15  C   UNL     1      46.010   2.937   7.818  0.00  0.00    +0.000 A 
ATOM     16  C   UNL     1      45.524   2.011   8.735  0.00  0.00    +0.000 A 
ATOM     17  C   UNL     1      44.702   2.460   9.774  0.00  0.00    +0.000 A 
ATOM     18  C   UNL     1      44.384   3.814   9.878  0.00  0.00    +0.000 A 
ATOM     19  C   UNL     1      44.921   4.657   8.899  0.00  0.00    +0.000 A 
ATOM     20  N   UNL     1      45.725   4.263   7.876  0.00  0.00    +0.000 NA
BRANCH  15  22
ATOM     21  N   UNL     1      47.640   1.352   6.921  0.00  0.00    +0.000 N 
ATOM     22  C   UNL     1      46.914   2.493   6.710  0.00  0.00    +0.000 C 
ATOM     23  O   UNL     1      46.988   3.102   5.646  0.00  0.00    +0.000 OA
ATOM     24  H   UNL     1      48.181   0.987   6.150  0.00  0.00    +0.000 HD
ATOM     25  H   UNL     1      47.430   0.757   7.716  0.00  0.00    +0.000 HD
ENDBRANCH  15  22
ENDBRANCH  14  18
ENDBRANCH   1  14
TORSDOF 5
ENDMDL
MODEL 9
REMARK VINA RESULT:    -6.425      3.015      7.212
REMARK INTER + INTRA:          -9.072
REMARK INTER:                  -8.460
REMARK INTRA:                  -0.611
REMARK UNBOUND:                -0.769
REMARK  Name = 
REMARK  5 active torsions:
REMARK  status: ('A' for Active; 'I' for Inactive)
REMARK    1  A    between atoms: C_2  and  C_4
REMARK    2  A    between atoms: C_7  and  S_8
REMARK    3  A    between atoms: S_8  and  C_9
REMARK    4  A    between atoms: C_9  and  C_10
REMARK    5  A    between atoms: C_14  and  C_15
REMARK                            x       y       z     vdW  Elec       q    Type
REMARK                         _______ _______ _______ _____ _____    ______ ____
ROOT
ATOM      1  C   UNL     1      45.653   7.383  11.749  0.00  0.00    +0.000 C 
ENDROOT
BRANCH   1   2
ATOM      2  C   UNL     1      44.994   6.182  11.131  0.00  0.00    +0.000 A 
ATOM      3  C   UNL     1      43.686   5.833  11.447  0.00  0.00    +0.000 A 
ATOM      4  N   UNL     1      43.044   4.765  10.931  0.00  0.00    +0.000 NA
ATOM      5  C   UNL     1      43.729   4.016  10.036  0.00  0.00    +0.000 A 
ATOM      6  C   UNL     1      45.039   4.264   9.620  0.00  0.00    +0.000 A 
ATOM      7  C   UNL     1      45.664   5.378  10.201  0.00  0.00    +0.000 A 
BRANCH   6   8
ATOM      8  C   UNL     1      45.724   3.406   8.641  0.00  0.00    +0.000 A 
ATOM      9  C   UNL     1      46.394   3.934   7.528  0.00  0.00    +0.000 A 
ATOM     10  C   UNL     1      47.046   3.096   6.629  0.00  0.00    +0.000 A 
ATOM     11  C   UNL     1      47.011   1.733   6.862  0.00  0.00    +0.000 A 
ATOM     12  N   UNL     1      46.369   1.165   7.905  0.00  0.00    +0.000 NA
ATOM     13  C   UNL     1      45.749   2.014   8.761  0.00  0.00    +0.000 A 
ENDBRANCH   6   8
ENDBRANCH   1   2
BRANCH   1  14
ATOM     14  S   UNL     1      46.618   6.926  13.228  0.00  0.00    +0.000 S 
BRANCH  14  18
ATOM     15  C   UNL     1      50.933   8.156  12.499  0.00  0.00    +0.000 A 
ATOM     16  C   UNL     1      50.091   8.151  11.393  0.00  0.00    +0.000 A 
ATOM     17  C   UNL     1      48.751   7.786  11.566  0.00  0.00    +0.000 A 
ATOM     18  C   UNL     1      48.282   7.436  12.833  0.00  0.00    +0.000 A 
ATOM     19  C   UNL     1      49.213   7.483  13.877  0.00  0.00    +0.000 A 
ATOM     20  N   UNL     1      50.521   7.828  13.750  0.00  0.00    +0.000 NA
BRANCH  15  22
ATOM     21  N   UNL     1      53.254   7.978  13.245  0.00  0.00    +0.000 N 
ATOM     22  C   UNL     1      52.378   8.515  12.341  0.00  0.00    +0.000 C 
ATOM     23  O   UNL     1      52.774   9.236  11.428  0.00  0.00    +0.000 OA
ATOM     24  H   UNL     1      54.241   8.133  13.096  0.00  0.00    +0.000 HD
ATOM     25  H   UNL     1      52.949   7.240  13.870  0.00  0.00    +0.000 HD
ENDBRANCH  15  22
ENDBRANCH  14  18
ENDBRANCH   1  14
TORSDOF 5
ENDMDL
