MODEL 1
REMARK VINA RESULT:    -7.113      0.000      0.000
REMARK INTER + INTRA:         -12.224
REMARK INTER:                 -11.272
REMARK INTRA:                  -0.952
REMARK UNBOUND:                -0.952
REMARK  Name = 
REMARK  11 active torsions:
REMARK  status: ('A' for Active; 'I' for Inactive)
REMARK    1  A    between atoms: C_1  and  O_2
REMARK    2  A    between atoms: O_2  and  C_3
REMARK    3  A    between atoms: C_3  and  C_4
REMARK    4  A    between atoms: C_4  and  N_5
REMARK    5  A    between atoms: C_4  and  C_21
REMARK    6  A    between atoms: N_5  and  C_6
REMARK    7  A    between atoms: C_6  and  C_7
REMARK    8  A    between atoms: C_10  and  C_11
REMARK    9  A    between atoms: C_11  and  N_12
REMARK   10  A    between atoms: N_12  and  C_13
REMARK   11  A    between atoms: C_13  and  C_14
REMARK                            x       y       z     vdW  Elec       q    Type
REMARK                         _______ _______ _______ _____ _____    ______ ____
ROOT
ATOM      1  N   UNL     1      46.934   4.276  15.666  0.00  0.00    +0.000 NA
ATOM      2  H   UNL     1      46.278   4.757  16.285  0.00  0.00    +0.000 HD
ENDROOT
BRANCH   1   3
ATOM      3  C   UNL     1      48.147   4.026  16.481  0.00  0.00    +0.000 C 
BRANCH   3   4
ATOM      4  C   UNL     1      48.144   4.942  17.695  0.00  0.00    +0.000 A 
ATOM      5  C   UNL     1      47.047   5.166  18.514  0.00  0.00    +0.000 A 
ATOM      6  S   UNL     1      47.338   6.283  19.765  0.00  0.00    +0.000 S 
ATOM      7  C   UNL     1      48.951   6.495  19.272  0.00  0.00    +0.000 A 
ATOM      8  N   UNL     1      49.779   7.337  19.945  0.00  0.00    +0.000 NA
ATOM      9  C   UNL     1      50.969   7.418  19.446  0.00  0.00    +0.000 A 
ATOM     10  N   UNL     1      51.403   6.738  18.340  0.00  0.00    +0.000 N 
ATOM     11  C   UNL     1      50.615   5.847  17.643  0.00  0.00    +0.000 A 
ATOM     12  O   UNL     1      51.066   5.204  16.701  0.00  0.00    +0.000 OA
ATOM     13  C   UNL     1      49.261   5.735  18.158  0.00  0.00    +0.000 A 
ATOM     14  H   UNL     1      52.351   6.838  18.012  0.00  0.00    +0.000 HD
ENDBRANCH   3   4
BRANCH   3  15
ATOM     15  C   UNL     1      48.364   2.536  16.865  0.00  0.00    +0.000 C 
BRANCH  15  17
ATOM     16  C   UNL     1      50.600   1.836  17.004  0.00  0.00    +0.000 C 
ATOM     17  O   UNL     1      49.464   1.959  16.151  0.00  0.00    +0.000 OA
ENDBRANCH  15  17
ENDBRANCH   3  15
ENDBRANCH   1   3
BRANCH   1  18
ATOM     18  C   UNL     1      47.173   5.121  14.499  0.00  0.00    +0.000 C 
BRANCH  18  19
ATOM     19  C   UNL     1      46.176   4.932  13.391  0.00  0.00    +0.000 A 
ATOM     20  C   UNL     1      45.518   6.004  12.785  0.00  0.00    +0.000 A 
ATOM     21  C   UNL     1      44.733   5.779  11.658  0.00  0.00    +0.000 A 
ATOM     22  C   UNL     1      44.624   4.481  11.161  0.00  0.00    +0.000 A 
ATOM     23  N   UNL     1      45.226   3.418  11.752  0.00  0.00    +0.000 NA
ATOM     24  C   UNL     1      45.978   3.667  12.846  0.00  0.00    +0.000 A 
BRANCH  22  25
ATOM     25  C   UNL     1      43.796   4.202   9.923  0.00  0.00    +0.000 C 
BRANCH  25  26
ATOM     26  N   UNL     1      44.224   3.013   9.173  0.00  0.00    +0.000 NA
ATOM     27  H   UNL     1      43.380   2.453   9.017  0.00  0.00    +0.000 HD
BRANCH  26  28
ATOM     28  C   UNL     1      44.775   3.371   7.855  0.00  0.00    +0.000 C 
BRANCH  28  29
ATOM     29  C   UNL     1      46.323   3.329   7.892  0.00  0.00    +0.000 C 
ATOM     30  C   UNL     1      46.880   1.930   7.702  0.00  0.00    +0.000 C 
ATOM     31  C   UNL     1      46.864   1.745   6.197  0.00  0.00    +0.000 C 
ATOM     32  C   UNL     1      47.000   3.155   5.634  0.00  0.00    +0.000 C 
ATOM     33  N   UNL     1      46.922   4.075   6.771  0.00  0.00    +0.000 NA
ATOM     34  H   UNL     1      46.305   4.864   6.557  0.00  0.00    +0.000 HD
ENDBRANCH  28  29
ENDBRANCH  26  28
ENDBRANCH  25  26
ENDBRANCH  22  25
ENDBRANCH  18  19
ENDBRANCH   1  18
TORSDOF 10
ENDMDL
MODEL 2
REMARK VINA RESULT:    -6.862      2.282      3.678
REMARK INTER + INTRA:         -11.826
REMARK INTER:                 -10.834
REMARK INTRA:                  -0.992
REMARK UNBOUND:                -0.952
REMARK  Name = 
REMARK  11 active torsions:
REMARK  status: ('A' for Active; 'I' for Inactive)
REMARK    1  A    between atoms: C_1  and  O_2
REMARK    2  A    between atoms: O_2  and  C_3
REMARK    3  A    between atoms: C_3  and  C_4
REMARK    4  A    between atoms: C_4  and  N_5
REMARK    5  A    between atoms: C_4  and  C_21
REMARK    6  A    between atoms: N_5  and  C_6
REMARK    7  A    between atoms: C_6  and  C_7
REMARK    8  A    between atoms: C_10  and  C_11
REMARK    9  A    between atoms: C_11  and  N_12
REMARK   10  A    between atoms: N_12  and  C_13
REMARK   11  A    between atoms: C_13  and  C_14
REMARK                            x       y       z     vdW  Elec       q    Type
REMARK                         _______ _______ _______ _____ _____    ______ ____
ROOT
ATOM      1  N   UNL     1      48.647   5.117  15.917  0.00  0.00    +0.000 NA
ATOM      2  H   UNL     1      47.720   4.685  15.927  0.00  0.00    +0.000 HD
ENDROOT
BRANCH   1   3
ATOM      3  C   UNL     1      48.947   5.460  17.328  0.00  0.00    +0.000 C 
BRANCH   3   4
ATOM      4  C   UNL     1      50.327   4.941  17.697  0.00  0.00    +0.000 A 
ATOM      5  C   UNL     1      51.371   5.729  18.161  0.00  0.00    +0.000 A 
ATOM      6  S   UNL     1      52.812   4.868  18.442  0.00  0.00    +0.000 S 
ATOM      7  C   UNL     1      52.090   3.402  17.972  0.00  0.00    +0.000 A 
ATOM      8  N   UNL     1      52.796   2.241  17.992  0.00  0.00    +0.000 NA
ATOM      9  C   UNL     1      52.128   1.210  17.588  0.00  0.00    +0.000 A 
ATOM     10  N   UNL     1      50.826   1.235  17.167  0.00  0.00    +0.000 N 
ATOM     11  C   UNL     1      50.056   2.378  17.162  0.00  0.00    +0.000 A 
ATOM     12  O   UNL     1      48.871   2.344  16.846  0.00  0.00    +0.000 OA
ATOM     13  C   UNL     1      50.770   3.569  17.592  0.00  0.00    +0.000 A 
ATOM     14  H   UNL     1      50.361   0.390  16.878  0.00  0.00    +0.000 HD
ENDBRANCH   3   4
BRANCH   3  15
ATOM     15  C   UNL     1      48.769   6.966  17.672  0.00  0.00    +0.000 C 
BRANCH  15  17
ATOM     16  C   UNL     1      47.195   6.042  19.147  0.00  0.00    +0.000 C 
ATOM     17  O   UNL     1      48.062   7.148  18.904  0.00  0.00    +0.000 OA
ENDBRANCH  15  17
ENDBRANCH   3  15
ENDBRANCH   1   3
BRANCH   1  18
ATOM     18  C   UNL     1      48.609   6.273  15.025  0.00  0.00    +0.000 C 
BRANCH  18  19
ATOM     19  C   UNL     1      47.547   6.196  13.966  0.00  0.00    +0.000 A 
ATOM     20  C   UNL     1      47.603   6.952  12.794  0.00  0.00    +0.000 A 
ATOM     21  C   UNL     1      46.678   6.717  11.781  0.00  0.00    +0.000 A 
ATOM     22  C   UNL     1      45.715   5.726  11.964  0.00  0.00    +0.000 A 
ATOM     23  N   UNL     1      45.618   5.002  13.107  0.00  0.00    +0.000 NA
ATOM     24  C   UNL     1      46.527   5.255  14.074  0.00  0.00    +0.000 A 
BRANCH  22  25
ATOM     25  C   UNL     1      44.705   5.427  10.874  0.00  0.00    +0.000 C 
BRANCH  25  26
ATOM     26  N   UNL     1      44.161   4.062  10.922  0.00  0.00    +0.000 NA
ATOM     27  H   UNL     1      43.338   4.061  10.311  0.00  0.00    +0.000 HD
BRANCH  26  28
ATOM     28  C   UNL     1      45.117   3.078  10.387  0.00  0.00    +0.000 C 
BRANCH  28  29
ATOM     29  C   UNL     1      44.578   2.469   9.069  0.00  0.00    +0.000 C 
ATOM     30  C   UNL     1      44.920   3.306   7.849  0.00  0.00    +0.000 C 
ATOM     31  C   UNL     1      46.338   2.884   7.518  0.00  0.00    +0.000 C 
ATOM     32  C   UNL     1      46.446   1.454   8.036  0.00  0.00    +0.000 C 
ATOM     33  N   UNL     1      45.206   1.172   8.762  0.00  0.00    +0.000 NA
ATOM     34  H   UNL     1      45.406   0.705   9.651  0.00  0.00    +0.000 HD
ENDBRANCH  28  29
ENDBRANCH  26  28
ENDBRANCH  25  26
ENDBRANCH  22  25
ENDBRANCH  18  19
ENDBRANCH   1  18
TORSDOF 10
ENDMDL
MODEL 3
REMARK VINA RESULT:    -6.828      3.497      9.640
REMARK INTER + INTRA:         -11.772
REMARK INTER:                 -10.165
REMARK INTRA:                  -1.606
REMARK UNBOUND:                -0.952
REMARK  Name = 
REMARK  11 active torsions:
REMARK  status: ('A' for Active; 'I' for Inactive)
REMARK    1  A    between atoms: C_1  and  O_2
REMARK    2  A    between atoms: O_2  and  C_3
REMARK    3  A    between atoms: C_3  and  C_4
REMARK    4  A    between atoms: C_4  and  N_5
REMARK    5  A    between atoms: C_4  and  C_21
REMARK    6  A    between atoms: N_5  and  C_6
REMARK    7  A    between atoms: C_6  and  C_7
REMARK    8  A    between atoms: C_10  and  C_11
REMARK    9  A    between atoms: C_11  and  N_12
REMARK   10  A    between atoms: N_12  and  C_13
REMARK   11  A    between atoms: C_13  and  C_14
REMARK                            x       y       z     vdW  Elec       q    Type
REMARK                         _______ _______ _______ _____ _____    ______ ____
ROOT
ATOM      1  N   UNL     1      46.477   7.425  12.586  0.00  0.00    +0.000 NA
ATOM      2  H   UNL     1      45.924   7.432  13.446  0.00  0.00    +0.000 HD
ENDROOT
BRANCH   1   3
ATOM      3  C   UNL     1      45.502   7.251  11.482  0.00  0.00    +0.000 C 
BRANCH   3   4
ATOM      4  C   UNL     1      44.750   5.942  11.668  0.00  0.00    +0.000 A 
ATOM      5  C   UNL     1      43.976   5.626  12.775  0.00  0.00    +0.000 A 
ATOM      6  S   UNL     1      43.298   4.065  12.717  0.00  0.00    +0.000 S 
ATOM      7  C   UNL     1      43.998   3.760  11.198  0.00  0.00    +0.000 A 
ATOM      8  N   UNL     1      43.796   2.574  10.566  0.00  0.00    +0.000 NA
ATOM      9  C   UNL     1      44.406   2.471   9.430  0.00  0.00    +0.000 A 
ATOM     10  N   UNL     1      45.197   3.441   8.875  0.00  0.00    +0.000 N 
ATOM     11  C   UNL     1      45.404   4.672   9.458  0.00  0.00    +0.000 A 
ATOM     12  O   UNL     1      46.061   5.540   8.891  0.00  0.00    +0.000 OA
ATOM     13  C   UNL     1      44.751   4.829  10.746  0.00  0.00    +0.000 A 
ATOM     14  H   UNL     1      45.633   3.299   7.977  0.00  0.00    +0.000 HD
ENDBRANCH   3   4
BRANCH   3  15
ATOM     15  C   UNL     1      44.546   8.459  11.276  0.00  0.00    +0.000 C 
BRANCH  15  17
ATOM     16  C   UNL     1      45.174  10.711  11.474  0.00  0.00    +0.000 C 
ATOM     17  O   UNL     1      44.834   9.525  12.188  0.00  0.00    +0.000 OA
ENDBRANCH  15  17
ENDBRANCH   3  15
ENDBRANCH   1   3
BRANCH   1  18
ATOM     18  C   UNL     1      47.461   6.351  12.677  0.00  0.00    +0.000 C 
BRANCH  18  19
ATOM     19  C   UNL     1      47.600   5.761  14.052  0.00  0.00    +0.000 A 
ATOM     20  C   UNL     1      46.967   4.574  14.424  0.00  0.00    +0.000 A 
ATOM     21  C   UNL     1      47.265   3.994  15.653  0.00  0.00    +0.000 A 
ATOM     22  C   UNL     1      48.194   4.617  16.485  0.00  0.00    +0.000 A 
ATOM     23  N   UNL     1      48.797   5.788  16.161  0.00  0.00    +0.000 NA
ATOM     24  C   UNL     1      48.485   6.329  14.964  0.00  0.00    +0.000 A 
BRANCH  22  25
ATOM     25  C   UNL     1      48.560   4.003  17.821  0.00  0.00    +0.000 C 
BRANCH  25  26
ATOM     26  N   UNL     1      47.657   4.379  18.919  0.00  0.00    +0.000 NA
ATOM     27  H   UNL     1      47.560   3.546  19.508  0.00  0.00    +0.000 HD
BRANCH  26  28
ATOM     28  C   UNL     1      48.230   5.452  19.749  0.00  0.00    +0.000 C 
BRANCH  28  29
ATOM     29  C   UNL     1      47.296   6.687  19.748  0.00  0.00    +0.000 C 
ATOM     30  C   UNL     1      47.660   7.704  20.814  0.00  0.00    +0.000 C 
ATOM     31  C   UNL     1      48.785   8.496  20.176  0.00  0.00    +0.000 C 
ATOM     32  C   UNL     1      48.523   8.400  18.677  0.00  0.00    +0.000 C 
ATOM     33  N   UNL     1      47.410   7.464  18.501  0.00  0.00    +0.000 NA
ATOM     34  H   UNL     1      47.609   6.806  17.741  0.00  0.00    +0.000 HD
ENDBRANCH  28  29
ENDBRANCH  26  28
ENDBRANCH  25  26
ENDBRANCH  22  25
ENDBRANCH  18  19
ENDBRANCH   1  18
TORSDOF 10
ENDMDL
MODEL 4
REMARK VINA RESULT:    -6.651      2.930      3.621
REMARK INTER + INTRA:         -11.491
REMARK INTER:                 -10.140
REMARK INTRA:                  -1.351
REMARK UNBOUND:                -0.952
REMARK  Name = 
REMARK  11 active torsions:
REMARK  status: ('A' for Active; 'I' for Inactive)
REMARK    1  A    between atoms: C_1  and  O_2
REMARK    2  A    between atoms: O_2  and  C_3
REMARK    3  A    between atoms: C_3  and  C_4
REMARK    4  A    between atoms: C_4  and  N_5
REMARK    5  A    between atoms: C_4  and  C_21
REMARK    6  A    between atoms: N_5  and  C_6
REMARK    7  A    between atoms: C_6  and  C_7
REMARK    8  A    between atoms: C_10  and  C_11
REMARK    9  A    between atoms: C_11  and  N_12
REMARK   10  A    between atoms: N_12  and  C_13
REMARK   11  A    between atoms: C_13  and  C_14
REMARK                            x       y       z     vdW  Elec       q    Type
REMARK                         _______ _______ _______ _____ _____    ______ ____
ROOT
ATOM      1  N   UNL     1      47.337   5.537  15.468  0.00  0.00    +0.000 NA
ATOM      2  H   UNL     1      46.956   6.285  14.885  0.00  0.00    +0.000 HD
ENDROOT
BRANCH   1   3
ATOM      3  C   UNL     1      48.760   5.888  15.695  0.00  0.00    +0.000 C 
BRANCH   3   4
ATOM      4  C   UNL     1      48.961   7.377  15.461  0.00  0.00    +0.000 A 
ATOM      5  C   UNL     1      48.998   8.337  16.462  0.00  0.00    +0.000 A 
ATOM      6  S   UNL     1      49.188   9.927  15.885  0.00  0.00    +0.000 S 
ATOM      7  C   UNL     1      49.249   9.391  14.273  0.00  0.00    +0.000 A 
ATOM      8  N   UNL     1      49.413  10.274  13.252  0.00  0.00    +0.000 NA
ATOM      9  C   UNL     1      49.419   9.728  12.079  0.00  0.00    +0.000 A 
ATOM     10  N   UNL     1      49.274   8.389  11.836  0.00  0.00    +0.000 N 
ATOM     11  C   UNL     1      49.141   7.450  12.836  0.00  0.00    +0.000 A 
ATOM     12  O   UNL     1      49.087   6.252  12.579  0.00  0.00    +0.000 OA
ATOM     13  C   UNL     1      49.112   8.017  14.174  0.00  0.00    +0.000 A 
ATOM     14  H   UNL     1      49.302   8.030  10.896  0.00  0.00    +0.000 HD
ENDBRANCH   3   4
BRANCH   3  15
ATOM     15  C   UNL     1      49.322   5.423  17.067  0.00  0.00    +0.000 C 
BRANCH  15  17
ATOM     16  C   UNL     1      50.922   3.850  17.756  0.00  0.00    +0.000 C 
ATOM     17  O   UNL     1      50.692   5.017  16.969  0.00  0.00    +0.000 OA
ENDBRANCH  15  17
ENDBRANCH   3  15
ENDBRANCH   1   3
BRANCH   1  18
ATOM     18  C   UNL     1      47.148   4.267  14.772  0.00  0.00    +0.000 C 
BRANCH  18  19
ATOM     19  C   UNL     1      46.268   4.357  13.558  0.00  0.00    +0.000 A 
ATOM     20  C   UNL     1      45.881   5.577  13.003  0.00  0.00    +0.000 A 
ATOM     21  C   UNL     1      45.202   5.593  11.787  0.00  0.00    +0.000 A 
ATOM     22  C   UNL     1      44.927   4.383  11.153  0.00  0.00    +0.000 A 
ATOM     23  N   UNL     1      45.262   3.183  11.689  0.00  0.00    +0.000 NA
ATOM     24  C   UNL     1      45.916   3.199  12.871  0.00  0.00    +0.000 A 
BRANCH  22  25
ATOM     25  C   UNL     1      44.210   4.363   9.818  0.00  0.00    +0.000 C 
BRANCH  25  26
ATOM     26  N   UNL     1      44.967   4.986   8.723  0.00  0.00    +0.000 NA
ATOM     27  H   UNL     1      45.321   5.875   9.089  0.00  0.00    +0.000 HD
BRANCH  26  28
ATOM     28  C   UNL     1      46.128   4.168   8.332  0.00  0.00    +0.000 C 
BRANCH  28  29
ATOM     29  C   UNL     1      45.702   3.093   7.301  0.00  0.00    +0.000 C 
ATOM     30  C   UNL     1      46.576   3.086   6.060  0.00  0.00    +0.000 C 
ATOM     31  C   UNL     1      47.782   2.269   6.483  0.00  0.00    +0.000 C 
ATOM     32  C   UNL     1      47.252   1.328   7.558  0.00  0.00    +0.000 C 
ATOM     33  N   UNL     1      45.869   1.726   7.827  0.00  0.00    +0.000 NA
ATOM     34  H   UNL     1      45.691   1.757   8.835  0.00  0.00    +0.000 HD
ENDBRANCH  28  29
ENDBRANCH  26  28
ENDBRANCH  25  26
ENDBRANCH  22  25
ENDBRANCH  18  19
ENDBRANCH   1  18
TORSDOF 10
ENDMDL
MODEL 5
REMARK VINA RESULT:    -6.496      2.877      4.665
REMARK INTER + INTRA:         -11.245
REMARK INTER:                 -10.109
REMARK INTRA:                  -1.136
REMARK UNBOUND:                -0.952
REMARK  Name = 
REMARK  11 active torsions:
REMARK  status: ('A' for Active; 'I' for Inactive)
REMARK    1  A    between atoms: C_1  and  O_2
REMARK    2  A    between atoms: O_2  and  C_3
REMARK    3  A    between atoms: C_3  and  C_4
REMARK    4  A    between atoms: C_4  and  N_5
REMARK    5  A    between atoms: C_4  and  C_21
REMARK    6  A    between atoms: N_5  and  C_6
REMARK    7  A    between atoms: C_6  and  C_7
REMARK    8  A    between atoms: C_10  and  C_11
REMARK    9  A    between atoms: C_11  and  N_12
REMARK   10  A    between atoms: N_12  and  C_13
REMARK   11  A    between atoms: C_13  and  C_14
REMARK                            x       y       z     vdW  Elec       q    Type
REMARK                         _______ _______ _______ _____ _____    ______ ____
ROOT
ATOM      1  N   UNL     1      49.314   5.306  16.151  0.00  0.00    +0.000 NA
ATOM      2  H   UNL     1      48.440   4.878  15.841  0.00  0.00    +0.000 HD
ENDROOT
BRANCH   1   3
ATOM      3  C   UNL     1      49.293   5.238  17.633  0.00  0.00    +0.000 C 
BRANCH   3   4
ATOM      4  C   UNL     1      50.596   4.637  18.135  0.00  0.00    +0.000 A 
ATOM      5  C   UNL     1      51.541   5.316  18.891  0.00  0.00    +0.000 A 
ATOM      6  S   UNL     1      52.921   4.391  19.261  0.00  0.00    +0.000 S 
ATOM      7  C   UNL     1      52.299   3.038  18.439  0.00  0.00    +0.000 A 
ATOM      8  N   UNL     1      53.001   1.876  18.383  0.00  0.00    +0.000 NA
ATOM      9  C   UNL     1      52.418   0.940  17.707  0.00  0.00    +0.000 A 
ATOM     10  N   UNL     1      51.205   1.061  17.085  0.00  0.00    +0.000 N 
ATOM     11  C   UNL     1      50.438   2.205  17.142  0.00  0.00    +0.000 A 
ATOM     12  O   UNL     1      49.323   2.248  16.632  0.00  0.00    +0.000 OA
ATOM     13  C   UNL     1      51.060   3.293  17.878  0.00  0.00    +0.000 A 
ATOM     14  H   UNL     1      50.802   0.285  16.585  0.00  0.00    +0.000 HD
ENDBRANCH   3   4
BRANCH   3  15
ATOM     15  C   UNL     1      48.955   6.586  18.330  0.00  0.00    +0.000 C 
BRANCH  15  17
ATOM     16  C   UNL     1      47.629   6.642  20.264  0.00  0.00    +0.000 C 
ATOM     17  O   UNL     1      47.617   6.599  18.839  0.00  0.00    +0.000 OA
ENDBRANCH  15  17
ENDBRANCH   3  15
ENDBRANCH   1   3
BRANCH   1  18
ATOM     18  C   UNL     1      49.376   6.666  15.625  0.00  0.00    +0.000 C 
BRANCH  18  19
ATOM     19  C   UNL     1      48.232   7.027  14.719  0.00  0.00    +0.000 A 
ATOM     20  C   UNL     1      47.881   8.350  14.448  0.00  0.00    +0.000 A 
ATOM     21  C   UNL     1      46.921   8.618  13.476  0.00  0.00    +0.000 A 
ATOM     22  C   UNL     1      46.333   7.553  12.796  0.00  0.00    +0.000 A 
ATOM     23  N   UNL     1      46.633   6.258  13.066  0.00  0.00    +0.000 NA
ATOM     24  C   UNL     1      47.565   6.028  14.016  0.00  0.00    +0.000 A 
BRANCH  22  25
ATOM     25  C   UNL     1      45.301   7.809  11.717  0.00  0.00    +0.000 C 
BRANCH  25  26
ATOM     26  N   UNL     1      44.997   6.633  10.889  0.00  0.00    +0.000 NA
ATOM     27  H   UNL     1      45.742   5.954  11.071  0.00  0.00    +0.000 HD
BRANCH  26  28
ATOM     28  C   UNL     1      43.719   6.012  11.278  0.00  0.00    +0.000 C 
BRANCH  28  29
ATOM     29  C   UNL     1      43.564   4.632  10.590  0.00  0.00    +0.000 C 
ATOM     30  C   UNL     1      44.880   3.887  10.458  0.00  0.00    +0.000 C 
ATOM     31  C   UNL     1      45.057   3.241  11.818  0.00  0.00    +0.000 C 
ATOM     32  C   UNL     1      43.639   3.047  12.342  0.00  0.00    +0.000 C 
ATOM     33  N   UNL     1      42.742   3.707  11.390  0.00  0.00    +0.000 NA
ATOM     34  H   UNL     1      42.037   4.262  11.883  0.00  0.00    +0.000 HD
ENDBRANCH  28  29
ENDBRANCH  26  28
ENDBRANCH  25  26
ENDBRANCH  22  25
ENDBRANCH  18  19
ENDBRANCH   1  18
TORSDOF 10
ENDMDL
MODEL 6
REMARK VINA RESULT:    -6.208      2.167      2.621
REMARK INTER + INTRA:         -10.789
REMARK INTER:                  -9.699
REMARK INTRA:                  -1.090
REMARK UNBOUND:                -0.952
REMARK  Name = 
REMARK  11 active torsions:
REMARK  status: ('A' for Active; 'I' for Inactive)
REMARK    1  A    between atoms: C_1  and  O_2
REMARK    2  A    between atoms: O_2  and  C_3
REMARK    3  A    between atoms: C_3  and  C_4
REMARK    4  A    between atoms: C_4  and  N_5
REMARK    5  A    between atoms: C_4  and  C_21
REMARK    6  A    between atoms: N_5  and  C_6
REMARK    7  A    between atoms: C_6  and  C_7
REMARK    8  A    between atoms: C_10  and  C_11
REMARK    9  A    between atoms: C_11  and  N_12
REMARK   10  A    between atoms: N_12  and  C_13
REMARK   11  A    between atoms: C_13  and  C_14
REMARK                            x       y       z     vdW  Elec       q    Type
REMARK                         _______ _______ _______ _____ _____    ______ ____
ROOT
ATOM      1  N   UNL     1      47.543   5.486  16.352  0.00  0.00    +0.000 NA
ATOM      2  H   UNL     1      47.456   6.340  15.798  0.00  0.00    +0.000 HD
ENDROOT
BRANCH   1   3
ATOM      3  C   UNL     1      48.816   5.619  17.102  0.00  0.00    +0.000 C 
BRANCH   3   4
ATOM      4  C   UNL     1      48.655   6.658  18.200  0.00  0.00    +0.000 A 
ATOM      5  C   UNL     1      48.706   6.386  19.560  0.00  0.00    +0.000 A 
ATOM      6  S   UNL     1      48.440   7.749  20.545  0.00  0.00    +0.000 S 
ATOM      7  C   UNL     1      48.267   8.761  19.189  0.00  0.00    +0.000 A 
ATOM      8  N   UNL     1      48.027  10.090  19.340  0.00  0.00    +0.000 NA
ATOM      9  C   UNL     1      47.895  10.732  18.225  0.00  0.00    +0.000 A 
ATOM     10  N   UNL     1      47.978  10.167  16.981  0.00  0.00    +0.000 N 
ATOM     11  C   UNL     1      48.255   8.833  16.773  0.00  0.00    +0.000 A 
ATOM     12  O   UNL     1      48.394   8.382  15.641  0.00  0.00    +0.000 OA
ATOM     13  C   UNL     1      48.395   8.066  17.999  0.00  0.00    +0.000 A 
ATOM     14  H   UNL     1      47.878  10.731  16.151  0.00  0.00    +0.000 HD
ENDBRANCH   3   4
BRANCH   3  15
ATOM     15  C   UNL     1      49.386   4.275  17.637  0.00  0.00    +0.000 C 
BRANCH  15  17
ATOM     16  C   UNL     1      51.591   3.550  17.980  0.00  0.00    +0.000 C 
ATOM     17  O   UNL     1      50.626   3.937  17.005  0.00  0.00    +0.000 OA
ENDBRANCH  15  17
ENDBRANCH   3  15
ENDBRANCH   1   3
BRANCH   1  18
ATOM     18  C   UNL     1      47.510   4.341  15.446  0.00  0.00    +0.000 C 
BRANCH  18  19
ATOM     19  C   UNL     1      46.973   4.656  14.079  0.00  0.00    +0.000 A 
ATOM     20  C   UNL     1      45.946   3.916  13.490  0.00  0.00    +0.000 A 
ATOM     21  C   UNL     1      45.383   4.355  12.296  0.00  0.00    +0.000 A 
ATOM     22  C   UNL     1      45.860   5.530  11.717  0.00  0.00    +0.000 A 
ATOM     23  N   UNL     1      46.879   6.248  12.252  0.00  0.00    +0.000 NA
ATOM     24  C   UNL     1      47.409   5.795  13.408  0.00  0.00    +0.000 A 
BRANCH  22  25
ATOM     25  C   UNL     1      45.255   6.050  10.429  0.00  0.00    +0.000 C 
BRANCH  25  26
ATOM     26  N   UNL     1      44.804   4.994   9.511  0.00  0.00    +0.000 NA
ATOM     27  H   UNL     1      44.094   5.422   8.909  0.00  0.00    +0.000 HD
BRANCH  26  28
ATOM     28  C   UNL     1      45.899   4.521   8.647  0.00  0.00    +0.000 C 
BRANCH  28  29
ATOM     29  C   UNL     1      45.362   3.503   7.611  0.00  0.00    +0.000 C 
ATOM     30  C   UNL     1      46.334   3.249   6.474  0.00  0.00    +0.000 C 
ATOM     31  C   UNL     1      47.293   2.226   7.051  0.00  0.00    +0.000 C 
ATOM     32  C   UNL     1      46.473   1.473   8.092  0.00  0.00    +0.000 C 
ATOM     33  N   UNL     1      45.184   2.162   8.196  0.00  0.00    +0.000 NA
ATOM     34  H   UNL     1      44.917   2.283   9.177  0.00  0.00    +0.000 HD
ENDBRANCH  28  29
ENDBRANCH  26  28
ENDBRANCH  25  26
ENDBRANCH  22  25
ENDBRANCH  18  19
ENDBRANCH   1  18
TORSDOF 10
ENDMDL
MODEL 7
REMARK VINA RESULT:    -6.157      3.671      9.457
REMARK INTER + INTRA:         -10.708
REMARK INTER:                  -9.635
REMARK INTRA:                  -1.073
REMARK UNBOUND:                -0.952
REMARK  Name = 
REMARK  11 active torsions:
REMARK  status: ('A' for Active; 'I' for Inactive)
REMARK    1  A    between atoms: C_1  and  O_2
REMARK    2  A    between atoms: O_2  and  C_3
REMARK    3  A    between atoms: C_3  and  C_4
REMARK    4  A    between atoms: C_4  and  N_5
REMARK    5  A    between atoms: C_4  and  C_21
REMARK    6  A    between atoms: N_5  and  C_6
REMARK    7  A    between atoms: C_6  and  C_7
REMARK    8  A    between atoms: C_10  and  C_11
REMARK    9  A    between atoms: C_11  and  N_12
REMARK   10  A    between atoms: N_12  and  C_13
REMARK   11  A    between atoms: C_13  and  C_14
REMARK                            x       y       z     vdW  Elec       q    Type
REMARK                         _______ _______ _______ _____ _____    ______ ____
ROOT
ATOM      1  N   UNL     1      45.887   5.273  10.492  0.00  0.00    +0.000 NA
ATOM      2  H   UNL     1      46.607   5.366   9.772  0.00  0.00    +0.000 HD
ENDROOT
BRANCH   1   3
ATOM      3  C   UNL     1      44.685   4.756   9.795  0.00  0.00    +0.000 C 
BRANCH   3   4
ATOM      4  C   UNL     1      44.994   3.398   9.185  0.00  0.00    +0.000 A 
ATOM      5  C   UNL     1      44.339   2.218   9.507  0.00  0.00    +0.000 A 
ATOM      6  S   UNL     1      44.943   0.850   8.693  0.00  0.00    +0.000 S 
ATOM      7  C   UNL     1      46.093   1.787   7.862  0.00  0.00    +0.000 A 
ATOM      8  N   UNL     1      46.946   1.212   6.974  0.00  0.00    +0.000 NA
ATOM      9  C   UNL     1      47.780   2.040   6.433  0.00  0.00    +0.000 A 
ATOM     10  N   UNL     1      47.839   3.381   6.701  0.00  0.00    +0.000 N 
ATOM     11  C   UNL     1      46.974   4.018   7.565  0.00  0.00    +0.000 A 
ATOM     12  O   UNL     1      47.013   5.234   7.721  0.00  0.00    +0.000 OA
ATOM     13  C   UNL     1      46.027   3.124   8.211  0.00  0.00    +0.000 A 
ATOM     14  H   UNL     1      48.507   3.972   6.232  0.00  0.00    +0.000 HD
ENDBRANCH   3   4
BRANCH   3  15
ATOM     15  C   UNL     1      43.399   4.734  10.668  0.00  0.00    +0.000 C 
BRANCH  15  17
ATOM     16  C   UNL     1      43.012   4.978  12.969  0.00  0.00    +0.000 C 
ATOM     17  O   UNL     1      43.651   4.188  11.968  0.00  0.00    +0.000 OA
ENDBRANCH  15  17
ENDBRANCH   3  15
ENDBRANCH   1   3
BRANCH   1  18
ATOM     18  C   UNL     1      45.689   6.577  11.118  0.00  0.00    +0.000 C 
BRANCH  18  19
ATOM     19  C   UNL     1      46.644   6.872  12.240  0.00  0.00    +0.000 A 
ATOM     20  C   UNL     1      46.819   8.156  12.756  0.00  0.00    +0.000 A 
ATOM     21  C   UNL     1      47.594   8.336  13.898  0.00  0.00    +0.000 A 
ATOM     22  C   UNL     1      48.177   7.223  14.500  0.00  0.00    +0.000 A 
ATOM     23  N   UNL     1      48.050   5.969  13.998  0.00  0.00    +0.000 NA
ATOM     24  C   UNL     1      47.296   5.825  12.887  0.00  0.00    +0.000 A 
BRANCH  22  25
ATOM     25  C   UNL     1      49.008   7.379  15.758  0.00  0.00    +0.000 C 
BRANCH  25  26
ATOM     26  N   UNL     1      48.406   6.769  16.952  0.00  0.00    +0.000 NA
ATOM     27  H   UNL     1      47.502   6.388  16.655  0.00  0.00    +0.000 HD
BRANCH  26  28
ATOM     28  C   UNL     1      49.219   5.651  17.460  0.00  0.00    +0.000 C 
BRANCH  28  29
ATOM     29  C   UNL     1      48.308   4.574  18.099  0.00  0.00    +0.000 C 
ATOM     30  C   UNL     1      47.255   4.046  17.141  0.00  0.00    +0.000 C 
ATOM     31  C   UNL     1      48.003   3.002  16.335  0.00  0.00    +0.000 C 
ATOM     32  C   UNL     1      49.102   2.508  17.269  0.00  0.00    +0.000 C 
ATOM     33  N   UNL     1      49.060   3.359  18.460  0.00  0.00    +0.000 NA
ATOM     34  H   UNL     1      50.005   3.646  18.732  0.00  0.00    +0.000 HD
ENDBRANCH  28  29
ENDBRANCH  26  28
ENDBRANCH  25  26
ENDBRANCH  22  25
ENDBRANCH  18  19
ENDBRANCH   1  18
TORSDOF 10
ENDMDL
MODEL 8
REMARK VINA RESULT:    -5.519      2.408      4.078
REMARK INTER + INTRA:          -9.697
REMARK INTER:                  -8.305
REMARK INTRA:                  -1.391
REMARK UNBOUND:                -0.952
REMARK  Name = 
REMARK  11 active torsions:
REMARK  status: ('A' for Active; 'I' for Inactive)
REMARK    1  A    between atoms: C_1  and  O_2
REMARK    2  A    between atoms: O_2  and  C_3
REMARK    3  A    between atoms: C_3  and  C_4
REMARK    4  A    between atoms: C_4  and  N_5
REMARK    5  A    between atoms: C_4  and  C_21
REMARK    6  A    between atoms: N_5  and  C_6
REMARK    7  A    between atoms: C_6  and  C_7
REMARK    8  A    between atoms: C_10  and  C_11
REMARK    9  A    between atoms: C_11  and  N_12
REMARK   10  A    between atoms: N_12  and  C_13
REMARK   11  A    between atoms: C_13  and  C_14
REMARK                            x       y       z     vdW  Elec       q    Type
REMARK                         _______ _______ _______ _____ _____    ______ ____
ROOT
ATOM      1  N   UNL     1      49.179   4.095  19.582  0.00  0.00    +0.000 NA
ATOM      2  H   UNL     1      48.362   4.688  19.741  0.00  0.00    +0.000 HD
ENDROOT
BRANCH   1   3
ATOM      3  C   UNL     1      50.159   4.943  18.862  0.00  0.00    +0.000 C 
BRANCH   3   4
ATOM      4  C   UNL     1      49.736   6.401  18.955  0.00  0.00    +0.000 A 
ATOM      5  C   UNL     1      49.518   7.087  20.141  0.00  0.00    +0.000 A 
ATOM      6  S   UNL     1      49.004   8.696  19.921  0.00  0.00    +0.000 S 
ATOM      7  C   UNL     1      49.075   8.543  18.229  0.00  0.00    +0.000 A 
ATOM      8  N   UNL     1      48.758   9.590  17.423  0.00  0.00    +0.000 NA
ATOM      9  C   UNL     1      48.834   9.324  16.159  0.00  0.00    +0.000 A 
ATOM     10  N   UNL     1      49.192   8.113  15.633  0.00  0.00    +0.000 N 
ATOM     11  C   UNL     1      49.555   7.031  16.406  0.00  0.00    +0.000 A 
ATOM     12  O   UNL     1      49.941   5.985  15.893  0.00  0.00    +0.000 OA
ATOM     13  C   UNL     1      49.470   7.276  17.835  0.00  0.00    +0.000 A 
ATOM     14  H   UNL     1      49.243   7.979  14.636  0.00  0.00    +0.000 HD
ENDBRANCH   3   4
BRANCH   3  15
ATOM     15  C   UNL     1      51.635   4.726  19.296  0.00  0.00    +0.000 C 
BRANCH  15  17
ATOM     16  C   UNL     1      53.381   3.923  17.950  0.00  0.00    +0.000 C 
ATOM     17  O   UNL     1      52.205   3.568  18.675  0.00  0.00    +0.000 OA
ENDBRANCH  15  17
ENDBRANCH   3  15
ENDBRANCH   1   3
BRANCH   1  18
ATOM     18  C   UNL     1      48.756   2.916  18.831  0.00  0.00    +0.000 C 
BRANCH  18  19
ATOM     19  C   UNL     1      48.083   3.229  17.525  0.00  0.00    +0.000 A 
ATOM     20  C   UNL     1      47.197   4.297  17.377  0.00  0.00    +0.000 A 
ATOM     21  C   UNL     1      46.734   4.632  16.108  0.00  0.00    +0.000 A 
ATOM     22  C   UNL     1      47.172   3.890  15.012  0.00  0.00    +0.000 A 
ATOM     23  N   UNL     1      48.005   2.826  15.135  0.00  0.00    +0.000 NA
ATOM     24  C   UNL     1      48.434   2.522  16.379  0.00  0.00    +0.000 A 
BRANCH  22  25
ATOM     25  C   UNL     1      46.706   4.240  13.614  0.00  0.00    +0.000 C 
BRANCH  25  26
ATOM     26  N   UNL     1      45.247   4.201  13.442  0.00  0.00    +0.000 NA
ATOM     27  H   UNL     1      44.912   5.155  13.609  0.00  0.00    +0.000 HD
BRANCH  26  28
ATOM     28  C   UNL     1      44.872   3.829  12.067  0.00  0.00    +0.000 C 
BRANCH  28  29
ATOM     29  C   UNL     1      44.464   5.089  11.264  0.00  0.00    +0.000 C 
ATOM     30  C   UNL     1      45.622   5.701  10.496  0.00  0.00    +0.000 C 
ATOM     31  C   UNL     1      45.691   4.863   9.235  0.00  0.00    +0.000 C 
ATOM     32  C   UNL     1      44.266   4.367   9.022  0.00  0.00    +0.000 C 
ATOM     33  N   UNL     1      43.495   4.776  10.199  0.00  0.00    +0.000 NA
ATOM     34  H   UNL     1      42.906   4.005  10.530  0.00  0.00    +0.000 HD
ENDBRANCH  28  29
ENDBRANCH  26  28
ENDBRANCH  25  26
ENDBRANCH  22  25
ENDBRANCH  18  19
ENDBRANCH   1  18
TORSDOF 10
ENDMDL
MODEL 9
REMARK VINA RESULT:    -4.845      4.432     10.024
REMARK INTER + INTRA:          -8.630
REMARK INTER:                  -7.658
REMARK INTRA:                  -0.971
REMARK UNBOUND:                -0.952
REMARK  Name = 
REMARK  11 active torsions:
REMARK  status: ('A' for Active; 'I' for Inactive)
REMARK    1  A    between atoms: C_1  and  O_2
REMARK    2  A    between atoms: O_2  and  C_3
REMARK    3  A    between atoms: C_3  and  C_4
REMARK    4  A    between atoms: C_4  and  N_5
REMARK    5  A    between atoms: C_4  and  C_21
REMARK    6  A    between atoms: N_5  and  C_6
REMARK    7  A    between atoms: C_6  and  C_7
REMARK    8  A    between atoms: C_10  and  C_11
REMARK    9  A    between atoms: C_11  and  N_12
REMARK   10  A    between atoms: N_12  and  C_13
REMARK   11  A    between atoms: C_13  and  C_14
REMARK                            x       y       z     vdW  Elec       q    Type
REMARK                         _______ _______ _______ _____ _____    ______ ____
ROOT
ATOM      1  N   UNL     1      49.558   3.730  18.444  0.00  0.00    +0.000 NA
ATOM      2  H   UNL     1      48.678   3.221  18.336  0.00  0.00    +0.000 HD
ENDROOT
BRANCH   1   3
ATOM      3  C   UNL     1      49.192   5.167  18.469  0.00  0.00    +0.000 C 
BRANCH   3   4
ATOM      4  C   UNL     1      49.101   5.695  17.046  0.00  0.00    +0.000 A 
ATOM      5  C   UNL     1      49.878   6.725  16.534  0.00  0.00    +0.000 A 
ATOM      6  S   UNL     1      49.511   7.127  14.921  0.00  0.00    +0.000 S 
ATOM      7  C   UNL     1      48.312   5.924  14.839  0.00  0.00    +0.000 A 
ATOM      8  N   UNL     1      47.602   5.728  13.696  0.00  0.00    +0.000 NA
ATOM      9  C   UNL     1      46.709   4.797  13.784  0.00  0.00    +0.000 A 
ATOM     10  N   UNL     1      46.461   4.051  14.905  0.00  0.00    +0.000 N 
ATOM     11  C   UNL     1      47.176   4.186  16.075  0.00  0.00    +0.000 A 
ATOM     12  O   UNL     1      46.972   3.447  17.033  0.00  0.00    +0.000 OA
ATOM     13  C   UNL     1      48.182   5.234  16.031  0.00  0.00    +0.000 A 
ATOM     14  H   UNL     1      45.758   3.330  14.899  0.00  0.00    +0.000 HD
ENDBRANCH   3   4
BRANCH   3  15
ATOM     15  C   UNL     1      47.920   5.488  19.302  0.00  0.00    +0.000 C 
BRANCH  15  17
ATOM     16  C   UNL     1      49.476   6.570  20.686  0.00  0.00    +0.000 C 
ATOM     17  O   UNL     1      48.246   5.849  20.649  0.00  0.00    +0.000 OA
ENDBRANCH  15  17
ENDBRANCH   3  15
ENDBRANCH   1   3
BRANCH   1  18
ATOM     18  C   UNL     1      50.440   3.366  17.339  0.00  0.00    +0.000 C 
BRANCH  18  19
ATOM     19  C   UNL     1      51.763   2.798  17.771  0.00  0.00    +0.000 A 
ATOM     20  C   UNL     1      52.723   3.561  18.437  0.00  0.00    +0.000 A 
ATOM     21  C   UNL     1      53.856   2.939  18.954  0.00  0.00    +0.000 A 
ATOM     22  C   UNL     1      54.001   1.562  18.793  0.00  0.00    +0.000 A 
ATOM     23  N   UNL     1      53.099   0.804  18.121  0.00  0.00    +0.000 NA
ATOM     24  C   UNL     1      52.012   1.436  17.627  0.00  0.00    +0.000 A 
BRANCH  22  25
ATOM     25  C   UNL     1      55.210   0.847  19.362  0.00  0.00    +0.000 C 
BRANCH  25  26
ATOM     26  N   UNL     1      54.879  -0.327  20.183  0.00  0.00    +0.000 NA
ATOM     27  H   UNL     1      53.867  -0.461  20.097  0.00  0.00    +0.000 HD
BRANCH  26  28
ATOM     28  C   UNL     1      55.537  -1.544  19.678  0.00  0.00    +0.000 C 
BRANCH  28  29
ATOM     29  C   UNL     1      54.536  -2.390  18.852  0.00  0.00    +0.000 C 
ATOM     30  C   UNL     1      54.701  -3.883  19.072  0.00  0.00    +0.000 C 
ATOM     31  C   UNL     1      53.931  -4.138  20.353  0.00  0.00    +0.000 C 
ATOM     32  C   UNL     1      52.861  -3.052  20.382  0.00  0.00    +0.000 C 
ATOM     33  N   UNL     1      53.141  -2.151  19.262  0.00  0.00    +0.000 NA
ATOM     34  H   UNL     1      53.066  -1.173  19.558  0.00  0.00    +0.000 HD
ENDBRANCH  28  29
ENDBRANCH  26  28
ENDBRANCH  25  26
ENDBRANCH  22  25
ENDBRANCH  18  19
ENDBRANCH   1  18
TORSDOF 10
ENDMDL
