MODEL 1
REMARK VINA RESULT:    -8.411      0.000      0.000
REMARK INTER + INTRA:         -11.272
REMARK INTER:                 -10.870
REMARK INTRA:                  -0.402
REMARK UNBOUND:                -0.402
REMARK  Name = 
REMARK  5 active torsions:
REMARK  status: ('A' for Active; 'I' for Inactive)
REMARK    1  A    between atoms: C_2  and  C_4
REMARK    2  A    between atoms: C_8  and  O_9
REMARK    3  A    between atoms: O_9  and  C_10
REMARK    4  A    between atoms: C_10  and  C_11
REMARK    5  A    between atoms: C_15  and  C_16
REMARK                            x       y       z     vdW  Elec       q    Type
REMARK                         _______ _______ _______ _____ _____    ______ ____
ROOT
ATOM      1  C   UNL     1      43.625   4.364  10.984  0.00  0.00    +0.000 C 
ENDROOT
BRANCH   1   2
ATOM      2  C   UNL     1      44.845   4.656  11.830  0.00  0.00    +0.000 A 
ATOM      3  C   UNL     1      45.331   3.686  12.699  0.00  0.00    +0.000 A 
ATOM      4  C   UNL     1      46.445   3.978  13.473  0.00  0.00    +0.000 A 
ATOM      5  C   UNL     1      47.059   5.220  13.337  0.00  0.00    +0.000 A 
ATOM      6  C   UNL     1      46.546   6.146  12.427  0.00  0.00    +0.000 A 
ATOM      7  N   UNL     1      45.433   5.877  11.694  0.00  0.00    +0.000 NA
BRANCH   6   8
ATOM      8  C   UNL     1      47.170   7.466  12.211  0.00  0.00    +0.000 A 
ATOM      9  C   UNL     1      46.444   8.657  12.349  0.00  0.00    +0.000 A 
ATOM     10  C   UNL     1      47.067   9.872  12.101  0.00  0.00    +0.000 A 
ATOM     11  N   UNL     1      48.358   9.988  11.732  0.00  0.00    +0.000 NA
ATOM     12  C   UNL     1      49.057   8.841  11.625  0.00  0.00    +0.000 A 
ATOM     13  C   UNL     1      48.520   7.582  11.854  0.00  0.00    +0.000 A 
ENDBRANCH   6   8
ENDBRANCH   1   2
BRANCH   1  14
ATOM     14  O   UNL     1      43.799   3.108  10.324  0.00  0.00    +0.000 OA
BRANCH  14  19
ATOM     15  C   UNL     1      46.323   2.075   7.815  0.00  0.00    +0.000 A 
ATOM     16  C   UNL     1      46.521   3.330   7.257  0.00  0.00    +0.000 A 
ATOM     17  N   UNL     1      45.843   4.435   7.646  0.00  0.00    +0.000 NA
ATOM     18  C   UNL     1      44.952   4.272   8.655  0.00  0.00    +0.000 A 
ATOM     19  C   UNL     1      44.702   3.063   9.300  0.00  0.00    +0.000 A 
ATOM     20  C   UNL     1      45.401   1.941   8.861  0.00  0.00    +0.000 A 
BRANCH  15  22
ATOM     21  N   UNL     1      46.746  -0.315   7.705  0.00  0.00    +0.000 N 
ATOM     22  C   UNL     1      47.120   0.939   7.307  0.00  0.00    +0.000 C 
ATOM     23  O   UNL     1      48.057   1.108   6.539  0.00  0.00    +0.000 OA
ATOM     24  H   UNL     1      47.231  -1.083   7.254  0.00  0.00    +0.000 HD
ATOM     25  H   UNL     1      45.833  -0.510   8.090  0.00  0.00    +0.000 HD
ENDBRANCH  15  22
ENDBRANCH  14  19
ENDBRANCH   1  14
TORSDOF 5
ENDMDL
MODEL 2
REMARK VINA RESULT:    -8.015      1.069      1.857
REMARK INTER + INTRA:         -10.760
REMARK INTER:                 -10.210
REMARK INTRA:                  -0.550
REMARK UNBOUND:                -0.402
REMARK  Name = 
REMARK  5 active torsions:
REMARK  status: ('A' for Active; 'I' for Inactive)
REMARK    1  A    between atoms: C_2  and  C_4
REMARK    2  A    between atoms: C_8  and  O_9
REMARK    3  A    between atoms: O_9  and  C_10
REMARK    4  A    between atoms: C_10  and  C_11
REMARK    5  A    between atoms: C_15  and  C_16
REMARK                            x       y       z     vdW  Elec       q    Type
REMARK                         _______ _______ _______ _____ _____    ______ ____
ROOT
ATOM      1  C   UNL     1      43.758   4.284  10.525  0.00  0.00    +0.000 C 
ENDROOT
BRANCH   1   2
ATOM      2  C   UNL     1      44.857   4.647  11.500  0.00  0.00    +0.000 A 
ATOM      3  C   UNL     1      45.270   3.721  12.452  0.00  0.00    +0.000 A 
ATOM      4  C   UNL     1      46.272   4.078  13.342  0.00  0.00    +0.000 A 
ATOM      5  C   UNL     1      46.854   5.338  13.239  0.00  0.00    +0.000 A 
ATOM      6  C   UNL     1      46.422   6.217  12.245  0.00  0.00    +0.000 A 
ATOM      7  N   UNL     1      45.415   5.885  11.395  0.00  0.00    +0.000 NA
BRANCH   6   8
ATOM      8  C   UNL     1      47.021   7.554  12.061  0.00  0.00    +0.000 A 
ATOM      9  C   UNL     1      48.379   7.718  11.755  0.00  0.00    +0.000 A 
ATOM     10  C   UNL     1      48.903   8.997  11.626  0.00  0.00    +0.000 A 
ATOM     11  N   UNL     1      48.175  10.121  11.773  0.00  0.00    +0.000 NA
ATOM     12  C   UNL     1      46.865   9.956  12.042  0.00  0.00    +0.000 A 
ATOM     13  C   UNL     1      46.253   8.719  12.188  0.00  0.00    +0.000 A 
ENDBRANCH   6   8
ENDBRANCH   1   2
BRANCH   1  14
ATOM     14  O   UNL     1      44.241   4.444   9.190  0.00  0.00    +0.000 OA
BRANCH  14  19
ATOM     15  C   UNL     1      46.596   2.377   7.211  0.00  0.00    +0.000 A 
ATOM     16  C   UNL     1      46.286   1.162   7.807  0.00  0.00    +0.000 A 
ATOM     17  N   UNL     1      45.398   1.033   8.820  0.00  0.00    +0.000 NA
ATOM     18  C   UNL     1      44.778   2.168   9.226  0.00  0.00    +0.000 A 
ATOM     19  C   UNL     1      44.994   3.428   8.674  0.00  0.00    +0.000 A 
ATOM     20  C   UNL     1      45.931   3.530   7.648  0.00  0.00    +0.000 A 
BRANCH  15  22
ATOM     21  N   UNL     1      47.403   3.322   5.124  0.00  0.00    +0.000 N 
ATOM     22  C   UNL     1      47.585   2.397   6.113  0.00  0.00    +0.000 C 
ATOM     23  O   UNL     1      48.545   1.639   6.104  0.00  0.00    +0.000 OA
ATOM     24  H   UNL     1      48.153   3.397   4.446  0.00  0.00    +0.000 HD
ATOM     25  H   UNL     1      46.808   4.130   5.242  0.00  0.00    +0.000 HD
ENDBRANCH  15  22
ENDBRANCH  14  19
ENDBRANCH   1  14
TORSDOF 5
ENDMDL
MODEL 3
REMARK VINA RESULT:    -7.993      1.316      1.940
REMARK INTER + INTRA:         -10.732
REMARK INTER:                 -10.430
REMARK INTRA:                  -0.302
REMARK UNBOUND:                -0.402
REMARK  Name = 
REMARK  5 active torsions:
REMARK  status: ('A' for Active; 'I' for Inactive)
REMARK    1  A    between atoms: C_2  and  C_4
REMARK    2  A    between atoms: C_8  and  O_9
REMARK    3  A    between atoms: O_9  and  C_10
REMARK    4  A    between atoms: C_10  and  C_11
REMARK    5  A    between atoms: C_15  and  C_16
REMARK                            x       y       z     vdW  Elec       q    Type
REMARK                         _______ _______ _______ _____ _____    ______ ____
ROOT
ATOM      1  C   UNL     1      44.251   3.347  11.641  0.00  0.00    +0.000 C 
ENDROOT
BRANCH   1   2
ATOM      2  C   UNL     1      44.511   4.835  11.731  0.00  0.00    +0.000 A 
ATOM      3  C   UNL     1      43.478   5.733  11.485  0.00  0.00    +0.000 A 
ATOM      4  C   UNL     1      43.741   7.092  11.565  0.00  0.00    +0.000 A 
ATOM      5  C   UNL     1      45.018   7.518  11.915  0.00  0.00    +0.000 A 
ATOM      6  C   UNL     1      46.010   6.572  12.180  0.00  0.00    +0.000 A 
ATOM      7  N   UNL     1      45.767   5.240  12.068  0.00  0.00    +0.000 NA
BRANCH   6   8
ATOM      8  C   UNL     1      47.376   6.957  12.589  0.00  0.00    +0.000 A 
ATOM      9  C   UNL     1      48.286   7.522  11.684  0.00  0.00    +0.000 A 
ATOM     10  C   UNL     1      49.569   7.835  12.109  0.00  0.00    +0.000 A 
ATOM     11  N   UNL     1      50.010   7.633  13.366  0.00  0.00    +0.000 NA
ATOM     12  C   UNL     1      49.123   7.113  14.237  0.00  0.00    +0.000 A 
ATOM     13  C   UNL     1      47.820   6.770  13.904  0.00  0.00    +0.000 A 
ENDBRANCH   6   8
ENDBRANCH   1   2
BRANCH   1  14
ATOM     14  O   UNL     1      43.749   3.035  10.340  0.00  0.00    +0.000 OA
BRANCH  14  19
ATOM     15  C   UNL     1      46.297   2.065   7.830  0.00  0.00    +0.000 A 
ATOM     16  C   UNL     1      46.455   3.323   7.264  0.00  0.00    +0.000 A 
ATOM     17  N   UNL     1      45.743   4.408   7.649  0.00  0.00    +0.000 NA
ATOM     18  C   UNL     1      44.861   4.223   8.661  0.00  0.00    +0.000 A 
ATOM     19  C   UNL     1      44.650   3.012   9.314  0.00  0.00    +0.000 A 
ATOM     20  C   UNL     1      45.383   1.909   8.879  0.00  0.00    +0.000 A 
BRANCH  15  22
ATOM     21  N   UNL     1      46.761  -0.315   7.687  0.00  0.00    +0.000 N 
ATOM     22  C   UNL     1      47.128   0.951   7.327  0.00  0.00    +0.000 C 
ATOM     23  O   UNL     1      48.087   1.150   6.594  0.00  0.00    +0.000 OA
ATOM     24  H   UNL     1      47.271  -1.067   7.238  0.00  0.00    +0.000 HD
ATOM     25  H   UNL     1      45.838  -0.531   8.038  0.00  0.00    +0.000 HD
ENDBRANCH  15  22
ENDBRANCH  14  19
ENDBRANCH   1  14
TORSDOF 5
ENDMDL
MODEL 4
REMARK VINA RESULT:    -7.821      2.428      6.798
REMARK INTER + INTRA:         -10.510
REMARK INTER:                  -9.922
REMARK INTRA:                  -0.588
REMARK UNBOUND:                -0.402
REMARK  Name = 
REMARK  5 active torsions:
REMARK  status: ('A' for Active; 'I' for Inactive)
REMARK    1  A    between atoms: C_2  and  C_4
REMARK    2  A    between atoms: C_8  and  O_9
REMARK    3  A    between atoms: O_9  and  C_10
REMARK    4  A    between atoms: C_10  and  C_11
REMARK    5  A    between atoms: C_15  and  C_16
REMARK                            x       y       z     vdW  Elec       q    Type
REMARK                         _______ _______ _______ _____ _____    ______ ____
ROOT
ATOM      1  C   UNL     1      44.851   6.556  11.256  0.00  0.00    +0.000 C 
ENDROOT
BRANCH   1   2
ATOM      2  C   UNL     1      44.557   5.114  10.906  0.00  0.00    +0.000 A 
ATOM      3  C   UNL     1      43.585   4.416  11.614  0.00  0.00    +0.000 A 
ATOM      4  C   UNL     1      43.337   3.092  11.282  0.00  0.00    +0.000 A 
ATOM      5  C   UNL     1      44.046   2.511  10.235  0.00  0.00    +0.000 A 
ATOM      6  C   UNL     1      44.990   3.267   9.539  0.00  0.00    +0.000 A 
ATOM      7  N   UNL     1      45.262   4.553   9.884  0.00  0.00    +0.000 NA
BRANCH   6   8
ATOM      8  C   UNL     1      45.751   2.721   8.397  0.00  0.00    +0.000 A 
ATOM      9  C   UNL     1      46.134   1.373   8.344  0.00  0.00    +0.000 A 
ATOM     10  C   UNL     1      46.878   0.915   7.266  0.00  0.00    +0.000 A 
ATOM     11  N   UNL     1      47.263   1.696   6.237  0.00  0.00    +0.000 NA
ATOM     12  C   UNL     1      46.870   2.984   6.283  0.00  0.00    +0.000 A 
ATOM     13  C   UNL     1      46.124   3.531   7.318  0.00  0.00    +0.000 A 
ENDBRANCH   6   8
ENDBRANCH   1   2
BRANCH   1  14
ATOM     14  O   UNL     1      46.266   6.761  11.261  0.00  0.00    +0.000 OA
BRANCH  14  19
ATOM     15  C   UNL     1      47.494   5.411  14.486  0.00  0.00    +0.000 A 
ATOM     16  C   UNL     1      48.336   6.470  14.796  0.00  0.00    +0.000 A 
ATOM     17  N   UNL     1      48.524   7.535  13.982  0.00  0.00    +0.000 NA
ATOM     18  C   UNL     1      47.813   7.546  12.828  0.00  0.00    +0.000 A 
ATOM     19  C   UNL     1      46.921   6.550  12.440  0.00  0.00    +0.000 A 
ATOM     20  C   UNL     1      46.767   5.456  13.290  0.00  0.00    +0.000 A 
BRANCH  15  22
ATOM     21  N   UNL     1      47.069   4.622  16.744  0.00  0.00    +0.000 N 
ATOM     22  C   UNL     1      47.370   4.298  15.450  0.00  0.00    +0.000 C 
ATOM     23  O   UNL     1      47.499   3.132  15.102  0.00  0.00    +0.000 OA
ATOM     24  H   UNL     1      46.874   3.841  17.360  0.00  0.00    +0.000 HD
ATOM     25  H   UNL     1      46.680   5.518  17.001  0.00  0.00    +0.000 HD
ENDBRANCH  15  22
ENDBRANCH  14  19
ENDBRANCH   1  14
TORSDOF 5
ENDMDL
MODEL 5
REMARK VINA RESULT:    -7.661      2.090      3.328
REMARK INTER + INTRA:         -10.302
REMARK INTER:                  -9.626
REMARK INTRA:                  -0.676
REMARK UNBOUND:                -0.402
REMARK  Name = 
REMARK  5 active torsions:
REMARK  status: ('A' for Active; 'I' for Inactive)
REMARK    1  A    between atoms: C_2  and  C_4
REMARK    2  A    between atoms: C_8  and  O_9
REMARK    3  A    between atoms: O_9  and  C_10
REMARK    4  A    between atoms: C_10  and  C_11
REMARK    5  A    between atoms: C_15  and  C_16
REMARK                            x       y       z     vdW  Elec       q    Type
REMARK                         _______ _______ _______ _____ _____    ______ ____
ROOT
ATOM      1  C   UNL     1      43.748   4.365  10.621  0.00  0.00    +0.000 C 
ENDROOT
BRANCH   1   2
ATOM      2  C   UNL     1      44.476   5.478  11.344  0.00  0.00    +0.000 A 
ATOM      3  C   UNL     1      44.231   6.802  10.998  0.00  0.00    +0.000 A 
ATOM      4  C   UNL     1      44.916   7.806  11.666  0.00  0.00    +0.000 A 
ATOM      5  C   UNL     1      45.806   7.462  12.679  0.00  0.00    +0.000 A 
ATOM      6  C   UNL     1      45.992   6.118  13.006  0.00  0.00    +0.000 A 
ATOM      7  N   UNL     1      45.350   5.129  12.329  0.00  0.00    +0.000 NA
BRANCH   6   8
ATOM      8  C   UNL     1      46.894   5.688  14.093  0.00  0.00    +0.000 A 
ATOM      9  C   UNL     1      46.714   4.471  14.764  0.00  0.00    +0.000 A 
ATOM     10  C   UNL     1      47.568   4.128  15.802  0.00  0.00    +0.000 A 
ATOM     11  N   UNL     1      48.590   4.903  16.216  0.00  0.00    +0.000 NA
ATOM     12  C   UNL     1      48.773   6.060  15.550  0.00  0.00    +0.000 A 
ATOM     13  C   UNL     1      47.971   6.486  14.501  0.00  0.00    +0.000 A 
ENDBRANCH   6   8
ENDBRANCH   1   2
BRANCH   1  14
ATOM     14  O   UNL     1      44.066   4.420   9.229  0.00  0.00    +0.000 OA
BRANCH  14  19
ATOM     15  C   UNL     1      46.559   2.455   7.317  0.00  0.00    +0.000 A 
ATOM     16  C   UNL     1      46.286   1.228   7.908  0.00  0.00    +0.000 A 
ATOM     17  N   UNL     1      45.377   1.062   8.897  0.00  0.00    +0.000 NA
ATOM     18  C   UNL     1      44.698   2.170   9.284  0.00  0.00    +0.000 A 
ATOM     19  C   UNL     1      44.875   3.438   8.736  0.00  0.00    +0.000 A 
ATOM     20  C   UNL     1      45.834   3.578   7.734  0.00  0.00    +0.000 A 
BRANCH  15  22
ATOM     21  N   UNL     1      47.334   3.367   5.204  0.00  0.00    +0.000 N 
ATOM     22  C   UNL     1      47.575   2.516   6.246  0.00  0.00    +0.000 C 
ATOM     23  O   UNL     1      48.604   1.857   6.303  0.00  0.00    +0.000 OA
ATOM     24  H   UNL     1      48.094   3.481   4.543  0.00  0.00    +0.000 HD
ATOM     25  H   UNL     1      46.660   4.118   5.263  0.00  0.00    +0.000 HD
ENDBRANCH  15  22
ENDBRANCH  14  19
ENDBRANCH   1  14
TORSDOF 5
ENDMDL
MODEL 6
REMARK VINA RESULT:    -7.554      2.504      6.770
REMARK INTER + INTRA:         -10.164
REMARK INTER:                  -9.414
REMARK INTRA:                  -0.750
REMARK UNBOUND:                -0.402
REMARK  Name = 
REMARK  5 active torsions:
REMARK  status: ('A' for Active; 'I' for Inactive)
REMARK    1  A    between atoms: C_2  and  C_4
REMARK    2  A    between atoms: C_8  and  O_9
REMARK    3  A    between atoms: O_9  and  C_10
REMARK    4  A    between atoms: C_10  and  C_11
REMARK    5  A    between atoms: C_15  and  C_16
REMARK                            x       y       z     vdW  Elec       q    Type
REMARK                         _______ _______ _______ _____ _____    ______ ____
ROOT
ATOM      1  C   UNL     1      44.307   6.553  11.287  0.00  0.00    +0.000 C 
ENDROOT
BRANCH   1   2
ATOM      2  C   UNL     1      44.223   5.073  10.985  0.00  0.00    +0.000 A 
ATOM      3  C   UNL     1      43.409   4.255  11.760  0.00  0.00    +0.000 A 
ATOM      4  C   UNL     1      43.354   2.899  11.472  0.00  0.00    +0.000 A 
ATOM      5  C   UNL     1      44.092   2.403  10.401  0.00  0.00    +0.000 A 
ATOM      6  C   UNL     1      44.870   3.274   9.638  0.00  0.00    +0.000 A 
ATOM      7  N   UNL     1      44.954   4.597   9.939  0.00  0.00    +0.000 NA
BRANCH   6   8
ATOM      8  C   UNL     1      45.648   2.817   8.469  0.00  0.00    +0.000 A 
ATOM      9  C   UNL     1      46.110   1.498   8.360  0.00  0.00    +0.000 A 
ATOM     10  C   UNL     1      46.866   1.126   7.258  0.00  0.00    +0.000 A 
ATOM     11  N   UNL     1      47.192   1.967   6.257  0.00  0.00    +0.000 NA
ATOM     12  C   UNL     1      46.724   3.226   6.356  0.00  0.00    +0.000 A 
ATOM     13  C   UNL     1      45.960   3.689   7.418  0.00  0.00    +0.000 A 
ENDBRANCH   6   8
ENDBRANCH   1   2
BRANCH   1  14
ATOM     14  O   UNL     1      44.897   6.739  12.575  0.00  0.00    +0.000 OA
BRANCH  14  19
ATOM     15  C   UNL     1      48.386   7.920  12.172  0.00  0.00    +0.000 A 
ATOM     16  C   UNL     1      48.994   6.856  12.824  0.00  0.00    +0.000 A 
ATOM     17  N   UNL     1      48.306   5.840  13.396  0.00  0.00    +0.000 NA
ATOM     18  C   UNL     1      46.957   5.886  13.281  0.00  0.00    +0.000 A 
ATOM     19  C   UNL     1      46.253   6.891  12.622  0.00  0.00    +0.000 A 
ATOM     20  C   UNL     1      46.990   7.933  12.063  0.00  0.00    +0.000 A 
BRANCH  15  22
ATOM     21  N   UNL     1      50.570   8.695  11.442  0.00  0.00    +0.000 N 
ATOM     22  C   UNL     1      49.240   8.975  11.586  0.00  0.00    +0.000 C 
ATOM     23  O   UNL     1      48.773  10.043  11.216  0.00  0.00    +0.000 OA
ATOM     24  H   UNL     1      51.113   9.383  10.934  0.00  0.00    +0.000 HD
ATOM     25  H   UNL     1      50.929   7.751  11.465  0.00  0.00    +0.000 HD
ENDBRANCH  15  22
ENDBRANCH  14  19
ENDBRANCH   1  14
TORSDOF 5
ENDMDL
MODEL 7
REMARK VINA RESULT:    -7.396      3.289      7.298
REMARK INTER + INTRA:          -9.960
REMARK INTER:                  -9.308
REMARK INTRA:                  -0.652
REMARK UNBOUND:                -0.402
REMARK  Name = 
REMARK  5 active torsions:
REMARK  status: ('A' for Active; 'I' for Inactive)
REMARK    1  A    between atoms: C_2  and  C_4
REMARK    2  A    between atoms: C_8  and  O_9
REMARK    3  A    between atoms: O_9  and  C_10
REMARK    4  A    between atoms: C_10  and  C_11
REMARK    5  A    between atoms: C_15  and  C_16
REMARK                            x       y       z     vdW  Elec       q    Type
REMARK                         _______ _______ _______ _____ _____    ______ ____
ROOT
ATOM      1  C   UNL     1      45.971   6.681  12.960  0.00  0.00    +0.000 C 
ENDROOT
BRANCH   1   2
ATOM      2  C   UNL     1      45.054   5.732  12.220  0.00  0.00    +0.000 A 
ATOM      3  C   UNL     1      43.733   5.590  12.627  0.00  0.00    +0.000 A 
ATOM      4  C   UNL     1      42.912   4.707  11.940  0.00  0.00    +0.000 A 
ATOM      5  C   UNL     1      43.425   4.012  10.850  0.00  0.00    +0.000 A 
ATOM      6  C   UNL     1      44.752   4.215  10.466  0.00  0.00    +0.000 A 
ATOM      7  N   UNL     1      45.569   5.051  11.158  0.00  0.00    +0.000 NA
BRANCH   6   8
ATOM      8  C   UNL     1      45.346   3.535   9.298  0.00  0.00    +0.000 A 
ATOM      9  C   UNL     1      45.429   2.137   9.221  0.00  0.00    +0.000 A 
ATOM     10  C   UNL     1      46.028   1.547   8.118  0.00  0.00    +0.000 A 
ATOM     11  N   UNL     1      46.545   2.242   7.086  0.00  0.00    +0.000 NA
ATOM     12  C   UNL     1      46.439   3.583   7.154  0.00  0.00    +0.000 A 
ATOM     13  C   UNL     1      45.857   4.262   8.215  0.00  0.00    +0.000 A 
ENDBRANCH   6   8
ENDBRANCH   1   2
BRANCH   1  14
ATOM     14  O   UNL     1      47.261   6.080  13.096  0.00  0.00    +0.000 OA
BRANCH  14  19
ATOM     15  C   UNL     1      47.859   4.672  16.472  0.00  0.00    +0.000 A 
ATOM     16  C   UNL     1      48.707   5.676  16.919  0.00  0.00    +0.000 A 
ATOM     17  N   UNL     1      49.093   6.723  16.152  0.00  0.00    +0.000 NA
ATOM     18  C   UNL     1      48.581   6.773  14.898  0.00  0.00    +0.000 A 
ATOM     19  C   UNL     1      47.701   5.834  14.365  0.00  0.00    +0.000 A 
ATOM     20  C   UNL     1      47.341   4.757  15.173  0.00  0.00    +0.000 A 
BRANCH  15  22
ATOM     21  N   UNL     1      48.448   3.213  18.322  0.00  0.00    +0.000 N 
ATOM     22  C   UNL     1      47.509   3.576  17.398  0.00  0.00    +0.000 C 
ATOM     23  O   UNL     1      46.413   3.034  17.362  0.00  0.00    +0.000 OA
ATOM     24  H   UNL     1      48.145   2.543  19.020  0.00  0.00    +0.000 HD
ATOM     25  H   UNL     1      49.226   3.811  18.566  0.00  0.00    +0.000 HD
ENDBRANCH  15  22
ENDBRANCH  14  19
ENDBRANCH   1  14
TORSDOF 5
ENDMDL
MODEL 8
REMARK VINA RESULT:    -6.944      5.244      7.221
REMARK INTER + INTRA:          -9.376
REMARK INTER:                  -8.839
REMARK INTRA:                  -0.537
REMARK UNBOUND:                -0.402
REMARK  Name = 
REMARK  5 active torsions:
REMARK  status: ('A' for Active; 'I' for Inactive)
REMARK    1  A    between atoms: C_2  and  C_4
REMARK    2  A    between atoms: C_8  and  O_9
REMARK    3  A    between atoms: O_9  and  C_10
REMARK    4  A    between atoms: C_10  and  C_11
REMARK    5  A    between atoms: C_15  and  C_16
REMARK                            x       y       z     vdW  Elec       q    Type
REMARK                         _______ _______ _______ _____ _____    ______ ____
ROOT
ATOM      1  C   UNL     1      47.107   4.109  15.943  0.00  0.00    +0.000 C 
ENDROOT
BRANCH   1   2
ATOM      2  C   UNL     1      48.422   4.614  16.496  0.00  0.00    +0.000 A 
ATOM      3  C   UNL     1      48.627   5.980  16.650  0.00  0.00    +0.000 A 
ATOM      4  C   UNL     1      49.843   6.421  17.150  0.00  0.00    +0.000 A 
ATOM      5  C   UNL     1      50.809   5.486  17.509  0.00  0.00    +0.000 A 
ATOM      6  C   UNL     1      50.539   4.125  17.360  0.00  0.00    +0.000 A 
ATOM      7  N   UNL     1      49.363   3.690  16.837  0.00  0.00    +0.000 NA
BRANCH   6   8
ATOM      8  C   UNL     1      51.507   3.082  17.754  0.00  0.00    +0.000 A 
ATOM      9  C   UNL     1      52.644   3.381  18.518  0.00  0.00    +0.000 A 
ATOM     10  C   UNL     1      53.542   2.372  18.833  0.00  0.00    +0.000 A 
ATOM     11  N   UNL     1      53.390   1.089  18.449  0.00  0.00    +0.000 NA
ATOM     12  C   UNL     1      52.283   0.804  17.736  0.00  0.00    +0.000 A 
ATOM     13  C   UNL     1      51.329   1.746  17.375  0.00  0.00    +0.000 A 
ENDBRANCH   6   8
ENDBRANCH   1   2
BRANCH   1  14
ATOM     14  O   UNL     1      47.318   3.588  14.629  0.00  0.00    +0.000 OA
BRANCH  14  19
ATOM     15  C   UNL     1      45.138   4.501  11.775  0.00  0.00    +0.000 A 
ATOM     16  C   UNL     1      45.705   5.744  11.528  0.00  0.00    +0.000 A 
ATOM     17  N   UNL     1      46.706   6.268  12.274  0.00  0.00    +0.000 NA
ATOM     18  C   UNL     1      47.171   5.497  13.287  0.00  0.00    +0.000 A 
ATOM     19  C   UNL     1      46.691   4.227  13.598  0.00  0.00    +0.000 A 
ATOM     20  C   UNL     1      45.646   3.726  12.825  0.00  0.00    +0.000 A 
BRANCH  15  22
ATOM     21  N   UNL     1      43.997   4.549   9.630  0.00  0.00    +0.000 N 
ATOM     22  C   UNL     1      44.047   4.032  10.895  0.00  0.00    +0.000 C 
ATOM     23  O   UNL     1      43.239   3.194  11.270  0.00  0.00    +0.000 OA
ATOM     24  H   UNL     1      43.316   4.129   9.009  0.00  0.00    +0.000 HD
ATOM     25  H   UNL     1      44.790   5.007   9.202  0.00  0.00    +0.000 HD
ENDBRANCH  15  22
ENDBRANCH  14  19
ENDBRANCH   1  14
TORSDOF 5
ENDMDL
MODEL 9
REMARK VINA RESULT:    -6.740      5.101      7.206
REMARK INTER + INTRA:          -9.112
REMARK INTER:                  -8.444
REMARK INTRA:                  -0.669
REMARK UNBOUND:                -0.402
REMARK  Name = 
REMARK  5 active torsions:
REMARK  status: ('A' for Active; 'I' for Inactive)
REMARK    1  A    between atoms: C_2  and  C_4
REMARK    2  A    between atoms: C_8  and  O_9
REMARK    3  A    between atoms: O_9  and  C_10
REMARK    4  A    between atoms: C_10  and  C_11
REMARK    5  A    between atoms: C_15  and  C_16
REMARK                            x       y       z     vdW  Elec       q    Type
REMARK                         _______ _______ _______ _____ _____    ______ ____
ROOT
ATOM      1  C   UNL     1      48.308   6.252  15.455  0.00  0.00    +0.000 C 
ENDROOT
BRANCH   1   2
ATOM      2  C   UNL     1      48.341   5.010  16.318  0.00  0.00    +0.000 A 
ATOM      3  C   UNL     1      47.150   4.431  16.741  0.00  0.00    +0.000 A 
ATOM      4  C   UNL     1      47.203   3.298  17.539  0.00  0.00    +0.000 A 
ATOM      5  C   UNL     1      48.442   2.759  17.871  0.00  0.00    +0.000 A 
ATOM      6  C   UNL     1      49.607   3.364  17.395  0.00  0.00    +0.000 A 
ATOM      7  N   UNL     1      49.560   4.495  16.642  0.00  0.00    +0.000 NA
BRANCH   6   8
ATOM      8  C   UNL     1      50.950   2.823  17.682  0.00  0.00    +0.000 A 
ATOM      9  C   UNL     1      51.957   3.612  18.256  0.00  0.00    +0.000 A 
ATOM     10  C   UNL     1      53.213   3.067  18.474  0.00  0.00    +0.000 A 
ATOM     11  N   UNL     1      53.540   1.795  18.169  0.00  0.00    +0.000 NA
ATOM     12  C   UNL     1      52.561   1.035  17.641  0.00  0.00    +0.000 A 
ATOM     13  C   UNL     1      51.275   1.492  17.388  0.00  0.00    +0.000 A 
ENDBRANCH   6   8
ENDBRANCH   1   2
BRANCH   1  14
ATOM     14  O   UNL     1      48.284   5.869  14.078  0.00  0.00    +0.000 OA
BRANCH  14  19
ATOM     15  C   UNL     1      45.062   5.006  12.463  0.00  0.00    +0.000 A 
ATOM     16  C   UNL     1      44.724   6.295  12.076  0.00  0.00    +0.000 A 
ATOM     17  N   UNL     1      45.478   7.382  12.363  0.00  0.00    +0.000 NA
ATOM     18  C   UNL     1      46.630   7.155  13.040  0.00  0.00    +0.000 A 
ATOM     19  C   UNL     1      47.074   5.899  13.446  0.00  0.00    +0.000 A 
ATOM     20  C   UNL     1      46.264   4.804  13.154  0.00  0.00    +0.000 A 
BRANCH  15  22
ATOM     21  N   UNL     1      44.538   2.634  12.465  0.00  0.00    +0.000 N 
ATOM     22  C   UNL     1      44.160   3.895  12.096  0.00  0.00    +0.000 C 
ATOM     23  O   UNL     1      43.103   4.095  11.513  0.00  0.00    +0.000 OA
ATOM     24  H   UNL     1      43.852   1.904  12.308  0.00  0.00    +0.000 HD
ATOM     25  H   UNL     1      45.234   2.465  13.178  0.00  0.00    +0.000 HD
ENDBRANCH  15  22
ENDBRANCH  14  19
ENDBRANCH   1  14
TORSDOF 5
ENDMDL
