MODEL 1
REMARK VINA RESULT:    -7.448      0.000      0.000
REMARK INTER + INTRA:         -11.086
REMARK INTER:                 -10.496
REMARK INTRA:                  -0.590
REMARK UNBOUND:                -0.590
REMARK  Name = 
REMARK  7 active torsions:
REMARK  status: ('A' for Active; 'I' for Inactive)
REMARK    1  A    between atoms: C_2  and  C_3
REMARK    2  A    between atoms: C_6  and  C_7
REMARK    3  A    between atoms: N_9  and  C_10
REMARK    4  A    between atoms: C_10  and  C_11
REMARK    5  A    between atoms: C_14  and  C_15
REMARK    6  A    between atoms: C_15  and  N_16
REMARK    7  A    between atoms: C_17  and  C_19
REMARK                            x       y       z     vdW  Elec       q    Type
REMARK                         _______ _______ _______ _____ _____    ______ ____
ROOT
ATOM      1  C   UNL     1      43.453   5.061  12.254  0.00  0.00    +0.000 C 
ATOM      2  C   UNL     1      44.446   4.648  13.358  0.00  0.00    +0.000 C 
ATOM      3  C   UNL     1      45.868   4.414  12.843  0.00  0.00    +0.000 C 
ATOM      4  C   UNL     1      46.431   5.603  12.046  0.00  0.00    +0.000 C 
ATOM      5  C   UNL     1      45.446   5.970  10.924  0.00  0.00    +0.000 C 
ATOM      6  C   UNL     1      44.029   6.237  11.443  0.00  0.00    +0.000 C 
ENDROOT
BRANCH   1   7
ATOM      7  C   UNL     1      43.046   3.898  11.322  0.00  0.00    +0.000 C 
BRANCH   7  10
ATOM      8  C   UNL     1      44.180   2.710   9.445  0.00  0.00    +0.000 C 
ATOM      9  O   UNL     1      43.860   1.587   9.819  0.00  0.00    +0.000 OA
ATOM     10  N   UNL     1      43.799   3.872  10.083  0.00  0.00    +0.000 N 
ATOM     11  H   UNL     1      44.035   4.759   9.658  0.00  0.00    +0.000 HD
BRANCH   8  15
ATOM     12  C   UNL     1      47.270   2.954   7.270  0.00  0.00    +0.000 C 
ATOM     13  C   UNL     1      46.977   4.400   7.670  0.00  0.00    +0.000 C 
ATOM     14  C   UNL     1      45.540   4.423   8.193  0.00  0.00    +0.000 C 
ATOM     15  C   UNL     1      45.049   2.971   8.220  0.00  0.00    +0.000 C 
ATOM     16  C   UNL     1      46.332   2.138   8.159  0.00  0.00    +0.000 C 
BRANCH  12  18
ATOM     17  N   UNL     1      46.793   2.576   4.707  0.00  0.00    +0.000 NA
ATOM     18  C   UNL     1      46.999   2.735   5.838  0.00  0.00    +0.000 C 
ENDBRANCH  12  18
ENDBRANCH   8  15
ENDBRANCH   7  10
ENDBRANCH   1   7
BRANCH   4  19
ATOM     19  C   UNL     1      46.753   6.833  12.920  0.00  0.00    +0.000 C 
BRANCH  19  20
ATOM     20  N   UNL     1      47.187   6.481  14.258  0.00  0.00    +0.000 N 
ATOM     21  C   UNL     1      48.503   6.508  14.648  0.00  0.00    +0.000 C 
ATOM     22  O   UNL     1      49.408   6.787  13.866  0.00  0.00    +0.000 OA
ATOM     23  H   UNL     1      46.482   6.142  14.905  0.00  0.00    +0.000 HD
BRANCH  21  24
ATOM     24  C   UNL     1      48.782   6.242  16.067  0.00  0.00    +0.000 A 
ATOM     25  C   UNL     1      49.431   7.208  16.824  0.00  0.00    +0.000 A 
ATOM     26  S   UNL     1      49.697   6.751  18.443  0.00  0.00    +0.000 S 
ATOM     27  C   UNL     1      48.981   5.232  18.187  0.00  0.00    +0.000 A 
ATOM     28  N   UNL     1      48.922   4.311  19.189  0.00  0.00    +0.000 NA
ATOM     29  C   UNL     1      48.378   3.193  18.852  0.00  0.00    +0.000 A 
ATOM     30  N   UNL     1      47.879   2.911  17.608  0.00  0.00    +0.000 N 
ATOM     31  C   UNL     1      47.849   3.835  16.588  0.00  0.00    +0.000 A 
ATOM     32  O   UNL     1      47.271   3.597  15.535  0.00  0.00    +0.000 OA
ATOM     33  C   UNL     1      48.504   5.090  16.895  0.00  0.00    +0.000 A 
ATOM     34  H   UNL     1      47.429   2.026  17.423  0.00  0.00    +0.000 HD
ENDBRANCH  21  24
ENDBRANCH  19  20
ENDBRANCH   4  19
TORSDOF 7
ENDMDL
MODEL 2
REMARK VINA RESULT:    -7.267      2.193      2.868
REMARK INTER + INTRA:         -10.831
REMARK INTER:                 -10.624
REMARK INTRA:                  -0.208
REMARK UNBOUND:                -0.590
REMARK  Name = 
REMARK  7 active torsions:
REMARK  status: ('A' for Active; 'I' for Inactive)
REMARK    1  A    between atoms: C_2  and  C_3
REMARK    2  A    between atoms: C_6  and  C_7
REMARK    3  A    between atoms: N_9  and  C_10
REMARK    4  A    between atoms: C_10  and  C_11
REMARK    5  A    between atoms: C_14  and  C_15
REMARK    6  A    between atoms: C_15  and  N_16
REMARK    7  A    between atoms: C_17  and  C_19
REMARK                            x       y       z     vdW  Elec       q    Type
REMARK                         _______ _______ _______ _____ _____    ______ ____
ROOT
ATOM      1  C   UNL     1      44.710   6.344  12.397  0.00  0.00    +0.000 C 
ATOM      2  C   UNL     1      44.434   4.846  12.635  0.00  0.00    +0.000 C 
ATOM      3  C   UNL     1      45.679   3.967  12.493  0.00  0.00    +0.000 C 
ATOM      4  C   UNL     1      46.855   4.431  13.368  0.00  0.00    +0.000 C 
ATOM      5  C   UNL     1      47.141   5.915  13.084  0.00  0.00    +0.000 C 
ATOM      6  C   UNL     1      45.903   6.800  13.257  0.00  0.00    +0.000 C 
ENDROOT
BRANCH   1   7
ATOM      7  C   UNL     1      44.933   6.703  10.912  0.00  0.00    +0.000 C 
BRANCH   7  10
ATOM      8  C   UNL     1      44.839   4.743   9.371  0.00  0.00    +0.000 C 
ATOM      9  O   UNL     1      43.631   4.814   9.180  0.00  0.00    +0.000 OA
ATOM     10  N   UNL     1      45.549   5.630  10.154  0.00  0.00    +0.000 N 
ATOM     11  H   UNL     1      46.556   5.549  10.188  0.00  0.00    +0.000 HD
BRANCH   8  15
ATOM     12  C   UNL     1      45.977   1.969   7.059  0.00  0.00    +0.000 C 
ATOM     13  C   UNL     1      45.531   1.241   8.327  0.00  0.00    +0.000 C 
ATOM     14  C   UNL     1      45.451   2.298   9.429  0.00  0.00    +0.000 C 
ATOM     15  C   UNL     1      45.722   3.656   8.769  0.00  0.00    +0.000 C 
ATOM     16  C   UNL     1      45.493   3.402   7.277  0.00  0.00    +0.000 C 
BRANCH  12  18
ATOM     17  N   UNL     1      48.595   1.854   6.786  0.00  0.00    +0.000 NA
ATOM     18  C   UNL     1      47.441   1.903   6.897  0.00  0.00    +0.000 C 
ENDBRANCH  12  18
ENDBRANCH   8  15
ENDBRANCH   7  10
ENDBRANCH   1   7
BRANCH   4  19
ATOM     19  C   UNL     1      46.634   4.191  14.876  0.00  0.00    +0.000 C 
BRANCH  19  20
ATOM     20  N   UNL     1      47.852   4.302  15.653  0.00  0.00    +0.000 N 
ATOM     21  C   UNL     1      47.873   4.219  17.024  0.00  0.00    +0.000 C 
ATOM     22  O   UNL     1      46.845   4.095  17.685  0.00  0.00    +0.000 OA
ATOM     23  H   UNL     1      48.711   4.512  15.153  0.00  0.00    +0.000 HD
BRANCH  21  24
ATOM     24  C   UNL     1      49.194   4.229  17.671  0.00  0.00    +0.000 A 
ATOM     25  C   UNL     1      49.560   5.318  18.450  0.00  0.00    +0.000 A 
ATOM     26  S   UNL     1      51.120   5.194  19.120  0.00  0.00    +0.000 S 
ATOM     27  C   UNL     1      51.380   3.692  18.368  0.00  0.00    +0.000 A 
ATOM     28  N   UNL     1      52.569   3.041  18.502  0.00  0.00    +0.000 NA
ATOM     29  C   UNL     1      52.641   1.927  17.859  0.00  0.00    +0.000 A 
ATOM     30  N   UNL     1      51.631   1.397  17.100  0.00  0.00    +0.000 N 
ATOM     31  C   UNL     1      50.389   1.981  16.997  0.00  0.00    +0.000 A 
ATOM     32  O   UNL     1      49.467   1.411  16.425  0.00  0.00    +0.000 OA
ATOM     33  C   UNL     1      50.273   3.267  17.651  0.00  0.00    +0.000 A 
ATOM     34  H   UNL     1      51.741   0.498  16.654  0.00  0.00    +0.000 HD
ENDBRANCH  21  24
ENDBRANCH  19  20
ENDBRANCH   4  19
TORSDOF 7
ENDMDL
MODEL 3
REMARK VINA RESULT:    -7.033      2.237      3.028
REMARK INTER + INTRA:         -10.502
REMARK INTER:                  -9.735
REMARK INTRA:                  -0.767
REMARK UNBOUND:                -0.590
REMARK  Name = 
REMARK  7 active torsions:
REMARK  status: ('A' for Active; 'I' for Inactive)
REMARK    1  A    between atoms: C_2  and  C_3
REMARK    2  A    between atoms: C_6  and  C_7
REMARK    3  A    between atoms: N_9  and  C_10
REMARK    4  A    between atoms: C_10  and  C_11
REMARK    5  A    between atoms: C_14  and  C_15
REMARK    6  A    between atoms: C_15  and  N_16
REMARK    7  A    between atoms: C_17  and  C_19
REMARK                            x       y       z     vdW  Elec       q    Type
REMARK                         _______ _______ _______ _____ _____    ______ ____
ROOT
ATOM      1  C   UNL     1      43.316   4.252  12.091  0.00  0.00    +0.000 C 
ATOM      2  C   UNL     1      44.215   3.045  12.427  0.00  0.00    +0.000 C 
ATOM      3  C   UNL     1      45.710   3.365  12.373  0.00  0.00    +0.000 C 
ATOM      4  C   UNL     1      46.106   4.573  13.239  0.00  0.00    +0.000 C 
ATOM      5  C   UNL     1      45.228   5.776  12.857  0.00  0.00    +0.000 C 
ATOM      6  C   UNL     1      43.730   5.466  12.943  0.00  0.00    +0.000 C 
ENDROOT
BRANCH   1   7
ATOM      7  C   UNL     1      43.301   4.612  10.590  0.00  0.00    +0.000 C 
BRANCH   7  10
ATOM      8  C   UNL     1      45.353   4.490   9.176  0.00  0.00    +0.000 C 
ATOM      9  O   UNL     1      45.604   5.688   9.247  0.00  0.00    +0.000 OA
ATOM     10  N   UNL     1      44.293   3.886   9.820  0.00  0.00    +0.000 N 
ATOM     11  H   UNL     1      44.209   2.879   9.778  0.00  0.00    +0.000 HD
BRANCH   8  15
ATOM     12  C   UNL     1      46.265   2.018   6.457  0.00  0.00    +0.000 C 
ATOM     13  C   UNL     1      45.993   1.145   7.681  0.00  0.00    +0.000 C 
ATOM     14  C   UNL     1      46.023   2.076   8.893  0.00  0.00    +0.000 C 
ATOM     15  C   UNL     1      46.181   3.505   8.359  0.00  0.00    +0.000 C 
ATOM     16  C   UNL     1      45.778   3.402   6.885  0.00  0.00    +0.000 C 
BRANCH  12  18
ATOM     17  N   UNL     1      48.829   2.041   5.853  0.00  0.00    +0.000 NA
ATOM     18  C   UNL     1      47.699   2.022   6.117  0.00  0.00    +0.000 C 
ENDBRANCH  12  18
ENDBRANCH   8  15
ENDBRANCH   7  10
ENDBRANCH   1   7
BRANCH   4  19
ATOM     19  C   UNL     1      46.034   4.296  14.754  0.00  0.00    +0.000 C 
BRANCH  19  20
ATOM     20  N   UNL     1      47.331   4.042  15.349  0.00  0.00    +0.000 N 
ATOM     21  C   UNL     1      47.487   3.545  16.619  0.00  0.00    +0.000 C 
ATOM     22  O   UNL     1      46.528   3.330  17.356  0.00  0.00    +0.000 OA
ATOM     23  H   UNL     1      48.152   4.307  14.813  0.00  0.00    +0.000 HD
BRANCH  21  24
ATOM     24  C   UNL     1      48.857   3.226  17.045  0.00  0.00    +0.000 A 
ATOM     25  C   UNL     1      49.380   1.972  16.765  0.00  0.00    +0.000 A 
ATOM     26  S   UNL     1      50.970   1.744  17.332  0.00  0.00    +0.000 S 
ATOM     27  C   UNL     1      51.009   3.305  18.002  0.00  0.00    +0.000 A 
ATOM     28  N   UNL     1      52.102   3.742  18.690  0.00  0.00    +0.000 NA
ATOM     29  C   UNL     1      51.989   4.933  19.167  0.00  0.00    +0.000 A 
ATOM     30  N   UNL     1      50.887   5.734  19.015  0.00  0.00    +0.000 N 
ATOM     31  C   UNL     1      49.793   5.364  18.267  0.00  0.00    +0.000 A 
ATOM     32  O   UNL     1      48.887   6.156  18.037  0.00  0.00    +0.000 OA
ATOM     33  C   UNL     1      49.842   4.009  17.758  0.00  0.00    +0.000 A 
ATOM     34  H   UNL     1      50.881   6.674  19.383  0.00  0.00    +0.000 HD
ENDBRANCH  21  24
ENDBRANCH  19  20
ENDBRANCH   4  19
TORSDOF 7
ENDMDL
MODEL 4
REMARK VINA RESULT:    -6.949      2.969      8.886
REMARK INTER + INTRA:         -10.383
REMARK INTER:                  -9.447
REMARK INTRA:                  -0.936
REMARK UNBOUND:                -0.590
REMARK  Name = 
REMARK  7 active torsions:
REMARK  status: ('A' for Active; 'I' for Inactive)
REMARK    1  A    between atoms: C_2  and  C_3
REMARK    2  A    between atoms: C_6  and  C_7
REMARK    3  A    between atoms: N_9  and  C_10
REMARK    4  A    between atoms: C_10  and  C_11
REMARK    5  A    between atoms: C_14  and  C_15
REMARK    6  A    between atoms: C_15  and  N_16
REMARK    7  A    between atoms: C_17  and  C_19
REMARK                            x       y       z     vdW  Elec       q    Type
REMARK                         _______ _______ _______ _____ _____    ______ ____
ROOT
ATOM      1  C   UNL     1      48.556   8.229  12.583  0.00  0.00    +0.000 C 
ATOM      2  C   UNL     1      48.361   6.751  12.192  0.00  0.00    +0.000 C 
ATOM      3  C   UNL     1      47.171   6.088  12.890  0.00  0.00    +0.000 C 
ATOM      4  C   UNL     1      45.852   6.859  12.710  0.00  0.00    +0.000 C 
ATOM      5  C   UNL     1      46.058   8.320  13.146  0.00  0.00    +0.000 C 
ATOM      6  C   UNL     1      47.228   8.993  12.423  0.00  0.00    +0.000 C 
ENDROOT
BRANCH   1   7
ATOM      7  C   UNL     1      49.135   8.422  14.001  0.00  0.00    +0.000 C 
BRANCH   7  10
ATOM      8  C   UNL     1      48.988   7.024  16.061  0.00  0.00    +0.000 C 
ATOM      9  O   UNL     1      48.485   7.902  16.753  0.00  0.00    +0.000 OA
ATOM     10  N   UNL     1      49.294   7.175  14.725  0.00  0.00    +0.000 N 
ATOM     11  H   UNL     1      49.627   6.372  14.208  0.00  0.00    +0.000 HD
BRANCH   8  15
ATOM     12  C   UNL     1      48.595   3.650  17.736  0.00  0.00    +0.000 C 
ATOM     13  C   UNL     1      49.322   4.503  18.775  0.00  0.00    +0.000 C 
ATOM     14  C   UNL     1      49.869   5.721  18.032  0.00  0.00    +0.000 C 
ATOM     15  C   UNL     1      49.348   5.640  16.592  0.00  0.00    +0.000 C 
ATOM     16  C   UNL     1      48.173   4.662  16.671  0.00  0.00    +0.000 C 
BRANCH  12  18
ATOM     17  N   UNL     1      50.187   1.805  16.735  0.00  0.00    +0.000 NA
ATOM     18  C   UNL     1      49.487   2.613  17.184  0.00  0.00    +0.000 C 
ENDBRANCH  12  18
ENDBRANCH   8  15
ENDBRANCH   7  10
ENDBRANCH   1   7
BRANCH   4  19
ATOM     19  C   UNL     1      45.286   6.786  11.276  0.00  0.00    +0.000 C 
BRANCH  19  20
ATOM     20  N   UNL     1      45.515   5.504  10.640  0.00  0.00    +0.000 N 
ATOM     21  C   UNL     1      44.500   4.731  10.132  0.00  0.00    +0.000 C 
ATOM     22  O   UNL     1      43.320   5.058  10.231  0.00  0.00    +0.000 OA
ATOM     23  H   UNL     1      46.466   5.147  10.632  0.00  0.00    +0.000 HD
BRANCH  21  24
ATOM     24  C   UNL     1      44.891   3.512   9.409  0.00  0.00    +0.000 A 
ATOM     25  C   UNL     1      44.241   2.318   9.689  0.00  0.00    +0.000 A 
ATOM     26  S   UNL     1      44.812   0.993   8.784  0.00  0.00    +0.000 S 
ATOM     27  C   UNL     1      45.973   1.958   8.004  0.00  0.00    +0.000 A 
ATOM     28  N   UNL     1      46.844   1.415   7.110  0.00  0.00    +0.000 NA
ATOM     29  C   UNL     1      47.688   2.253   6.613  0.00  0.00    +0.000 A 
ATOM     30  N   UNL     1      47.737   3.587   6.921  0.00  0.00    +0.000 N 
ATOM     31  C   UNL     1      46.830   4.194   7.760  0.00  0.00    +0.000 A 
ATOM     32  O   UNL     1      46.816   5.410   7.905  0.00  0.00    +0.000 OA
ATOM     33  C   UNL     1      45.897   3.285   8.394  0.00  0.00    +0.000 A 
ATOM     34  H   UNL     1      48.400   4.196   6.464  0.00  0.00    +0.000 HD
ENDBRANCH  21  24
ENDBRANCH  19  20
ENDBRANCH   4  19
TORSDOF 7
ENDMDL
MODEL 5
REMARK VINA RESULT:    -6.883      4.905      7.858
REMARK INTER + INTRA:         -10.290
REMARK INTER:                  -9.119
REMARK INTRA:                  -1.172
REMARK UNBOUND:                -0.590
REMARK  Name = 
REMARK  7 active torsions:
REMARK  status: ('A' for Active; 'I' for Inactive)
REMARK    1  A    between atoms: C_2  and  C_3
REMARK    2  A    between atoms: C_6  and  C_7
REMARK    3  A    between atoms: N_9  and  C_10
REMARK    4  A    between atoms: C_10  and  C_11
REMARK    5  A    between atoms: C_14  and  C_15
REMARK    6  A    between atoms: C_15  and  N_16
REMARK    7  A    between atoms: C_17  and  C_19
REMARK                            x       y       z     vdW  Elec       q    Type
REMARK                         _______ _______ _______ _____ _____    ______ ____
ROOT
ATOM      1  C   UNL     1      49.715   9.367  11.803  0.00  0.00    +0.000 C 
ATOM      2  C   UNL     1      49.092   8.012  11.408  0.00  0.00    +0.000 C 
ATOM      3  C   UNL     1      49.022   7.014  12.566  0.00  0.00    +0.000 C 
ATOM      4  C   UNL     1      48.316   7.574  13.812  0.00  0.00    +0.000 C 
ATOM      5  C   UNL     1      48.980   8.902  14.214  0.00  0.00    +0.000 C 
ATOM      6  C   UNL     1      49.022   9.914  13.064  0.00  0.00    +0.000 C 
ENDROOT
BRANCH   1   7
ATOM      7  C   UNL     1      51.246   9.310  11.997  0.00  0.00    +0.000 C 
BRANCH   7  10
ATOM      8  C   UNL     1      52.488   8.939   9.866  0.00  0.00    +0.000 C 
ATOM      9  O   UNL     1      52.561  10.127   9.575  0.00  0.00    +0.000 OA
ATOM     10  N   UNL     1      51.911   8.463  11.026  0.00  0.00    +0.000 N 
ATOM     11  H   UNL     1      51.971   7.474  11.228  0.00  0.00    +0.000 HD
BRANCH   8  15
ATOM     12  C   UNL     1      54.010   5.619   8.867  0.00  0.00    +0.000 C 
ATOM     13  C   UNL     1      55.158   6.617   8.720  0.00  0.00    +0.000 C 
ATOM     14  C   UNL     1      54.524   8.008   8.707  0.00  0.00    +0.000 C 
ATOM     15  C   UNL     1      53.026   7.822   8.979  0.00  0.00    +0.000 C 
ATOM     16  C   UNL     1      52.925   6.420   9.586  0.00  0.00    +0.000 C 
BRANCH  12  18
ATOM     17  N   UNL     1      53.181   4.757   6.520  0.00  0.00    +0.000 NA
ATOM     18  C   UNL     1      53.555   5.137   7.550  0.00  0.00    +0.000 C 
ENDBRANCH  12  18
ENDBRANCH   8  15
ENDBRANCH   7  10
ENDBRANCH   1   7
BRANCH   4  19
ATOM     19  C   UNL     1      46.794   7.752  13.631  0.00  0.00    +0.000 C 
BRANCH  19  20
ATOM     20  N   UNL     1      46.129   6.539  13.197  0.00  0.00    +0.000 N 
ATOM     21  C   UNL     1      45.276   6.500  12.122  0.00  0.00    +0.000 C 
ATOM     22  O   UNL     1      44.983   7.509  11.485  0.00  0.00    +0.000 OA
ATOM     23  H   UNL     1      46.260   5.705  13.761  0.00  0.00    +0.000 HD
BRANCH  21  24
ATOM     24  C   UNL     1      44.767   5.179  11.725  0.00  0.00    +0.000 A 
ATOM     25  C   UNL     1      43.990   4.454  12.618  0.00  0.00    +0.000 A 
ATOM     26  S   UNL     1      43.488   2.939  12.024  0.00  0.00    +0.000 S 
ATOM     27  C   UNL     1      44.316   3.180  10.560  0.00  0.00    +0.000 A 
ATOM     28  N   UNL     1      44.327   2.215   9.598  0.00  0.00    +0.000 NA
ATOM     29  C   UNL     1      45.013   2.517   8.550  0.00  0.00    +0.000 A 
ATOM     30  N   UNL     1      45.684   3.698   8.370  0.00  0.00    +0.000 N 
ATOM     31  C   UNL     1      45.639   4.729   9.280  0.00  0.00    +0.000 A 
ATOM     32  O   UNL     1      46.134   5.821   9.026  0.00  0.00    +0.000 OA
ATOM     33  C   UNL     1      44.931   4.420  10.505  0.00  0.00    +0.000 A 
ATOM     34  H   UNL     1      46.171   3.885   7.505  0.00  0.00    +0.000 HD
ENDBRANCH  21  24
ENDBRANCH  19  20
ENDBRANCH   4  19
TORSDOF 7
ENDMDL
MODEL 6
REMARK VINA RESULT:    -6.861      2.959      8.769
REMARK INTER + INTRA:         -10.259
REMARK INTER:                  -9.115
REMARK INTRA:                  -1.143
REMARK UNBOUND:                -0.590
REMARK  Name = 
REMARK  7 active torsions:
REMARK  status: ('A' for Active; 'I' for Inactive)
REMARK    1  A    between atoms: C_2  and  C_3
REMARK    2  A    between atoms: C_6  and  C_7
REMARK    3  A    between atoms: N_9  and  C_10
REMARK    4  A    between atoms: C_10  and  C_11
REMARK    5  A    between atoms: C_14  and  C_15
REMARK    6  A    between atoms: C_15  and  N_16
REMARK    7  A    between atoms: C_17  and  C_19
REMARK                            x       y       z     vdW  Elec       q    Type
REMARK                         _______ _______ _______ _____ _____    ______ ____
ROOT
ATOM      1  C   UNL     1      48.773   9.317  15.011  0.00  0.00    +0.000 C 
ATOM      2  C   UNL     1      49.218   9.975  13.690  0.00  0.00    +0.000 C 
ATOM      3  C   UNL     1      50.027   9.042  12.786  0.00  0.00    +0.000 C 
ATOM      4  C   UNL     1      49.318   7.708  12.498  0.00  0.00    +0.000 C 
ATOM      5  C   UNL     1      48.922   7.048  13.829  0.00  0.00    +0.000 C 
ATOM      6  C   UNL     1      48.085   7.971  14.721  0.00  0.00    +0.000 C 
ENDROOT
BRANCH   1   7
ATOM      7  C   UNL     1      49.920   9.140  16.030  0.00  0.00    +0.000 C 
BRANCH   7  10
ATOM      8  C   UNL     1      51.260   7.104  16.563  0.00  0.00    +0.000 C 
ATOM      9  O   UNL     1      52.342   7.613  16.295  0.00  0.00    +0.000 OA
ATOM     10  N   UNL     1      50.056   7.774  16.502  0.00  0.00    +0.000 N 
ATOM     11  H   UNL     1      49.220   7.304  16.823  0.00  0.00    +0.000 HD
BRANCH   8  15
ATOM     12  C   UNL     1      49.692   3.996  18.055  0.00  0.00    +0.000 C 
ATOM     13  C   UNL     1      50.694   4.456  19.113  0.00  0.00    +0.000 C 
ATOM     14  C   UNL     1      51.636   5.441  18.420  0.00  0.00    +0.000 C 
ATOM     15  C   UNL     1      51.100   5.651  16.999  0.00  0.00    +0.000 C 
ATOM     16  C   UNL     1      49.651   5.162  17.067  0.00  0.00    +0.000 C 
BRANCH  12  18
ATOM     17  N   UNL     1      50.503   1.768  16.907  0.00  0.00    +0.000 NA
ATOM     18  C   UNL     1      50.137   2.747  17.411  0.00  0.00    +0.000 C 
ENDBRANCH  12  18
ENDBRANCH   8  15
ENDBRANCH   7  10
ENDBRANCH   1   7
BRANCH   4  19
ATOM     19  C   UNL     1      48.095   7.848  11.567  0.00  0.00    +0.000 C 
BRANCH  19  20
ATOM     20  N   UNL     1      47.243   6.675  11.569  0.00  0.00    +0.000 N 
ATOM     21  C   UNL     1      45.893   6.733  11.813  0.00  0.00    +0.000 C 
ATOM     22  O   UNL     1      45.327   7.785  12.097  0.00  0.00    +0.000 OA
ATOM     23  H   UNL     1      47.689   5.771  11.443  0.00  0.00    +0.000 HD
BRANCH  21  24
ATOM     24  C   UNL     1      45.136   5.482  11.663  0.00  0.00    +0.000 A 
ATOM     25  C   UNL     1      44.393   5.005  12.735  0.00  0.00    +0.000 A 
ATOM     26  S   UNL     1      43.584   3.541  12.417  0.00  0.00    +0.000 S 
ATOM     27  C   UNL     1      44.221   3.471  10.843  0.00  0.00    +0.000 A 
ATOM     28  N   UNL     1      43.946   2.416  10.026  0.00  0.00    +0.000 NA
ATOM     29  C   UNL     1      44.513   2.476   8.871  0.00  0.00    +0.000 A 
ATOM     30  N   UNL     1      45.325   3.497   8.451  0.00  0.00    +0.000 N 
ATOM     31  C   UNL     1      45.569   4.617   9.213  0.00  0.00    +0.000 A 
ATOM     32  O   UNL     1      46.184   5.573   8.755  0.00  0.00    +0.000 OA
ATOM     33  C   UNL     1      45.005   4.573  10.546  0.00  0.00    +0.000 A 
ATOM     34  H   UNL     1      45.705   3.500   7.516  0.00  0.00    +0.000 HD
ENDBRANCH  21  24
ENDBRANCH  19  20
ENDBRANCH   4  19
TORSDOF 7
ENDMDL
MODEL 7
REMARK VINA RESULT:    -6.750      3.355      8.312
REMARK INTER + INTRA:         -10.103
REMARK INTER:                  -9.023
REMARK INTRA:                  -1.079
REMARK UNBOUND:                -0.590
REMARK  Name = 
REMARK  7 active torsions:
REMARK  status: ('A' for Active; 'I' for Inactive)
REMARK    1  A    between atoms: C_2  and  C_3
REMARK    2  A    between atoms: C_6  and  C_7
REMARK    3  A    between atoms: N_9  and  C_10
REMARK    4  A    between atoms: C_10  and  C_11
REMARK    5  A    between atoms: C_14  and  C_15
REMARK    6  A    between atoms: C_15  and  N_16
REMARK    7  A    between atoms: C_17  and  C_19
REMARK                            x       y       z     vdW  Elec       q    Type
REMARK                         _______ _______ _______ _____ _____    ______ ____
ROOT
ATOM      1  C   UNL     1      48.447   8.969  15.265  0.00  0.00    +0.000 C 
ATOM      2  C   UNL     1      49.048   9.895  14.188  0.00  0.00    +0.000 C 
ATOM      3  C   UNL     1      50.046   9.190  13.266  0.00  0.00    +0.000 C 
ATOM      4  C   UNL     1      49.477   7.919  12.611  0.00  0.00    +0.000 C 
ATOM      5  C   UNL     1      48.923   6.992  13.705  0.00  0.00    +0.000 C 
ATOM      6  C   UNL     1      47.899   7.688  14.608  0.00  0.00    +0.000 C 
ENDROOT
BRANCH   1   7
ATOM      7  C   UNL     1      49.431   8.626  16.404  0.00  0.00    +0.000 C 
BRANCH   7  10
ATOM      8  C   UNL     1      48.951   6.566  17.726  0.00  0.00    +0.000 C 
ATOM      9  O   UNL     1      48.221   7.125  18.536  0.00  0.00    +0.000 OA
ATOM     10  N   UNL     1      49.539   7.201  16.652  0.00  0.00    +0.000 N 
ATOM     11  H   UNL     1      50.057   6.646  15.983  0.00  0.00    +0.000 HD
BRANCH   8  15
ATOM     12  C   UNL     1      48.624   2.810  17.370  0.00  0.00    +0.000 C 
ATOM     13  C   UNL     1      48.366   3.070  18.854  0.00  0.00    +0.000 C 
ATOM     14  C   UNL     1      48.878   4.482  19.142  0.00  0.00    +0.000 C 
ATOM     15  C   UNL     1      49.310   5.086  17.801  0.00  0.00    +0.000 C 
ATOM     16  C   UNL     1      48.620   4.208  16.753  0.00  0.00    +0.000 C 
BRANCH  12  18
ATOM     17  N   UNL     1      50.925   1.575  17.022  0.00  0.00    +0.000 NA
ATOM     18  C   UNL     1      49.914   2.125  17.169  0.00  0.00    +0.000 C 
ENDBRANCH  12  18
ENDBRANCH   8  15
ENDBRANCH   7  10
ENDBRANCH   1   7
BRANCH   4  19
ATOM     19  C   UNL     1      48.408   8.206  11.537  0.00  0.00    +0.000 C 
BRANCH  19  20
ATOM     20  N   UNL     1      47.670   7.023  11.140  0.00  0.00    +0.000 N 
ATOM     21  C   UNL     1      46.306   6.917  11.262  0.00  0.00    +0.000 C 
ATOM     22  O   UNL     1      45.626   7.808  11.766  0.00  0.00    +0.000 OA
ATOM     23  H   UNL     1      48.206   6.223  10.818  0.00  0.00    +0.000 HD
BRANCH  21  24
ATOM     24  C   UNL     1      45.681   5.707  10.708  0.00  0.00    +0.000 A 
ATOM     25  C   UNL     1      45.762   5.465   9.344  0.00  0.00    +0.000 A 
ATOM     26  S   UNL     1      44.979   4.035   8.850  0.00  0.00    +0.000 S 
ATOM     27  C   UNL     1      44.475   3.700  10.438  0.00  0.00    +0.000 A 
ATOM     28  N   UNL     1      43.706   2.609  10.710  0.00  0.00    +0.000 NA
ATOM     29  C   UNL     1      43.373   2.489  11.949  0.00  0.00    +0.000 A 
ATOM     30  N   UNL     1      43.744   3.354  12.945  0.00  0.00    +0.000 N 
ATOM     31  C   UNL     1      44.581   4.426  12.730  0.00  0.00    +0.000 A 
ATOM     32  O   UNL     1      45.004   5.096  13.664  0.00  0.00    +0.000 OA
ATOM     33  C   UNL     1      44.936   4.642  11.343  0.00  0.00    +0.000 A 
ATOM     34  H   UNL     1      43.479   3.178  13.903  0.00  0.00    +0.000 HD
ENDBRANCH  21  24
ENDBRANCH  19  20
ENDBRANCH   4  19
TORSDOF 7
ENDMDL
MODEL 8
REMARK VINA RESULT:    -6.332      3.073      5.175
REMARK INTER + INTRA:          -9.514
REMARK INTER:                  -8.353
REMARK INTRA:                  -1.160
REMARK UNBOUND:                -0.590
REMARK  Name = 
REMARK  7 active torsions:
REMARK  status: ('A' for Active; 'I' for Inactive)
REMARK    1  A    between atoms: C_2  and  C_3
REMARK    2  A    between atoms: C_6  and  C_7
REMARK    3  A    between atoms: N_9  and  C_10
REMARK    4  A    between atoms: C_10  and  C_11
REMARK    5  A    between atoms: C_14  and  C_15
REMARK    6  A    between atoms: C_15  and  N_16
REMARK    7  A    between atoms: C_17  and  C_19
REMARK                            x       y       z     vdW  Elec       q    Type
REMARK                         _______ _______ _______ _____ _____    ______ ____
ROOT
ATOM      1  C   UNL     1      48.585   8.552  14.051  0.00  0.00    +0.000 C 
ATOM      2  C   UNL     1      48.766   9.505  15.250  0.00  0.00    +0.000 C 
ATOM      3  C   UNL     1      48.300   8.908  16.580  0.00  0.00    +0.000 C 
ATOM      4  C   UNL     1      48.938   7.543  16.891  0.00  0.00    +0.000 C 
ATOM      5  C   UNL     1      48.709   6.596  15.702  0.00  0.00    +0.000 C 
ATOM      6  C   UNL     1      49.204   7.180  14.375  0.00  0.00    +0.000 C 
ENDROOT
BRANCH   1   7
ATOM      7  C   UNL     1      47.116   8.400  13.600  0.00  0.00    +0.000 C 
BRANCH   7  10
ATOM      8  C   UNL     1      45.773   6.940  12.087  0.00  0.00    +0.000 C 
ATOM      9  O   UNL     1      44.957   7.807  11.797  0.00  0.00    +0.000 OA
ATOM     10  N   UNL     1      46.860   7.149  12.911  0.00  0.00    +0.000 N 
ATOM     11  H   UNL     1      47.531   6.403  13.028  0.00  0.00    +0.000 HD
BRANCH   8  15
ATOM     12  C   UNL     1      44.299   3.576  11.167  0.00  0.00    +0.000 C 
ATOM     13  C   UNL     1      45.023   3.320  12.488  0.00  0.00    +0.000 C 
ATOM     14  C   UNL     1      45.966   4.503  12.703  0.00  0.00    +0.000 C 
ATOM     15  C   UNL     1      45.693   5.506  11.575  0.00  0.00    +0.000 C 
ATOM     16  C   UNL     1      44.320   5.098  11.033  0.00  0.00    +0.000 C 
BRANCH  12  18
ATOM     17  N   UNL     1      45.545   2.386   9.173  0.00  0.00    +0.000 NA
ATOM     18  C   UNL     1      44.994   2.917  10.046  0.00  0.00    +0.000 C 
ENDBRANCH  12  18
ENDBRANCH   8  15
ENDBRANCH   7  10
ENDBRANCH   1   7
BRANCH   4  19
ATOM     19  C   UNL     1      50.437   7.630  17.245  0.00  0.00    +0.000 C 
BRANCH  19  20
ATOM     20  N   UNL     1      51.023   6.341  17.554  0.00  0.00    +0.000 N 
ATOM     21  C   UNL     1      52.292   5.985  17.167  0.00  0.00    +0.000 C 
ATOM     22  O   UNL     1      52.997   6.725  16.485  0.00  0.00    +0.000 OA
ATOM     23  H   UNL     1      50.436   5.659  18.025  0.00  0.00    +0.000 HD
BRANCH  21  24
ATOM     24  C   UNL     1      52.798   4.693  17.654  0.00  0.00    +0.000 A 
ATOM     25  C   UNL     1      54.083   4.620  18.175  0.00  0.00    +0.000 A 
ATOM     26  S   UNL     1      54.533   3.058  18.684  0.00  0.00    +0.000 S 
ATOM     27  C   UNL     1      53.038   2.413  18.199  0.00  0.00    +0.000 A 
ATOM     28  N   UNL     1      52.780   1.081  18.322  0.00  0.00    +0.000 NA
ATOM     29  C   UNL     1      51.620   0.721  17.893  0.00  0.00    +0.000 A 
ATOM     30  N   UNL     1      50.687   1.571  17.358  0.00  0.00    +0.000 N 
ATOM     31  C   UNL     1      50.874   2.933  17.284  0.00  0.00    +0.000 A 
ATOM     32  O   UNL     1      49.968   3.678  16.930  0.00  0.00    +0.000 OA
ATOM     33  C   UNL     1      52.187   3.383  17.697  0.00  0.00    +0.000 A 
ATOM     34  H   UNL     1      49.781   1.228  17.077  0.00  0.00    +0.000 HD
ENDBRANCH  21  24
ENDBRANCH  19  20
ENDBRANCH   4  19
TORSDOF 7
ENDMDL
MODEL 9
REMARK VINA RESULT:    -5.626      4.317      8.171
REMARK INTER + INTRA:          -8.518
REMARK INTER:                  -7.408
REMARK INTRA:                  -1.111
REMARK UNBOUND:                -0.590
REMARK  Name = 
REMARK  7 active torsions:
REMARK  status: ('A' for Active; 'I' for Inactive)
REMARK    1  A    between atoms: C_2  and  C_3
REMARK    2  A    between atoms: C_6  and  C_7
REMARK    3  A    between atoms: N_9  and  C_10
REMARK    4  A    between atoms: C_10  and  C_11
REMARK    5  A    between atoms: C_14  and  C_15
REMARK    6  A    between atoms: C_15  and  N_16
REMARK    7  A    between atoms: C_17  and  C_19
REMARK                            x       y       z     vdW  Elec       q    Type
REMARK                         _______ _______ _______ _____ _____    ______ ____
ROOT
ATOM      1  C   UNL     1      47.006   5.294  13.172  0.00  0.00    +0.000 C 
ATOM      2  C   UNL     1      45.874   5.964  12.367  0.00  0.00    +0.000 C 
ATOM      3  C   UNL     1      45.416   7.301  12.955  0.00  0.00    +0.000 C 
ATOM      4  C   UNL     1      46.568   8.297  13.174  0.00  0.00    +0.000 C 
ATOM      5  C   UNL     1      47.665   7.623  14.015  0.00  0.00    +0.000 C 
ATOM      6  C   UNL     1      48.147   6.301  13.409  0.00  0.00    +0.000 C 
ENDROOT
BRANCH   1   7
ATOM      7  C   UNL     1      46.533   4.675  14.506  0.00  0.00    +0.000 C 
BRANCH   7  10
ATOM      8  C   UNL     1      47.450   3.895  16.690  0.00  0.00    +0.000 C 
ATOM      9  O   UNL     1      46.431   3.308  17.033  0.00  0.00    +0.000 OA
ATOM     10  N   UNL     1      47.599   4.542  15.481  0.00  0.00    +0.000 N 
ATOM     11  H   UNL     1      48.503   4.927  15.243  0.00  0.00    +0.000 HD
BRANCH   8  15
ATOM     12  C   UNL     1      51.019   4.638  17.714  0.00  0.00    +0.000 C 
ATOM     13  C   UNL     1      51.000   3.126  17.491  0.00  0.00    +0.000 C 
ATOM     14  C   UNL     1      49.530   2.708  17.479  0.00  0.00    +0.000 C 
ATOM     15  C   UNL     1      48.697   3.993  17.564  0.00  0.00    +0.000 C 
ATOM     16  C   UNL     1      49.672   5.101  17.161  0.00  0.00    +0.000 C 
BRANCH  12  18
ATOM     17  N   UNL     1      51.281   5.198  20.275  0.00  0.00    +0.000 NA
ATOM     18  C   UNL     1      51.165   4.960  19.146  0.00  0.00    +0.000 C 
ENDBRANCH  12  18
ENDBRANCH   8  15
ENDBRANCH   7  10
ENDBRANCH   1   7
BRANCH   4  19
ATOM     19  C   UNL     1      47.149   8.864  11.862  0.00  0.00    +0.000 C 
BRANCH  19  20
ATOM     20  N   UNL     1      48.584   9.064  11.917  0.00  0.00    +0.000 N 
ATOM     21  C   UNL     1      49.209  10.148  11.350  0.00  0.00    +0.000 C 
ATOM     22  O   UNL     1      48.591  10.996  10.713  0.00  0.00    +0.000 OA
ATOM     23  H   UNL     1      49.144   8.331  12.342  0.00  0.00    +0.000 HD
BRANCH  21  24
ATOM     24  C   UNL     1      50.654  10.281  11.587  0.00  0.00    +0.000 A 
ATOM     25  C   UNL     1      51.165  11.507  11.990  0.00  0.00    +0.000 A 
ATOM     26  S   UNL     1      52.854  11.511  12.210  0.00  0.00    +0.000 S 
ATOM     27  C   UNL     1      52.971   9.881  11.745  0.00  0.00    +0.000 A 
ATOM     28  N   UNL     1      54.182   9.261  11.675  0.00  0.00    +0.000 NA
ATOM     29  C   UNL     1      54.130   8.034  11.284  0.00  0.00    +0.000 A 
ATOM     30  N   UNL     1      52.978   7.366  10.963  0.00  0.00    +0.000 N 
ATOM     31  C   UNL     1      51.728   7.927  11.091  0.00  0.00    +0.000 A 
ATOM     32  O   UNL     1      50.713   7.259  10.929  0.00  0.00    +0.000 OA
ATOM     33  C   UNL     1      51.733   9.325  11.469  0.00  0.00    +0.000 A 
ATOM     34  H   UNL     1      53.005   6.391  10.702  0.00  0.00    +0.000 HD
ENDBRANCH  21  24
ENDBRANCH  19  20
ENDBRANCH   4  19
TORSDOF 7
ENDMDL
