MODEL 1
REMARK VINA RESULT:    -8.085      0.000      0.000
REMARK INTER + INTRA:         -11.870
REMARK INTER:                 -10.921
REMARK INTRA:                  -0.949
REMARK UNBOUND:                -0.949
REMARK  Name = 
REMARK  6 active torsions:
REMARK  status: ('A' for Active; 'I' for Inactive)
REMARK    1  A    between atoms: C_2  and  C_20
REMARK    2  A    between atoms: N_3  and  C_4
REMARK    3  A    between atoms: C_4  and  C_5
REMARK    4  A    between atoms: C_8  and  C_9
REMARK    5  A    between atoms: C_9  and  O_10
REMARK    6  A    between atoms: O_10  and  C_11
REMARK                            x       y       z     vdW  Elec       q    Type
REMARK                         _______ _______ _______ _____ _____    ______ ____
ROOT
ATOM      1  C   UNL     1      47.521   6.434  14.313  0.00  0.00    +0.000 C 
ENDROOT
BRANCH   1   2
ATOM      2  C   UNL     1      46.691   5.541  13.434  0.00  0.00    +0.000 A 
ATOM      3  C   UNL     1      46.009   6.043  12.324  0.00  0.00    +0.000 A 
ATOM      4  C   UNL     1      45.270   5.182  11.516  0.00  0.00    +0.000 A 
ATOM      5  C   UNL     1      45.249   3.822  11.819  0.00  0.00    +0.000 A 
ATOM      6  N   UNL     1      45.929   3.306  12.874  0.00  0.00    +0.000 NA
ATOM      7  C   UNL     1      46.622   4.168  13.653  0.00  0.00    +0.000 A 
BRANCH   5   8
ATOM      8  C   UNL     1      44.415   2.874  10.988  0.00  0.00    +0.000 C 
BRANCH   8   9
ATOM      9  O   UNL     1      44.340   3.387   9.660  0.00  0.00    +0.000 OA
BRANCH   9  10
ATOM     10  C   UNL     1      45.287   2.832   8.816  0.00  0.00    +0.000 A 
ATOM     11  N   UNL     1      45.428   1.465   8.792  0.00  0.00    +0.000 NA
ATOM     12  C   UNL     1      46.353   0.922   7.977  0.00  0.00    +0.000 A 
ATOM     13  C   UNL     1      47.178   1.662   7.162  0.00  0.00    +0.000 A 
ATOM     14  C   UNL     1      47.045   3.040   7.212  0.00  0.00    +0.000 A 
ATOM     15  N   UNL     1      46.112   3.650   8.037  0.00  0.00    +0.000 N 
ATOM     16  O   UNL     1      46.042   4.923   8.047  0.00  0.00    +0.000 OA
ENDBRANCH   9  10
ENDBRANCH   8   9
ENDBRANCH   5   8
ENDBRANCH   1   2
BRANCH   1  19
ATOM     17  O   UNL     1      48.402   7.357  16.824  0.00  0.00    +0.000 OA
ATOM     18  C   UNL     1      48.741   6.242  16.435  0.00  0.00    +0.000 C 
ATOM     19  N   UNL     1      48.194   5.653  15.323  0.00  0.00    +0.000 N 
ATOM     20  H   UNL     1      48.565   4.762  15.009  0.00  0.00    +0.000 HD
BRANCH  18  21
ATOM     21  C   UNL     1      49.804   5.492  17.113  0.00  0.00    +0.000 A 
ATOM     22  C   UNL     1      50.930   6.143  17.596  0.00  0.00    +0.000 A 
ATOM     23  S   UNL     1      52.133   5.078  18.176  0.00  0.00    +0.000 S 
ATOM     24  C   UNL     1      51.226   3.718  17.700  0.00  0.00    +0.000 A 
ATOM     25  N   UNL     1      51.757   2.467  17.726  0.00  0.00    +0.000 NA
ATOM     26  C   UNL     1      50.977   1.549  17.253  0.00  0.00    +0.000 A 
ATOM     27  N   UNL     1      49.690   1.754  16.836  0.00  0.00    +0.000 N 
ATOM     28  C   UNL     1      49.065   2.973  16.940  0.00  0.00    +0.000 A 
ATOM     29  O   UNL     1      47.851   3.092  16.813  0.00  0.00    +0.000 OA
ATOM     30  C   UNL     1      49.959   4.068  17.274  0.00  0.00    +0.000 A 
ATOM     31  H   UNL     1      49.101   0.978  16.567  0.00  0.00    +0.000 HD
ENDBRANCH  18  21
ENDBRANCH   1  19
TORSDOF 6
ENDMDL
MODEL 2
REMARK VINA RESULT:    -7.895      2.158      2.776
REMARK INTER + INTRA:         -11.613
REMARK INTER:                 -10.708
REMARK INTRA:                  -0.906
REMARK UNBOUND:                -0.949
REMARK  Name = 
REMARK  6 active torsions:
REMARK  status: ('A' for Active; 'I' for Inactive)
REMARK    1  A    between atoms: C_2  and  C_20
REMARK    2  A    between atoms: N_3  and  C_4
REMARK    3  A    between atoms: C_4  and  C_5
REMARK    4  A    between atoms: C_8  and  C_9
REMARK    5  A    between atoms: C_9  and  O_10
REMARK    6  A    between atoms: O_10  and  C_11
REMARK                            x       y       z     vdW  Elec       q    Type
REMARK                         _______ _______ _______ _____ _____    ______ ____
ROOT
ATOM      1  C   UNL     1      47.455   6.732  13.522  0.00  0.00    +0.000 C 
ENDROOT
BRANCH   1   2
ATOM      2  C   UNL     1      46.648   5.725  12.750  0.00  0.00    +0.000 A 
ATOM      3  C   UNL     1      46.395   4.451  13.260  0.00  0.00    +0.000 A 
ATOM      4  C   UNL     1      45.621   3.552  12.530  0.00  0.00    +0.000 A 
ATOM      5  C   UNL     1      45.087   3.957  11.308  0.00  0.00    +0.000 A 
ATOM      6  N   UNL     1      45.292   5.202  10.807  0.00  0.00    +0.000 NA
ATOM      7  C   UNL     1      46.064   6.046  11.529  0.00  0.00    +0.000 A 
BRANCH   5   8
ATOM      8  C   UNL     1      44.284   2.986  10.473  0.00  0.00    +0.000 C 
BRANCH   8   9
ATOM      9  O   UNL     1      44.401   3.367   9.104  0.00  0.00    +0.000 OA
BRANCH   9  10
ATOM     10  C   UNL     1      45.420   2.700   8.446  0.00  0.00    +0.000 A 
ATOM     11  N   UNL     1      45.502   1.334   8.572  0.00  0.00    +0.000 NA
ATOM     12  C   UNL     1      46.498   0.683   7.939  0.00  0.00    +0.000 A 
ATOM     13  C   UNL     1      47.449   1.310   7.169  0.00  0.00    +0.000 A 
ATOM     14  C   UNL     1      47.372   2.689   7.069  0.00  0.00    +0.000 A 
ATOM     15  N   UNL     1      46.371   3.409   7.705  0.00  0.00    +0.000 N 
ATOM     16  O   UNL     1      46.357   4.678   7.583  0.00  0.00    +0.000 OA
ENDBRANCH   9  10
ENDBRANCH   8   9
ENDBRANCH   5   8
ENDBRANCH   1   2
BRANCH   1  19
ATOM     17  O   UNL     1      49.789   6.686  15.099  0.00  0.00    +0.000 OA
ATOM     18  C   UNL     1      48.755   6.182  15.531  0.00  0.00    +0.000 C 
ATOM     19  N   UNL     1      47.543   6.341  14.909  0.00  0.00    +0.000 N 
ATOM     20  H   UNL     1      46.738   5.842  15.272  0.00  0.00    +0.000 HD
BRANCH  18  21
ATOM     21  C   UNL     1      48.769   5.324  16.721  0.00  0.00    +0.000 A 
ATOM     22  C   UNL     1      48.341   4.006  16.646  0.00  0.00    +0.000 A 
ATOM     23  S   UNL     1      48.251   3.235  18.167  0.00  0.00    +0.000 S 
ATOM     24  C   UNL     1      48.677   4.672  18.975  0.00  0.00    +0.000 A 
ATOM     25  N   UNL     1      48.598   4.775  20.328  0.00  0.00    +0.000 NA
ATOM     26  C   UNL     1      48.870   5.953  20.787  0.00  0.00    +0.000 A 
ATOM     27  N   UNL     1      49.294   7.011  20.029  0.00  0.00    +0.000 N 
ATOM     28  C   UNL     1      49.535   6.903  18.680  0.00  0.00    +0.000 A 
ATOM     29  O   UNL     1      50.153   7.763  18.062  0.00  0.00    +0.000 OA
ATOM     30  C   UNL     1      49.055   5.666  18.092  0.00  0.00    +0.000 A 
ATOM     31  H   UNL     1      49.582   7.878  20.460  0.00  0.00    +0.000 HD
ENDBRANCH  18  21
ENDBRANCH   1  19
TORSDOF 6
ENDMDL
MODEL 3
REMARK VINA RESULT:    -7.766      2.649      8.543
REMARK INTER + INTRA:         -11.438
REMARK INTER:                 -10.531
REMARK INTRA:                  -0.907
REMARK UNBOUND:                -0.949
REMARK  Name = 
REMARK  6 active torsions:
REMARK  status: ('A' for Active; 'I' for Inactive)
REMARK    1  A    between atoms: C_2  and  C_20
REMARK    2  A    between atoms: N_3  and  C_4
REMARK    3  A    between atoms: C_4  and  C_5
REMARK    4  A    between atoms: C_8  and  C_9
REMARK    5  A    between atoms: C_9  and  O_10
REMARK    6  A    between atoms: O_10  and  C_11
REMARK                            x       y       z     vdW  Elec       q    Type
REMARK                         _______ _______ _______ _____ _____    ______ ____
ROOT
ATOM      1  C   UNL     1      47.676   7.378  12.123  0.00  0.00    +0.000 C 
ENDROOT
BRANCH   1   2
ATOM      2  C   UNL     1      48.038   6.886  13.497  0.00  0.00    +0.000 A 
ATOM      3  C   UNL     1      48.782   7.672  14.377  0.00  0.00    +0.000 A 
ATOM      4  C   UNL     1      49.077   7.197  15.653  0.00  0.00    +0.000 A 
ATOM      5  C   UNL     1      48.594   5.946  16.036  0.00  0.00    +0.000 A 
ATOM      6  N   UNL     1      47.842   5.177  15.208  0.00  0.00    +0.000 NA
ATOM      7  C   UNL     1      47.588   5.657  13.969  0.00  0.00    +0.000 A 
BRANCH   5   8
ATOM      8  C   UNL     1      48.941   5.385  17.396  0.00  0.00    +0.000 C 
BRANCH   8   9
ATOM      9  O   UNL     1      48.901   3.962  17.319  0.00  0.00    +0.000 OA
BRANCH   9  10
ATOM     10  C   UNL     1      50.131   3.377  17.569  0.00  0.00    +0.000 A 
ATOM     11  N   UNL     1      51.028   4.045  18.367  0.00  0.00    +0.000 NA
ATOM     12  C   UNL     1      52.229   3.482  18.607  0.00  0.00    +0.000 A 
ATOM     13  C   UNL     1      52.616   2.268  18.091  0.00  0.00    +0.000 A 
ATOM     14  C   UNL     1      51.715   1.614  17.267  0.00  0.00    +0.000 A 
ATOM     15  N   UNL     1      50.468   2.152  16.984  0.00  0.00    +0.000 N 
ATOM     16  O   UNL     1      49.683   1.508  16.212  0.00  0.00    +0.000 OA
ENDBRANCH   9  10
ENDBRANCH   8   9
ENDBRANCH   5   8
ENDBRANCH   1   2
BRANCH   1  19
ATOM     17  O   UNL     1      44.899   7.547  11.684  0.00  0.00    +0.000 OA
ATOM     18  C   UNL     1      45.488   6.496  11.444  0.00  0.00    +0.000 C 
ATOM     19  N   UNL     1      46.857   6.402  11.444  0.00  0.00    +0.000 N 
ATOM     20  H   UNL     1      47.285   5.492  11.309  0.00  0.00    +0.000 HD
BRANCH  18  21
ATOM     21  C   UNL     1      44.750   5.253  11.194  0.00  0.00    +0.000 A 
ATOM     22  C   UNL     1      43.850   4.765  12.132  0.00  0.00    +0.000 A 
ATOM     23  S   UNL     1      43.242   3.217  11.747  0.00  0.00    +0.000 S 
ATOM     24  C   UNL     1      44.244   3.111  10.375  0.00  0.00    +0.000 A 
ATOM     25  N   UNL     1      44.375   1.950   9.680  0.00  0.00    +0.000 NA
ATOM     26  C   UNL     1      45.237   2.002   8.717  0.00  0.00    +0.000 A 
ATOM     27  N   UNL     1      45.917   3.127   8.334  0.00  0.00    +0.000 N 
ATOM     28  C   UNL     1      45.697   4.354   8.911  0.00  0.00    +0.000 A 
ATOM     29  O   UNL     1      46.106   5.392   8.401  0.00  0.00    +0.000 OA
ATOM     30  C   UNL     1      44.893   4.304  10.119  0.00  0.00    +0.000 A 
ATOM     31  H   UNL     1      46.505   3.124   7.513  0.00  0.00    +0.000 HD
ENDBRANCH  18  21
ENDBRANCH   1  19
TORSDOF 6
ENDMDL
MODEL 4
REMARK VINA RESULT:    -7.518      2.150      2.503
REMARK INTER + INTRA:         -11.104
REMARK INTER:                 -10.015
REMARK INTRA:                  -1.090
REMARK UNBOUND:                -0.949
REMARK  Name = 
REMARK  6 active torsions:
REMARK  status: ('A' for Active; 'I' for Inactive)
REMARK    1  A    between atoms: C_2  and  C_20
REMARK    2  A    between atoms: N_3  and  C_4
REMARK    3  A    between atoms: C_4  and  C_5
REMARK    4  A    between atoms: C_8  and  C_9
REMARK    5  A    between atoms: C_9  and  O_10
REMARK    6  A    between atoms: O_10  and  C_11
REMARK                            x       y       z     vdW  Elec       q    Type
REMARK                         _______ _______ _______ _____ _____    ______ ____
ROOT
ATOM      1  C   UNL     1      48.402   7.206  13.496  0.00  0.00    +0.000 C 
ENDROOT
BRANCH   1   2
ATOM      2  C   UNL     1      47.212   6.446  12.981  0.00  0.00    +0.000 A 
ATOM      3  C   UNL     1      46.952   5.137  13.391  0.00  0.00    +0.000 A 
ATOM      4  C   UNL     1      45.825   4.471  12.915  0.00  0.00    +0.000 A 
ATOM      5  C   UNL     1      44.958   5.141  12.053  0.00  0.00    +0.000 A 
ATOM      6  N   UNL     1      45.173   6.424  11.665  0.00  0.00    +0.000 NA
ATOM      7  C   UNL     1      46.285   7.039  12.128  0.00  0.00    +0.000 A 
BRANCH   5   8
ATOM      8  C   UNL     1      43.755   4.426  11.483  0.00  0.00    +0.000 C 
BRANCH   8   9
ATOM      9  O   UNL     1      43.730   4.641  10.073  0.00  0.00    +0.000 OA
BRANCH   9  10
ATOM     10  C   UNL     1      44.506   3.729   9.378  0.00  0.00    +0.000 A 
ATOM     11  N   UNL     1      44.212   2.392   9.491  0.00  0.00    +0.000 NA
ATOM     12  C   UNL     1      44.970   1.502   8.821  0.00  0.00    +0.000 A 
ATOM     13  C   UNL     1      46.034   1.855   8.025  0.00  0.00    +0.000 A 
ATOM     14  C   UNL     1      46.338   3.204   7.937  0.00  0.00    +0.000 A 
ATOM     15  N   UNL     1      45.593   4.161   8.611  0.00  0.00    +0.000 N 
ATOM     16  O   UNL     1      45.926   5.387   8.499  0.00  0.00    +0.000 OA
ENDBRANCH   9  10
ENDBRANCH   8   9
ENDBRANCH   5   8
ENDBRANCH   1   2
BRANCH   1  19
ATOM     17  O   UNL     1      50.256   6.626  15.535  0.00  0.00    +0.000 OA
ATOM     18  C   UNL     1      49.125   7.002  15.833  0.00  0.00    +0.000 C 
ATOM     19  N   UNL     1      48.243   7.488  14.902  0.00  0.00    +0.000 N 
ATOM     20  H   UNL     1      47.298   7.716  15.196  0.00  0.00    +0.000 HD
BRANCH  18  21
ATOM     21  C   UNL     1      48.629   6.899  17.210  0.00  0.00    +0.000 A 
ATOM     22  C   UNL     1      48.309   8.041  17.932  0.00  0.00    +0.000 A 
ATOM     23  S   UNL     1      47.937   7.725  19.568  0.00  0.00    +0.000 S 
ATOM     24  C   UNL     1      48.297   6.072  19.382  0.00  0.00    +0.000 A 
ATOM     25  N   UNL     1      48.376   5.238  20.453  0.00  0.00    +0.000 NA
ATOM     26  C   UNL     1      48.744   4.032  20.161  0.00  0.00    +0.000 A 
ATOM     27  N   UNL     1      48.959   3.564  18.892  0.00  0.00    +0.000 N 
ATOM     28  C   UNL     1      48.738   4.333  17.775  0.00  0.00    +0.000 A 
ATOM     29  O   UNL     1      48.679   3.842  16.653  0.00  0.00    +0.000 OA
ATOM     30  C   UNL     1      48.521   5.740  18.059  0.00  0.00    +0.000 A 
ATOM     31  H   UNL     1      49.151   2.587  18.724  0.00  0.00    +0.000 HD
ENDBRANCH  18  21
ENDBRANCH   1  19
TORSDOF 6
ENDMDL
MODEL 5
REMARK VINA RESULT:    -7.511      3.192      8.339
REMARK INTER + INTRA:         -11.094
REMARK INTER:                 -10.084
REMARK INTRA:                  -1.009
REMARK UNBOUND:                -0.949
REMARK  Name = 
REMARK  6 active torsions:
REMARK  status: ('A' for Active; 'I' for Inactive)
REMARK    1  A    between atoms: C_2  and  C_20
REMARK    2  A    between atoms: N_3  and  C_4
REMARK    3  A    between atoms: C_4  and  C_5
REMARK    4  A    between atoms: C_8  and  C_9
REMARK    5  A    between atoms: C_9  and  O_10
REMARK    6  A    between atoms: O_10  and  C_11
REMARK                            x       y       z     vdW  Elec       q    Type
REMARK                         _______ _______ _______ _____ _____    ______ ____
ROOT
ATOM      1  C   UNL     1      47.307   8.348  12.749  0.00  0.00    +0.000 C 
ENDROOT
BRANCH   1   2
ATOM      2  C   UNL     1      47.947   7.700  13.945  0.00  0.00    +0.000 A 
ATOM      3  C   UNL     1      48.364   8.454  15.043  0.00  0.00    +0.000 A 
ATOM      4  C   UNL     1      48.930   7.819  16.147  0.00  0.00    +0.000 A 
ATOM      5  C   UNL     1      49.042   6.429  16.142  0.00  0.00    +0.000 A 
ATOM      6  N   UNL     1      48.615   5.673  15.098  0.00  0.00    +0.000 NA
ATOM      7  C   UNL     1      48.088   6.319  14.033  0.00  0.00    +0.000 A 
BRANCH   5   8
ATOM      8  C   UNL     1      49.697   5.718  17.304  0.00  0.00    +0.000 C 
BRANCH   8   9
ATOM      9  O   UNL     1      49.389   4.329  17.213  0.00  0.00    +0.000 OA
BRANCH   9  10
ATOM     10  C   UNL     1      50.477   3.520  17.493  0.00  0.00    +0.000 A 
ATOM     11  N   UNL     1      51.499   4.031  18.255  0.00  0.00    +0.000 NA
ATOM     12  C   UNL     1      52.563   3.248  18.524  0.00  0.00    +0.000 A 
ATOM     13  C   UNL     1      52.689   1.955  18.073  0.00  0.00    +0.000 A 
ATOM     14  C   UNL     1      51.664   1.457  17.286  0.00  0.00    +0.000 A 
ATOM     15  N   UNL     1      50.550   2.223  16.974  0.00  0.00    +0.000 N 
ATOM     16  O   UNL     1      49.643   1.713  16.238  0.00  0.00    +0.000 OA
ENDBRANCH   9  10
ENDBRANCH   8   9
ENDBRANCH   5   8
ENDBRANCH   1   2
BRANCH   1  19
ATOM     17  O   UNL     1      44.793   7.874  11.570  0.00  0.00    +0.000 OA
ATOM     18  C   UNL     1      45.715   7.086  11.371  0.00  0.00    +0.000 C 
ATOM     19  N   UNL     1      47.007   7.355  11.745  0.00  0.00    +0.000 N 
ATOM     20  H   UNL     1      47.712   6.637  11.619  0.00  0.00    +0.000 HD
BRANCH  18  21
ATOM     21  C   UNL     1      45.473   5.773  10.763  0.00  0.00    +0.000 A 
ATOM     22  C   UNL     1      45.670   5.578   9.403  0.00  0.00    +0.000 A 
ATOM     23  S   UNL     1      45.152   4.045   8.857  0.00  0.00    +0.000 S 
ATOM     24  C   UNL     1      44.554   3.643  10.399  0.00  0.00    +0.000 A 
ATOM     25  N   UNL     1      43.796   2.532  10.599  0.00  0.00    +0.000 NA
ATOM     26  C   UNL     1      43.343   2.409  11.805  0.00  0.00    +0.000 A 
ATOM     27  N   UNL     1      43.645   3.246  12.845  0.00  0.00    +0.000 N 
ATOM     28  C   UNL     1      44.530   4.289  12.720  0.00  0.00    +0.000 A 
ATOM     29  O   UNL     1      44.993   4.867  13.697  0.00  0.00    +0.000 OA
ATOM     30  C   UNL     1      44.904   4.585  11.348  0.00  0.00    +0.000 A 
ATOM     31  H   UNL     1      43.336   3.040  13.784  0.00  0.00    +0.000 HD
ENDBRANCH  18  21
ENDBRANCH   1  19
TORSDOF 6
ENDMDL
MODEL 6
REMARK VINA RESULT:    -7.378      2.148      2.520
REMARK INTER + INTRA:         -10.915
REMARK INTER:                 -10.520
REMARK INTRA:                  -0.395
REMARK UNBOUND:                -0.949
REMARK  Name = 
REMARK  6 active torsions:
REMARK  status: ('A' for Active; 'I' for Inactive)
REMARK    1  A    between atoms: C_2  and  C_20
REMARK    2  A    between atoms: N_3  and  C_4
REMARK    3  A    between atoms: C_4  and  C_5
REMARK    4  A    between atoms: C_8  and  C_9
REMARK    5  A    between atoms: C_9  and  O_10
REMARK    6  A    between atoms: O_10  and  C_11
REMARK                            x       y       z     vdW  Elec       q    Type
REMARK                         _______ _______ _______ _____ _____    ______ ____
ROOT
ATOM      1  C   UNL     1      47.670   8.318  13.209  0.00  0.00    +0.000 C 
ENDROOT
BRANCH   1   2
ATOM      2  C   UNL     1      46.595   7.408  12.683  0.00  0.00    +0.000 A 
ATOM      3  C   UNL     1      45.308   7.880  12.421  0.00  0.00    +0.000 A 
ATOM      4  C   UNL     1      44.343   7.016  11.909  0.00  0.00    +0.000 A 
ATOM      5  C   UNL     1      44.694   5.694  11.639  0.00  0.00    +0.000 A 
ATOM      6  N   UNL     1      45.948   5.221  11.855  0.00  0.00    +0.000 NA
ATOM      7  C   UNL     1      46.859   6.078  12.371  0.00  0.00    +0.000 A 
BRANCH   5   8
ATOM      8  C   UNL     1      43.654   4.723  11.128  0.00  0.00    +0.000 C 
BRANCH   8   9
ATOM      9  O   UNL     1      43.617   4.811   9.706  0.00  0.00    +0.000 OA
BRANCH   9  10
ATOM     10  C   UNL     1      44.525   3.966   9.092  0.00  0.00    +0.000 A 
ATOM     11  N   UNL     1      45.389   4.492   8.162  0.00  0.00    +0.000 NA
ATOM     12  C   UNL     1      46.271   3.671   7.558  0.00  0.00    +0.000 A 
ATOM     13  C   UNL     1      46.356   2.323   7.816  0.00  0.00    +0.000 A 
ATOM     14  C   UNL     1      45.464   1.798   8.736  0.00  0.00    +0.000 A 
ATOM     15  N   UNL     1      44.533   2.598   9.383  0.00  0.00    +0.000 N 
ATOM     16  O   UNL     1      43.732   2.057  10.214  0.00  0.00    +0.000 OA
ENDBRANCH   9  10
ENDBRANCH   8   9
ENDBRANCH   5   8
ENDBRANCH   1   2
BRANCH   1  19
ATOM     17  O   UNL     1      49.794   6.953  14.458  0.00  0.00    +0.000 OA
ATOM     18  C   UNL     1      48.814   7.284  15.120  0.00  0.00    +0.000 C 
ATOM     19  N   UNL     1      47.841   8.118  14.628  0.00  0.00    +0.000 N 
ATOM     20  H   UNL     1      47.019   8.299  15.196  0.00  0.00    +0.000 HD
BRANCH  18  21
ATOM     21  C   UNL     1      48.596   6.756  16.471  0.00  0.00    +0.000 A 
ATOM     22  C   UNL     1      48.860   7.540  17.586  0.00  0.00    +0.000 A 
ATOM     23  S   UNL     1      48.731   6.687  19.060  0.00  0.00    +0.000 S 
ATOM     24  C   UNL     1      48.425   5.225  18.243  0.00  0.00    +0.000 A 
ATOM     25  N   UNL     1      48.407   4.035  18.901  0.00  0.00    +0.000 NA
ATOM     26  C   UNL     1      48.249   3.006  18.133  0.00  0.00    +0.000 A 
ATOM     27  N   UNL     1      48.025   3.063  16.784  0.00  0.00    +0.000 N 
ATOM     28  C   UNL     1      47.880   4.251  16.109  0.00  0.00    +0.000 A 
ATOM     29  O   UNL     1      47.427   4.299  14.971  0.00  0.00    +0.000 OA
ATOM     30  C   UNL     1      48.247   5.421  16.887  0.00  0.00    +0.000 A 
ATOM     31  H   UNL     1      47.814   2.228  16.257  0.00  0.00    +0.000 HD
ENDBRANCH  18  21
ENDBRANCH   1  19
TORSDOF 6
ENDMDL
MODEL 7
REMARK VINA RESULT:    -7.227      2.385      4.049
REMARK INTER + INTRA:         -10.711
REMARK INTER:                  -9.879
REMARK INTRA:                  -0.832
REMARK UNBOUND:                -0.949
REMARK  Name = 
REMARK  6 active torsions:
REMARK  status: ('A' for Active; 'I' for Inactive)
REMARK    1  A    between atoms: C_2  and  C_20
REMARK    2  A    between atoms: N_3  and  C_4
REMARK    3  A    between atoms: C_4  and  C_5
REMARK    4  A    between atoms: C_8  and  C_9
REMARK    5  A    between atoms: C_9  and  O_10
REMARK    6  A    between atoms: O_10  and  C_11
REMARK                            x       y       z     vdW  Elec       q    Type
REMARK                         _______ _______ _______ _____ _____    ______ ____
ROOT
ATOM      1  C   UNL     1      47.249   4.338  15.077  0.00  0.00    +0.000 C 
ENDROOT
BRANCH   1   2
ATOM      2  C   UNL     1      46.699   4.746  13.738  0.00  0.00    +0.000 A 
ATOM      3  C   UNL     1      47.185   5.867  13.063  0.00  0.00    +0.000 A 
ATOM      4  C   UNL     1      46.671   6.201  11.812  0.00  0.00    +0.000 A 
ATOM      5  C   UNL     1      45.692   5.386  11.245  0.00  0.00    +0.000 A 
ATOM      6  N   UNL     1      45.226   4.274  11.868  0.00  0.00    +0.000 NA
ATOM      7  C   UNL     1      45.730   3.986  13.090  0.00  0.00    +0.000 A 
BRANCH   5   8
ATOM      8  C   UNL     1      45.082   5.753   9.911  0.00  0.00    +0.000 C 
BRANCH   8   9
ATOM      9  O   UNL     1      44.466   4.590   9.363  0.00  0.00    +0.000 OA
BRANCH   9  10
ATOM     10  C   UNL     1      45.345   3.812   8.629  0.00  0.00    +0.000 A 
ATOM     11  N   UNL     1      46.196   4.435   7.747  0.00  0.00    +0.000 NA
ATOM     12  C   UNL     1      47.049   3.680   7.027  0.00  0.00    +0.000 A 
ATOM     13  C   UNL     1      47.117   2.310   7.118  0.00  0.00    +0.000 A 
ATOM     14  C   UNL     1      46.239   1.690   7.992  0.00  0.00    +0.000 A 
ATOM     15  N   UNL     1      45.337   2.419   8.753  0.00  0.00    +0.000 N 
ATOM     16  O   UNL     1      44.547   1.793   9.534  0.00  0.00    +0.000 OA
ENDBRANCH   9  10
ENDBRANCH   8   9
ENDBRANCH   5   8
ENDBRANCH   1   2
BRANCH   1  19
ATOM     17  O   UNL     1      49.547   4.766  16.649  0.00  0.00    +0.000 OA
ATOM     18  C   UNL     1      48.595   5.537  16.744  0.00  0.00    +0.000 C 
ATOM     19  N   UNL     1      47.534   5.507  15.875  0.00  0.00    +0.000 N 
ATOM     20  H   UNL     1      46.744   6.120  16.046  0.00  0.00    +0.000 HD
BRANCH  18  21
ATOM     21  C   UNL     1      48.512   6.509  17.839  0.00  0.00    +0.000 A 
ATOM     22  C   UNL     1      48.393   6.081  19.155  0.00  0.00    +0.000 A 
ATOM     23  S   UNL     1      48.116   7.355  20.259  0.00  0.00    +0.000 S 
ATOM     24  C   UNL     1      48.042   8.497  18.998  0.00  0.00    +0.000 A 
ATOM     25  N   UNL     1      47.636   9.775  19.221  0.00  0.00    +0.000 NA
ATOM     26  C   UNL     1      47.548  10.498  18.152  0.00  0.00    +0.000 A 
ATOM     27  N   UNL     1      47.907  10.088  16.897  0.00  0.00    +0.000 N 
ATOM     28  C   UNL     1      48.468   8.857  16.655  0.00  0.00    +0.000 A 
ATOM     29  O   UNL     1      49.021   8.595  15.593  0.00  0.00    +0.000 OA
ATOM     30  C   UNL     1      48.399   7.945  17.782  0.00  0.00    +0.000 A 
ATOM     31  H   UNL     1      47.905  10.732  16.119  0.00  0.00    +0.000 HD
ENDBRANCH  18  21
ENDBRANCH   1  19
TORSDOF 6
ENDMDL
MODEL 8
REMARK VINA RESULT:    -6.907      1.658      2.423
REMARK INTER + INTRA:         -10.278
REMARK INTER:                  -9.455
REMARK INTRA:                  -0.823
REMARK UNBOUND:                -0.949
REMARK  Name = 
REMARK  6 active torsions:
REMARK  status: ('A' for Active; 'I' for Inactive)
REMARK    1  A    between atoms: C_2  and  C_20
REMARK    2  A    between atoms: N_3  and  C_4
REMARK    3  A    between atoms: C_4  and  C_5
REMARK    4  A    between atoms: C_8  and  C_9
REMARK    5  A    between atoms: C_9  and  O_10
REMARK    6  A    between atoms: O_10  and  C_11
REMARK                            x       y       z     vdW  Elec       q    Type
REMARK                         _______ _______ _______ _____ _____    ______ ____
ROOT
ATOM      1  C   UNL     1      49.541   7.862  15.375  0.00  0.00    +0.000 C 
ENDROOT
BRANCH   1   2
ATOM      2  C   UNL     1      48.369   7.556  14.485  0.00  0.00    +0.000 A 
ATOM      3  C   UNL     1      47.527   8.567  14.019  0.00  0.00    +0.000 A 
ATOM      4  C   UNL     1      46.465   8.252  13.174  0.00  0.00    +0.000 A 
ATOM      5  C   UNL     1      46.281   6.926  12.786  0.00  0.00    +0.000 A 
ATOM      6  N   UNL     1      47.105   5.930  13.201  0.00  0.00    +0.000 NA
ATOM      7  C   UNL     1      48.116   6.263  14.037  0.00  0.00    +0.000 A 
BRANCH   5   8
ATOM      8  C   UNL     1      45.108   6.549  11.911  0.00  0.00    +0.000 C 
BRANCH   8   9
ATOM      9  O   UNL     1      45.605   6.186  10.624  0.00  0.00    +0.000 OA
BRANCH   9  10
ATOM     10  C   UNL     1      45.185   4.930  10.222  0.00  0.00    +0.000 A 
ATOM     11  N   UNL     1      44.437   4.176  11.093  0.00  0.00    +0.000 NA
ATOM     12  C   UNL     1      44.032   2.950  10.706  0.00  0.00    +0.000 A 
ATOM     13  C   UNL     1      44.330   2.400   9.482  0.00  0.00    +0.000 A 
ATOM     14  C   UNL     1      45.106   3.159   8.621  0.00  0.00    +0.000 A 
ATOM     15  N   UNL     1      45.554   4.424   8.971  0.00  0.00    +0.000 N 
ATOM     16  O   UNL     1      46.272   5.072   8.140  0.00  0.00    +0.000 OA
ENDBRANCH   9  10
ENDBRANCH   8   9
ENDBRANCH   5   8
ENDBRANCH   1   2
BRANCH   1  19
ATOM     17  O   UNL     1      48.867   6.476  17.733  0.00  0.00    +0.000 OA
ATOM     18  C   UNL     1      49.864   6.142  17.098  0.00  0.00    +0.000 C 
ATOM     19  N   UNL     1      50.140   6.637  15.848  0.00  0.00    +0.000 N 
ATOM     20  H   UNL     1      51.015   6.379  15.403  0.00  0.00    +0.000 HD
BRANCH  18  21
ATOM     21  C   UNL     1      50.858   5.228  17.671  0.00  0.00    +0.000 A 
ATOM     22  C   UNL     1      52.048   5.716  18.193  0.00  0.00    +0.000 A 
ATOM     23  S   UNL     1      53.150   4.487  18.632  0.00  0.00    +0.000 S 
ATOM     24  C   UNL     1      52.111   3.276  18.039  0.00  0.00    +0.000 A 
ATOM     25  N   UNL     1      52.520   1.985  17.922  0.00  0.00    +0.000 NA
ATOM     26  C   UNL     1      51.650   1.200  17.375  0.00  0.00    +0.000 A 
ATOM     27  N   UNL     1      50.382   1.568  17.011  0.00  0.00    +0.000 N 
ATOM     28  C   UNL     1      49.879   2.823  17.254  0.00  0.00    +0.000 A 
ATOM     29  O   UNL     1      48.681   3.068  17.168  0.00  0.00    +0.000 OA
ATOM     30  C   UNL     1      50.878   3.787  17.680  0.00  0.00    +0.000 A 
ATOM     31  H   UNL     1      49.719   0.884  16.677  0.00  0.00    +0.000 HD
ENDBRANCH  18  21
ENDBRANCH   1  19
TORSDOF 6
ENDMDL
MODEL 9
REMARK VINA RESULT:    -6.530      3.809      8.824
REMARK INTER + INTRA:          -9.769
REMARK INTER:                  -8.526
REMARK INTRA:                  -1.244
REMARK UNBOUND:                -0.949
REMARK  Name = 
REMARK  6 active torsions:
REMARK  status: ('A' for Active; 'I' for Inactive)
REMARK    1  A    between atoms: C_2  and  C_20
REMARK    2  A    between atoms: N_3  and  C_4
REMARK    3  A    between atoms: C_4  and  C_5
REMARK    4  A    between atoms: C_8  and  C_9
REMARK    5  A    between atoms: C_9  and  O_10
REMARK    6  A    between atoms: O_10  and  C_11
REMARK                            x       y       z     vdW  Elec       q    Type
REMARK                         _______ _______ _______ _____ _____    ______ ____
ROOT
ATOM      1  C   UNL     1      47.149   3.838  16.880  0.00  0.00    +0.000 C 
ENDROOT
BRANCH   1   2
ATOM      2  C   UNL     1      47.977   4.933  17.494  0.00  0.00    +0.000 A 
ATOM      3  C   UNL     1      47.479   5.726  18.530  0.00  0.00    +0.000 A 
ATOM      4  C   UNL     1      48.283   6.714  19.095  0.00  0.00    +0.000 A 
ATOM      5  C   UNL     1      49.587   6.872  18.628  0.00  0.00    +0.000 A 
ATOM      6  N   UNL     1      50.103   6.092  17.645  0.00  0.00    +0.000 NA
ATOM      7  C   UNL     1      49.293   5.154  17.102  0.00  0.00    +0.000 A 
BRANCH   5   8
ATOM      8  C   UNL     1      50.464   7.969  19.189  0.00  0.00    +0.000 C 
BRANCH   8   9
ATOM      9  O   UNL     1      49.858   9.225  18.892  0.00  0.00    +0.000 OA
BRANCH   9  10
ATOM     10  C   UNL     1      50.044   9.612  17.576  0.00  0.00    +0.000 A 
ATOM     11  N   UNL     1      51.323   9.844  17.132  0.00  0.00    +0.000 NA
ATOM     12  C   UNL     1      51.507  10.227  15.853  0.00  0.00    +0.000 A 
ATOM     13  C   UNL     1      50.479  10.406  14.957  0.00  0.00    +0.000 A 
ATOM     14  C   UNL     1      49.192  10.193  15.421  0.00  0.00    +0.000 A 
ATOM     15  N   UNL     1      48.947   9.803  16.730  0.00  0.00    +0.000 N 
ATOM     16  O   UNL     1      47.739   9.631  17.102  0.00  0.00    +0.000 OA
ENDBRANCH   9  10
ENDBRANCH   8   9
ENDBRANCH   5   8
ENDBRANCH   1   2
BRANCH   1  19
ATOM     17  O   UNL     1      47.486   3.145  14.171  0.00  0.00    +0.000 OA
ATOM     18  C   UNL     1      46.756   4.087  14.469  0.00  0.00    +0.000 C 
ATOM     19  N   UNL     1      46.391   4.353  15.765  0.00  0.00    +0.000 N 
ATOM     20  H   UNL     1      45.845   5.187  15.957  0.00  0.00    +0.000 HD
BRANCH  18  21
ATOM     21  C   UNL     1      46.272   5.024  13.450  0.00  0.00    +0.000 A 
ATOM     22  C   UNL     1      46.968   6.195  13.181  0.00  0.00    +0.000 A 
ATOM     23  S   UNL     1      46.146   7.240  12.109  0.00  0.00    +0.000 S 
ATOM     24  C   UNL     1      44.794   6.206  12.060  0.00  0.00    +0.000 A 
ATOM     25  N   UNL     1      43.628   6.590  11.474  0.00  0.00    +0.000 NA
ATOM     26  C   UNL     1      42.667   5.732  11.595  0.00  0.00    +0.000 A 
ATOM     27  N   UNL     1      42.786   4.497  12.172  0.00  0.00    +0.000 N 
ATOM     28  C   UNL     1      43.985   4.011  12.636  0.00  0.00    +0.000 A 
ATOM     29  O   UNL     1      44.143   2.826  12.908  0.00  0.00    +0.000 OA
ATOM     30  C   UNL     1      45.039   5.008  12.704  0.00  0.00    +0.000 A 
ATOM     31  H   UNL     1      42.023   3.837  12.148  0.00  0.00    +0.000 HD
ENDBRANCH  18  21
ENDBRANCH   1  19
TORSDOF 6
ENDMDL
