MODEL 1
REMARK VINA RESULT:    -8.501      0.000      0.000
REMARK INTER + INTRA:         -13.051
REMARK INTER:                 -11.979
REMARK INTRA:                  -1.072
REMARK UNBOUND:                -1.072
REMARK  Name = 
REMARK  7 active torsions:
REMARK  status: ('A' for Active; 'I' for Inactive)
REMARK    1  A    between atoms: C_2  and  C_20
REMARK    2  A    between atoms: N_3  and  C_4
REMARK    3  A    between atoms: C_4  and  C_5
REMARK    4  A    between atoms: C_8  and  C_9
REMARK    5  A    between atoms: C_9  and  N_10
REMARK    6  A    between atoms: N_10  and  C_11
REMARK    7  A    between atoms: C_11  and  C_12
REMARK                            x       y       z     vdW  Elec       q    Type
REMARK                         _______ _______ _______ _____ _____    ______ ____
ROOT
ATOM      1  C   UNL     1      48.050   6.274  13.961  0.00  0.00    +0.000 C 
ENDROOT
BRANCH   1   2
ATOM      2  C   UNL     1      46.864   5.952  13.092  0.00  0.00    +0.000 A 
ATOM      3  C   UNL     1      45.839   5.133  13.579  0.00  0.00    +0.000 A 
ATOM      4  C   UNL     1      44.732   4.832  12.783  0.00  0.00    +0.000 A 
ATOM      5  C   UNL     1      44.610   5.356  11.487  0.00  0.00    +0.000 A 
ATOM      6  C   UNL     1      45.658   6.145  10.989  0.00  0.00    +0.000 A 
ATOM      7  C   UNL     1      46.773   6.439  11.782  0.00  0.00    +0.000 A 
BRANCH   5   8
ATOM      8  C   UNL     1      43.414   5.039  10.611  0.00  0.00    +0.000 C 
BRANCH   8   9
ATOM      9  N   UNL     1      43.813   4.383   9.367  0.00  0.00    +0.000 NA
ATOM     10  H   UNL     1      44.559   4.924   8.932  0.00  0.00    +0.000 HD
BRANCH   9  11
ATOM     11  C   UNL     1      44.243   3.001   9.557  0.00  0.00    +0.000 C 
BRANCH  11  12
ATOM     12  C   UNL     1      45.571   2.765   8.808  0.00  0.00    +0.000 C 
ATOM     13  C   UNL     1      45.710   3.698   7.589  0.00  0.00    +0.000 C 
ATOM     14  C   UNL     1      47.000   3.436   6.817  0.00  0.00    +0.000 C 
ATOM     15  C   UNL     1      47.108   1.977   6.392  0.00  0.00    +0.000 C 
ATOM     16  C   UNL     1      46.986   1.042   7.590  0.00  0.00    +0.000 C 
ATOM     17  C   UNL     1      45.700   1.293   8.376  0.00  0.00    +0.000 C 
ENDBRANCH  11  12
ENDBRANCH   9  11
ENDBRANCH   8   9
ENDBRANCH   5   8
ENDBRANCH   1   2
BRANCH   1  20
ATOM     18  O   UNL     1      49.979   6.231  15.993  0.00  0.00    +0.000 OA
ATOM     19  C   UNL     1      48.816   5.985  16.278  0.00  0.00    +0.000 C 
ATOM     20  N   UNL     1      47.804   5.944  15.344  0.00  0.00    +0.000 N 
ATOM     21  H   UNL     1      46.848   5.898  15.663  0.00  0.00    +0.000 HD
BRANCH  19  22
ATOM     22  C   UNL     1      48.401   5.666  17.642  0.00  0.00    +0.000 A 
ATOM     23  C   UNL     1      48.342   4.385  18.180  0.00  0.00    +0.000 A 
ATOM     24  N   UNL     1      48.049   4.487  19.512  0.00  0.00    +0.000 N 
ATOM     25  C   UNL     1      47.888   5.800  19.846  0.00  0.00    +0.000 A 
ATOM     26  N   UNL     1      47.598   6.227  21.084  0.00  0.00    +0.000 NA
ATOM     27  C   UNL     1      47.474   7.564  21.139  0.00  0.00    +0.000 A 
ATOM     28  N   UNL     1      47.578   8.439  20.129  0.00  0.00    +0.000 NA
ATOM     29  C   UNL     1      47.876   7.939  18.916  0.00  0.00    +0.000 A 
ATOM     30 CL   UNL     1      47.879   9.032  17.623  0.00  0.00    +0.000 Cl
ATOM     31  C   UNL     1      48.065   6.574  18.707  0.00  0.00    +0.000 A 
ATOM     32  H   UNL     1      47.978   3.728  20.176  0.00  0.00    +0.000 HD
ENDBRANCH  19  22
ENDBRANCH   1  20
TORSDOF 7
ENDMDL
MODEL 2
REMARK VINA RESULT:    -7.967      1.194      2.054
REMARK INTER + INTRA:         -12.299
REMARK INTER:                 -11.294
REMARK INTRA:                  -1.005
REMARK UNBOUND:                -1.072
REMARK  Name = 
REMARK  7 active torsions:
REMARK  status: ('A' for Active; 'I' for Inactive)
REMARK    1  A    between atoms: C_2  and  C_20
REMARK    2  A    between atoms: N_3  and  C_4
REMARK    3  A    between atoms: C_4  and  C_5
REMARK    4  A    between atoms: C_8  and  C_9
REMARK    5  A    between atoms: C_9  and  N_10
REMARK    6  A    between atoms: N_10  and  C_11
REMARK    7  A    between atoms: C_11  and  C_12
REMARK                            x       y       z     vdW  Elec       q    Type
REMARK                         _______ _______ _______ _____ _____    ______ ____
ROOT
ATOM      1  C   UNL     1      48.312   6.018  13.796  0.00  0.00    +0.000 C 
ENDROOT
BRANCH   1   2
ATOM      2  C   UNL     1      47.057   5.774  13.002  0.00  0.00    +0.000 A 
ATOM      3  C   UNL     1      46.106   4.853  13.458  0.00  0.00    +0.000 A 
ATOM      4  C   UNL     1      44.936   4.623  12.732  0.00  0.00    +0.000 A 
ATOM      5  C   UNL     1      44.675   5.320  11.542  0.00  0.00    +0.000 A 
ATOM      6  C   UNL     1      45.648   6.213  11.069  0.00  0.00    +0.000 A 
ATOM      7  C   UNL     1      46.826   6.437  11.790  0.00  0.00    +0.000 A 
BRANCH   5   8
ATOM      8  C   UNL     1      43.409   5.081  10.742  0.00  0.00    +0.000 C 
BRANCH   8   9
ATOM      9  N   UNL     1      43.696   4.473   9.444  0.00  0.00    +0.000 NA
ATOM     10  H   UNL     1      44.353   5.066   8.939  0.00  0.00    +0.000 HD
BRANCH   9  11
ATOM     11  C   UNL     1      44.222   3.116   9.546  0.00  0.00    +0.000 C 
BRANCH  11  12
ATOM     12  C   UNL     1      45.064   2.792   8.294  0.00  0.00    +0.000 C 
ATOM     13  C   UNL     1      45.947   1.547   8.510  0.00  0.00    +0.000 C 
ATOM     14  C   UNL     1      46.816   1.249   7.293  0.00  0.00    +0.000 C 
ATOM     15  C   UNL     1      47.668   2.452   6.910  0.00  0.00    +0.000 C 
ATOM     16  C   UNL     1      46.807   3.689   6.679  0.00  0.00    +0.000 C 
ATOM     17  C   UNL     1      45.927   3.999   7.890  0.00  0.00    +0.000 C 
ENDBRANCH  11  12
ENDBRANCH   9  11
ENDBRANCH   8   9
ENDBRANCH   5   8
ENDBRANCH   1   2
BRANCH   1  20
ATOM     18  O   UNL     1      50.129   6.306  15.910  0.00  0.00    +0.000 OA
ATOM     19  C   UNL     1      49.002   6.764  16.034  0.00  0.00    +0.000 C 
ATOM     20  N   UNL     1      48.028   6.638  15.068  0.00  0.00    +0.000 N 
ATOM     21  H   UNL     1      47.177   7.174  15.160  0.00  0.00    +0.000 HD
BRANCH  19  22
ATOM     22  C   UNL     1      48.571   7.452  17.248  0.00  0.00    +0.000 A 
ATOM     23  C   UNL     1      48.254   8.803  17.330  0.00  0.00    +0.000 A 
ATOM     24  N   UNL     1      47.762   9.059  18.581  0.00  0.00    +0.000 N 
ATOM     25  C   UNL     1      47.778   7.913  19.322  0.00  0.00    +0.000 A 
ATOM     26  N   UNL     1      47.353   7.836  20.592  0.00  0.00    +0.000 NA
ATOM     27  C   UNL     1      47.495   6.600  21.096  0.00  0.00    +0.000 A 
ATOM     28  N   UNL     1      48.016   5.522  20.492  0.00  0.00    +0.000 NA
ATOM     29  C   UNL     1      48.416   5.672  19.216  0.00  0.00    +0.000 A 
ATOM     30 CL   UNL     1      49.190   4.346  18.502  0.00  0.00    +0.000 Cl
ATOM     31  C   UNL     1      48.305   6.889  18.545  0.00  0.00    +0.000 A 
ATOM     32  H   UNL     1      47.412   9.943  18.924  0.00  0.00    +0.000 HD
ENDBRANCH  19  22
ENDBRANCH   1  20
TORSDOF 7
ENDMDL
MODEL 3
REMARK VINA RESULT:    -7.909      1.410      2.196
REMARK INTER + INTRA:         -12.217
REMARK INTER:                 -11.126
REMARK INTRA:                  -1.091
REMARK UNBOUND:                -1.072
REMARK  Name = 
REMARK  7 active torsions:
REMARK  status: ('A' for Active; 'I' for Inactive)
REMARK    1  A    between atoms: C_2  and  C_20
REMARK    2  A    between atoms: N_3  and  C_4
REMARK    3  A    between atoms: C_4  and  C_5
REMARK    4  A    between atoms: C_8  and  C_9
REMARK    5  A    between atoms: C_9  and  N_10
REMARK    6  A    between atoms: N_10  and  C_11
REMARK    7  A    between atoms: C_11  and  C_12
REMARK                            x       y       z     vdW  Elec       q    Type
REMARK                         _______ _______ _______ _____ _____    ______ ____
ROOT
ATOM      1  C   UNL     1      47.506   3.847  15.285  0.00  0.00    +0.000 C 
ENDROOT
BRANCH   1   2
ATOM      2  C   UNL     1      46.891   4.391  14.024  0.00  0.00    +0.000 A 
ATOM      3  C   UNL     1      47.208   5.683  13.589  0.00  0.00    +0.000 A 
ATOM      4  C   UNL     1      46.647   6.195  12.418  0.00  0.00    +0.000 A 
ATOM      5  C   UNL     1      45.770   5.425  11.639  0.00  0.00    +0.000 A 
ATOM      6  C   UNL     1      45.425   4.145  12.098  0.00  0.00    +0.000 A 
ATOM      7  C   UNL     1      45.979   3.634  13.278  0.00  0.00    +0.000 A 
BRANCH   5   8
ATOM      8  C   UNL     1      45.153   5.967  10.365  0.00  0.00    +0.000 C 
BRANCH   8   9
ATOM      9  N   UNL     1      45.589   5.215   9.190  0.00  0.00    +0.000 NA
ATOM     10  H   UNL     1      46.454   4.724   9.413  0.00  0.00    +0.000 HD
BRANCH   9  11
ATOM     11  C   UNL     1      44.588   4.270   8.706  0.00  0.00    +0.000 C 
BRANCH  11  12
ATOM     12  C   UNL     1      45.271   3.193   7.837  0.00  0.00    +0.000 C 
ATOM     13  C   UNL     1      45.743   1.995   8.683  0.00  0.00    +0.000 C 
ATOM     14  C   UNL     1      46.461   0.948   7.837  0.00  0.00    +0.000 C 
ATOM     15  C   UNL     1      47.627   1.558   7.069  0.00  0.00    +0.000 C 
ATOM     16  C   UNL     1      47.171   2.736   6.215  0.00  0.00    +0.000 C 
ATOM     17  C   UNL     1      46.448   3.793   7.049  0.00  0.00    +0.000 C 
ENDBRANCH  11  12
ENDBRANCH   9  11
ENDBRANCH   8   9
ENDBRANCH   5   8
ENDBRANCH   1   2
BRANCH   1  20
ATOM     18  O   UNL     1      49.550   5.111  16.725  0.00  0.00    +0.000 OA
ATOM     19  C   UNL     1      48.387   5.342  17.024  0.00  0.00    +0.000 C 
ATOM     20  N   UNL     1      47.316   4.741  16.401  0.00  0.00    +0.000 N 
ATOM     21  H   UNL     1      46.387   5.093  16.581  0.00  0.00    +0.000 HD
BRANCH  19  22
ATOM     22  C   UNL     1      48.030   6.253  18.109  0.00  0.00    +0.000 A 
ATOM     23  C   UNL     1      47.669   5.861  19.393  0.00  0.00    +0.000 A 
ATOM     24  N   UNL     1      47.542   6.981  20.169  0.00  0.00    +0.000 N 
ATOM     25  C   UNL     1      47.784   8.091  19.413  0.00  0.00    +0.000 A 
ATOM     26  N   UNL     1      47.742   9.345  19.889  0.00  0.00    +0.000 NA
ATOM     27  C   UNL     1      48.000  10.254  18.935  0.00  0.00    +0.000 A 
ATOM     28  N   UNL     1      48.248  10.031  17.636  0.00  0.00    +0.000 NA
ATOM     29  C   UNL     1      48.280   8.749  17.232  0.00  0.00    +0.000 A 
ATOM     30 CL   UNL     1      48.465   8.481  15.570  0.00  0.00    +0.000 Cl
ATOM     31  C   UNL     1      48.061   7.691  18.113  0.00  0.00    +0.000 A 
ATOM     32  H   UNL     1      47.325   7.012  21.156  0.00  0.00    +0.000 HD
ENDBRANCH  19  22
ENDBRANCH   1  20
TORSDOF 7
ENDMDL
MODEL 4
REMARK VINA RESULT:    -7.755      2.450      3.031
REMARK INTER + INTRA:         -12.000
REMARK INTER:                 -10.941
REMARK INTRA:                  -1.060
REMARK UNBOUND:                -1.072
REMARK  Name = 
REMARK  7 active torsions:
REMARK  status: ('A' for Active; 'I' for Inactive)
REMARK    1  A    between atoms: C_2  and  C_20
REMARK    2  A    between atoms: N_3  and  C_4
REMARK    3  A    between atoms: C_4  and  C_5
REMARK    4  A    between atoms: C_8  and  C_9
REMARK    5  A    between atoms: C_9  and  N_10
REMARK    6  A    between atoms: N_10  and  C_11
REMARK    7  A    between atoms: C_11  and  C_12
REMARK                            x       y       z     vdW  Elec       q    Type
REMARK                         _______ _______ _______ _____ _____    ______ ____
ROOT
ATOM      1  C   UNL     1      47.073   7.696  13.511  0.00  0.00    +0.000 C 
ENDROOT
BRANCH   1   2
ATOM      2  C   UNL     1      46.225   6.686  12.786  0.00  0.00    +0.000 A 
ATOM      3  C   UNL     1      45.372   7.097  11.754  0.00  0.00    +0.000 A 
ATOM      4  C   UNL     1      44.585   6.168  11.072  0.00  0.00    +0.000 A 
ATOM      5  C   UNL     1      44.641   4.802  11.388  0.00  0.00    +0.000 A 
ATOM      6  C   UNL     1      45.467   4.399  12.448  0.00  0.00    +0.000 A 
ATOM      7  C   UNL     1      46.249   5.331  13.140  0.00  0.00    +0.000 A 
BRANCH   5   8
ATOM      8  C   UNL     1      43.792   3.781  10.656  0.00  0.00    +0.000 C 
BRANCH   8   9
ATOM      9  N   UNL     1      44.423   2.463  10.642  0.00  0.00    +0.000 NA
ATOM     10  H   UNL     1      43.938   1.856  11.301  0.00  0.00    +0.000 HD
BRANCH   9  11
ATOM     11  C   UNL     1      44.445   1.848   9.319  0.00  0.00    +0.000 C 
BRANCH  11  12
ATOM     12  C   UNL     1      45.720   2.283   8.567  0.00  0.00    +0.000 C 
ATOM     13  C   UNL     1      45.424   3.396   7.543  0.00  0.00    +0.000 C 
ATOM     14  C   UNL     1      46.673   3.797   6.763  0.00  0.00    +0.000 C 
ATOM     15  C   UNL     1      47.314   2.595   6.081  0.00  0.00    +0.000 C 
ATOM     16  C   UNL     1      47.625   1.491   7.085  0.00  0.00    +0.000 C 
ATOM     17  C   UNL     1      46.385   1.079   7.877  0.00  0.00    +0.000 C 
ENDBRANCH  11  12
ENDBRANCH   9  11
ENDBRANCH   8   9
ENDBRANCH   5   8
ENDBRANCH   1   2
BRANCH   1  20
ATOM     18  O   UNL     1      48.313   8.613  15.851  0.00  0.00    +0.000 OA
ATOM     19  C   UNL     1      48.722   7.585  15.329  0.00  0.00    +0.000 C 
ATOM     20  N   UNL     1      48.204   7.077  14.159  0.00  0.00    +0.000 N 
ATOM     21  H   UNL     1      48.472   6.147  13.871  0.00  0.00    +0.000 HD
BRANCH  19  22
ATOM     22  C   UNL     1      49.838   6.824  15.885  0.00  0.00    +0.000 A 
ATOM     23  C   UNL     1      51.169   7.226  15.864  0.00  0.00    +0.000 A 
ATOM     24  N   UNL     1      51.904   6.334  16.595  0.00  0.00    +0.000 N 
ATOM     25  C   UNL     1      51.089   5.347  17.066  0.00  0.00    +0.000 A 
ATOM     26  N   UNL     1      51.512   4.324  17.824  0.00  0.00    +0.000 NA
ATOM     27  C   UNL     1      50.513   3.482  18.137  0.00  0.00    +0.000 A 
ATOM     28  N   UNL     1      49.229   3.557  17.759  0.00  0.00    +0.000 NA
ATOM     29  C   UNL     1      48.875   4.614  17.005  0.00  0.00    +0.000 A 
ATOM     30 CL   UNL     1      47.284   4.635  16.425  0.00  0.00    +0.000 Cl
ATOM     31  C   UNL     1      49.795   5.589  16.623  0.00  0.00    +0.000 A 
ATOM     32  H   UNL     1      52.894   6.384  16.792  0.00  0.00    +0.000 HD
ENDBRANCH  19  22
ENDBRANCH   1  20
TORSDOF 7
ENDMDL
MODEL 5
REMARK VINA RESULT:    -7.164      3.396      8.552
REMARK INTER + INTRA:         -11.168
REMARK INTER:                  -9.334
REMARK INTRA:                  -1.834
REMARK UNBOUND:                -1.072
REMARK  Name = 
REMARK  7 active torsions:
REMARK  status: ('A' for Active; 'I' for Inactive)
REMARK    1  A    between atoms: C_2  and  C_20
REMARK    2  A    between atoms: N_3  and  C_4
REMARK    3  A    between atoms: C_4  and  C_5
REMARK    4  A    between atoms: C_8  and  C_9
REMARK    5  A    between atoms: C_9  and  N_10
REMARK    6  A    between atoms: N_10  and  C_11
REMARK    7  A    between atoms: C_11  and  C_12
REMARK                            x       y       z     vdW  Elec       q    Type
REMARK                         _______ _______ _______ _____ _____    ______ ____
ROOT
ATOM      1  C   UNL     1      47.843   8.886  13.472  0.00  0.00    +0.000 C 
ENDROOT
BRANCH   1   2
ATOM      2  C   UNL     1      48.261   8.499  14.866  0.00  0.00    +0.000 A 
ATOM      3  C   UNL     1      48.135   9.416  15.916  0.00  0.00    +0.000 A 
ATOM      4  C   UNL     1      48.514   9.066  17.213  0.00  0.00    +0.000 A 
ATOM      5  C   UNL     1      49.013   7.786  17.499  0.00  0.00    +0.000 A 
ATOM      6  C   UNL     1      49.175   6.884  16.438  0.00  0.00    +0.000 A 
ATOM      7  C   UNL     1      48.804   7.237  15.135  0.00  0.00    +0.000 A 
BRANCH   5   8
ATOM      8  C   UNL     1      49.430   7.390  18.902  0.00  0.00    +0.000 C 
BRANCH   8   9
ATOM      9  N   UNL     1      50.101   6.092  18.922  0.00  0.00    +0.000 NA
ATOM     10  H   UNL     1      51.066   6.222  19.219  0.00  0.00    +0.000 HD
BRANCH   9  11
ATOM     11  C   UNL     1      49.440   5.115  19.782  0.00  0.00    +0.000 C 
BRANCH  11  12
ATOM     12  C   UNL     1      48.973   3.912  18.935  0.00  0.00    +0.000 C 
ATOM     13  C   UNL     1      50.040   3.495  17.904  0.00  0.00    +0.000 C 
ATOM     14  C   UNL     1      49.566   2.336  17.032  0.00  0.00    +0.000 C 
ATOM     15  C   UNL     1      48.249   2.664  16.340  0.00  0.00    +0.000 C 
ATOM     16  C   UNL     1      47.179   3.066  17.349  0.00  0.00    +0.000 C 
ATOM     17  C   UNL     1      47.640   4.224  18.232  0.00  0.00    +0.000 C 
ENDBRANCH  11  12
ENDBRANCH   9  11
ENDBRANCH   8   9
ENDBRANCH   5   8
ENDBRANCH   1   2
BRANCH   1  20
ATOM     18  O   UNL     1      47.609   6.794  11.623  0.00  0.00    +0.000 OA
ATOM     19  C   UNL     1      46.603   7.195  12.191  0.00  0.00    +0.000 C 
ATOM     20  N   UNL     1      46.611   8.242  13.086  0.00  0.00    +0.000 N 
ATOM     21  H   UNL     1      45.785   8.416  13.640  0.00  0.00    +0.000 HD
BRANCH  19  22
ATOM     22  C   UNL     1      45.285   6.621  11.935  0.00  0.00    +0.000 A 
ATOM     23  C   UNL     1      44.206   7.310  11.391  0.00  0.00    +0.000 A 
ATOM     24  N   UNL     1      43.191   6.420  11.168  0.00  0.00    +0.000 N 
ATOM     25  C   UNL     1      43.574   5.177  11.579  0.00  0.00    +0.000 A 
ATOM     26  N   UNL     1      42.798   4.086  11.487  0.00  0.00    +0.000 NA
ATOM     27  C   UNL     1      43.405   2.994  11.980  0.00  0.00    +0.000 A 
ATOM     28  N   UNL     1      44.619   2.914  12.542  0.00  0.00    +0.000 NA
ATOM     29  C   UNL     1      45.343   4.047  12.594  0.00  0.00    +0.000 A 
ATOM     30 CL   UNL     1      46.820   3.967  13.418  0.00  0.00    +0.000 Cl
ATOM     31  C   UNL     1      44.860   5.256  12.095  0.00  0.00    +0.000 A 
ATOM     32  H   UNL     1      42.295   6.619  10.745  0.00  0.00    +0.000 HD
ENDBRANCH  19  22
ENDBRANCH   1  20
TORSDOF 7
ENDMDL
MODEL 6
REMARK VINA RESULT:    -6.701      3.471      8.677
REMARK INTER + INTRA:         -10.514
REMARK INTER:                  -8.405
REMARK INTRA:                  -2.109
REMARK UNBOUND:                -1.072
REMARK  Name = 
REMARK  7 active torsions:
REMARK  status: ('A' for Active; 'I' for Inactive)
REMARK    1  A    between atoms: C_2  and  C_20
REMARK    2  A    between atoms: N_3  and  C_4
REMARK    3  A    between atoms: C_4  and  C_5
REMARK    4  A    between atoms: C_8  and  C_9
REMARK    5  A    between atoms: C_9  and  N_10
REMARK    6  A    between atoms: N_10  and  C_11
REMARK    7  A    between atoms: C_11  and  C_12
REMARK                            x       y       z     vdW  Elec       q    Type
REMARK                         _______ _______ _______ _____ _____    ______ ____
ROOT
ATOM      1  C   UNL     1      47.849   8.755  14.333  0.00  0.00    +0.000 C 
ENDROOT
BRANCH   1   2
ATOM      2  C   UNL     1      48.491   8.658  15.691  0.00  0.00    +0.000 A 
ATOM      3  C   UNL     1      47.893   9.277  16.796  0.00  0.00    +0.000 A 
ATOM      4  C   UNL     1      48.477   9.188  18.061  0.00  0.00    +0.000 A 
ATOM      5  C   UNL     1      49.662   8.464  18.261  0.00  0.00    +0.000 A 
ATOM      6  C   UNL     1      50.278   7.878  17.145  0.00  0.00    +0.000 A 
ATOM      7  C   UNL     1      49.699   7.975  15.874  0.00  0.00    +0.000 A 
BRANCH   5   8
ATOM      8  C   UNL     1      50.308   8.359  19.628  0.00  0.00    +0.000 C 
BRANCH   8   9
ATOM      9  N   UNL     1      50.550   6.968  20.007  0.00  0.00    +0.000 NA
ATOM     10  H   UNL     1      51.332   6.934  20.659  0.00  0.00    +0.000 HD
BRANCH   9  11
ATOM     11  C   UNL     1      49.382   6.318  20.591  0.00  0.00    +0.000 C 
BRANCH  11  12
ATOM     12  C   UNL     1      48.878   5.209  19.642  0.00  0.00    +0.000 C 
ATOM     13  C   UNL     1      50.000   4.702  18.715  0.00  0.00    +0.000 C 
ATOM     14  C   UNL     1      49.497   3.640  17.743  0.00  0.00    +0.000 C 
ATOM     15  C   UNL     1      48.314   4.146  16.928  0.00  0.00    +0.000 C 
ATOM     16  C   UNL     1      47.190   4.639  17.833  0.00  0.00    +0.000 C 
ATOM     17  C   UNL     1      47.679   5.703  18.815  0.00  0.00    +0.000 C 
ENDBRANCH  11  12
ENDBRANCH   9  11
ENDBRANCH   8   9
ENDBRANCH   5   8
ENDBRANCH   1   2
BRANCH   1  20
ATOM     18  O   UNL     1      48.625   6.623  12.689  0.00  0.00    +0.000 OA
ATOM     19  C   UNL     1      47.535   6.577  13.241  0.00  0.00    +0.000 C 
ATOM     20  N   UNL     1      47.050   7.592  14.035  0.00  0.00    +0.000 N 
ATOM     21  H   UNL     1      46.222   7.424  14.589  0.00  0.00    +0.000 HD
BRANCH  19  22
ATOM     22  C   UNL     1      46.624   5.449  13.067  0.00  0.00    +0.000 A 
ATOM     23  C   UNL     1      46.867   4.151  13.506  0.00  0.00    +0.000 A 
ATOM     24  N   UNL     1      45.741   3.403  13.296  0.00  0.00    +0.000 N 
ATOM     25  C   UNL     1      44.784   4.175  12.705  0.00  0.00    +0.000 A 
ATOM     26  N   UNL     1      43.562   3.730  12.375  0.00  0.00    +0.000 NA
ATOM     27  C   UNL     1      42.819   4.684  11.790  0.00  0.00    +0.000 A 
ATOM     28  N   UNL     1      43.181   5.943  11.502  0.00  0.00    +0.000 NA
ATOM     29  C   UNL     1      44.419   6.321  11.868  0.00  0.00    +0.000 A 
ATOM     30 CL   UNL     1      44.914   7.868  11.387  0.00  0.00    +0.000 Cl
ATOM     31  C   UNL     1      45.297   5.451  12.512  0.00  0.00    +0.000 A 
ATOM     32  H   UNL     1      45.603   2.434  13.548  0.00  0.00    +0.000 HD
ENDBRANCH  19  22
ENDBRANCH   1  20
TORSDOF 7
ENDMDL
MODEL 7
REMARK VINA RESULT:    -6.500      3.065      4.259
REMARK INTER + INTRA:         -10.232
REMARK INTER:                  -9.414
REMARK INTRA:                  -0.818
REMARK UNBOUND:                -1.072
REMARK  Name = 
REMARK  7 active torsions:
REMARK  status: ('A' for Active; 'I' for Inactive)
REMARK    1  A    between atoms: C_2  and  C_20
REMARK    2  A    between atoms: N_3  and  C_4
REMARK    3  A    between atoms: C_4  and  C_5
REMARK    4  A    between atoms: C_8  and  C_9
REMARK    5  A    between atoms: C_9  and  N_10
REMARK    6  A    between atoms: N_10  and  C_11
REMARK    7  A    between atoms: C_11  and  C_12
REMARK                            x       y       z     vdW  Elec       q    Type
REMARK                         _______ _______ _______ _____ _____    ______ ____
ROOT
ATOM      1  C   UNL     1      49.590   7.437  15.988  0.00  0.00    +0.000 C 
ENDROOT
BRANCH   1   2
ATOM      2  C   UNL     1      48.543   7.389  14.907  0.00  0.00    +0.000 A 
ATOM      3  C   UNL     1      48.201   6.167  14.316  0.00  0.00    +0.000 A 
ATOM      4  C   UNL     1      47.227   6.111  13.316  0.00  0.00    +0.000 A 
ATOM      5  C   UNL     1      46.557   7.269  12.894  0.00  0.00    +0.000 A 
ATOM      6  C   UNL     1      46.931   8.496  13.461  0.00  0.00    +0.000 A 
ATOM      7  C   UNL     1      47.914   8.556  14.456  0.00  0.00    +0.000 A 
BRANCH   5   8
ATOM      8  C   UNL     1      45.498   7.224  11.810  0.00  0.00    +0.000 C 
BRANCH   8   9
ATOM      9  N   UNL     1      45.571   5.988  11.033  0.00  0.00    +0.000 NA
ATOM     10  H   UNL     1      46.166   5.323  11.524  0.00  0.00    +0.000 HD
BRANCH   9  11
ATOM     11  C   UNL     1      44.264   5.394  10.772  0.00  0.00    +0.000 C 
BRANCH  11  12
ATOM     12  C   UNL     1      44.390   4.341   9.650  0.00  0.00    +0.000 C 
ATOM     13  C   UNL     1      44.489   2.913  10.220  0.00  0.00    +0.000 C 
ATOM     14  C   UNL     1      44.660   1.872   9.118  0.00  0.00    +0.000 C 
ATOM     15  C   UNL     1      45.864   2.185   8.239  0.00  0.00    +0.000 C 
ATOM     16  C   UNL     1      45.773   3.591   7.657  0.00  0.00    +0.000 C 
ATOM     17  C   UNL     1      45.598   4.646   8.749  0.00  0.00    +0.000 C 
ENDBRANCH  11  12
ENDBRANCH   9  11
ENDBRANCH   8   9
ENDBRANCH   5   8
ENDBRANCH   1   2
BRANCH   1  20
ATOM     18  O   UNL     1      49.020   5.942  18.288  0.00  0.00    +0.000 OA
ATOM     19  C   UNL     1      49.743   5.454  17.431  0.00  0.00    +0.000 C 
ATOM     20  N   UNL     1      50.111   6.125  16.286  0.00  0.00    +0.000 N 
ATOM     21  H   UNL     1      50.571   5.613  15.547  0.00  0.00    +0.000 HD
BRANCH  19  22
ATOM     22  C   UNL     1      50.321   4.120  17.570  0.00  0.00    +0.000 A 
ATOM     23  C   UNL     1      49.608   2.929  17.482  0.00  0.00    +0.000 A 
ATOM     24  N   UNL     1      50.496   1.888  17.521  0.00  0.00    +0.000 N 
ATOM     25  C   UNL     1      51.763   2.373  17.660  0.00  0.00    +0.000 A 
ATOM     26  N   UNL     1      52.858   1.600  17.723  0.00  0.00    +0.000 NA
ATOM     27  C   UNL     1      53.978   2.326  17.879  0.00  0.00    +0.000 A 
ATOM     28  N   UNL     1      54.082   3.657  17.998  0.00  0.00    +0.000 NA
ATOM     29  C   UNL     1      52.944   4.368  17.918  0.00  0.00    +0.000 A 
ATOM     30 CL   UNL     1      53.067   6.034  18.197  0.00  0.00    +0.000 Cl
ATOM     31  C   UNL     1      51.704   3.759  17.727  0.00  0.00    +0.000 A 
ATOM     32  H   UNL     1      50.278   0.904  17.439  0.00  0.00    +0.000 HD
ENDBRANCH  19  22
ENDBRANCH   1  20
TORSDOF 7
ENDMDL
MODEL 8
REMARK VINA RESULT:    -6.398      3.260      4.687
REMARK INTER + INTRA:         -10.088
REMARK INTER:                  -9.330
REMARK INTRA:                  -0.758
REMARK UNBOUND:                -1.072
REMARK  Name = 
REMARK  7 active torsions:
REMARK  status: ('A' for Active; 'I' for Inactive)
REMARK    1  A    between atoms: C_2  and  C_20
REMARK    2  A    between atoms: N_3  and  C_4
REMARK    3  A    between atoms: C_4  and  C_5
REMARK    4  A    between atoms: C_8  and  C_9
REMARK    5  A    between atoms: C_9  and  N_10
REMARK    6  A    between atoms: N_10  and  C_11
REMARK    7  A    between atoms: C_11  and  C_12
REMARK                            x       y       z     vdW  Elec       q    Type
REMARK                         _______ _______ _______ _____ _____    ______ ____
ROOT
ATOM      1  C   UNL     1      50.171   7.553  16.028  0.00  0.00    +0.000 C 
ENDROOT
BRANCH   1   2
ATOM      2  C   UNL     1      49.295   7.261  14.839  0.00  0.00    +0.000 A 
ATOM      3  C   UNL     1      49.532   7.905  13.619  0.00  0.00    +0.000 A 
ATOM      4  C   UNL     1      48.730   7.637  12.508  0.00  0.00    +0.000 A 
ATOM      5  C   UNL     1      47.682   6.707  12.581  0.00  0.00    +0.000 A 
ATOM      6  C   UNL     1      47.423   6.093  13.815  0.00  0.00    +0.000 A 
ATOM      7  C   UNL     1      48.221   6.368  14.932  0.00  0.00    +0.000 A 
BRANCH   5   8
ATOM      8  C   UNL     1      46.802   6.405  11.383  0.00  0.00    +0.000 C 
BRANCH   8   9
ATOM      9  N   UNL     1      45.893   5.291  11.646  0.00  0.00    +0.000 NA
ATOM     10  H   UNL     1      45.712   5.241  12.648  0.00  0.00    +0.000 HD
BRANCH   9  11
ATOM     11  C   UNL     1      44.634   5.389  10.915  0.00  0.00    +0.000 C 
BRANCH  11  12
ATOM     12  C   UNL     1      44.626   4.366   9.759  0.00  0.00    +0.000 C 
ATOM     13  C   UNL     1      44.760   2.922  10.278  0.00  0.00    +0.000 C 
ATOM     14  C   UNL     1      44.800   1.909   9.138  0.00  0.00    +0.000 C 
ATOM     15  C   UNL     1      45.913   2.230   8.148  0.00  0.00    +0.000 C 
ATOM     16  C   UNL     1      45.785   3.652   7.615  0.00  0.00    +0.000 C 
ATOM     17  C   UNL     1      45.741   4.679   8.746  0.00  0.00    +0.000 C 
ENDBRANCH  11  12
ENDBRANCH   9  11
ENDBRANCH   8   9
ENDBRANCH   5   8
ENDBRANCH   1   2
BRANCH   1  20
ATOM     18  O   UNL     1      50.394   6.253  18.501  0.00  0.00    +0.000 OA
ATOM     19  C   UNL     1      51.071   5.857  17.562  0.00  0.00    +0.000 C 
ATOM     20  N   UNL     1      51.059   6.454  16.321  0.00  0.00    +0.000 N 
ATOM     21  H   UNL     1      51.511   5.985  15.549  0.00  0.00    +0.000 HD
BRANCH  19  22
ATOM     22  C   UNL     1      51.993   4.732  17.689  0.00  0.00    +0.000 A 
ATOM     23  C   UNL     1      53.349   4.840  17.980  0.00  0.00    +0.000 A 
ATOM     24  N   UNL     1      53.856   3.581  18.158  0.00  0.00    +0.000 N 
ATOM     25  C   UNL     1      52.870   2.659  17.961  0.00  0.00    +0.000 A 
ATOM     26  N   UNL     1      53.052   1.334  18.068  0.00  0.00    +0.000 NA
ATOM     27  C   UNL     1      51.927   0.649  17.806  0.00  0.00    +0.000 A 
ATOM     28  N   UNL     1      50.733   1.140  17.443  0.00  0.00    +0.000 NA
ATOM     29  C   UNL     1      50.623   2.478  17.362  0.00  0.00    +0.000 A 
ATOM     30 CL   UNL     1      49.153   3.085  16.780  0.00  0.00    +0.000 Cl
ATOM     31  C   UNL     1      51.696   3.325  17.634  0.00  0.00    +0.000 A 
ATOM     32  H   UNL     1      54.803   3.342  18.416  0.00  0.00    +0.000 HD
ENDBRANCH  19  22
ENDBRANCH   1  20
TORSDOF 7
ENDMDL
MODEL 9
REMARK VINA RESULT:    -6.152      4.788      8.544
REMARK INTER + INTRA:          -9.740
REMARK INTER:                  -8.648
REMARK INTRA:                  -1.093
REMARK UNBOUND:                -1.072
REMARK  Name = 
REMARK  7 active torsions:
REMARK  status: ('A' for Active; 'I' for Inactive)
REMARK    1  A    between atoms: C_2  and  C_20
REMARK    2  A    between atoms: N_3  and  C_4
REMARK    3  A    between atoms: C_4  and  C_5
REMARK    4  A    between atoms: C_8  and  C_9
REMARK    5  A    between atoms: C_9  and  N_10
REMARK    6  A    between atoms: N_10  and  C_11
REMARK    7  A    between atoms: C_11  and  C_12
REMARK                            x       y       z     vdW  Elec       q    Type
REMARK                         _______ _______ _______ _____ _____    ______ ____
ROOT
ATOM      1  C   UNL     1      45.968   7.951  12.967  0.00  0.00    +0.000 C 
ENDROOT
BRANCH   1   2
ATOM      2  C   UNL     1      47.466   8.090  12.911  0.00  0.00    +0.000 A 
ATOM      3  C   UNL     1      48.163   8.616  14.005  0.00  0.00    +0.000 A 
ATOM      4  C   UNL     1      49.553   8.744  13.966  0.00  0.00    +0.000 A 
ATOM      5  C   UNL     1      50.285   8.335  12.841  0.00  0.00    +0.000 A 
ATOM      6  C   UNL     1      49.579   7.846  11.732  0.00  0.00    +0.000 A 
ATOM      7  C   UNL     1      48.185   7.725  11.766  0.00  0.00    +0.000 A 
BRANCH   5   8
ATOM      8  C   UNL     1      51.794   8.469  12.783  0.00  0.00    +0.000 C 
BRANCH   8   9
ATOM      9  N   UNL     1      52.360   7.726  11.659  0.00  0.00    +0.000 NA
ATOM     10  H   UNL     1      51.618   7.513  10.995  0.00  0.00    +0.000 HD
BRANCH   9  11
ATOM     11  C   UNL     1      53.444   8.435  10.987  0.00  0.00    +0.000 C 
BRANCH  11  12
ATOM     12  C   UNL     1      53.582   7.917   9.540  0.00  0.00    +0.000 C 
ATOM     13  C   UNL     1      53.821   9.070   8.545  0.00  0.00    +0.000 C 
ATOM     14  C   UNL     1      53.911   8.570   7.106  0.00  0.00    +0.000 C 
ATOM     15  C   UNL     1      52.673   7.771   6.717  0.00  0.00    +0.000 C 
ATOM     16  C   UNL     1      52.432   6.618   7.685  0.00  0.00    +0.000 C 
ATOM     17  C   UNL     1      52.342   7.103   9.131  0.00  0.00    +0.000 C 
ENDBRANCH  11  12
ENDBRANCH   9  11
ENDBRANCH   8   9
ENDBRANCH   5   8
ENDBRANCH   1   2
BRANCH   1  20
ATOM     18  O   UNL     1      43.807   7.231  11.335  0.00  0.00    +0.000 OA
ATOM     19  C   UNL     1      44.489   6.348  11.836  0.00  0.00    +0.000 C 
ATOM     20  N   UNL     1      45.546   6.601  12.681  0.00  0.00    +0.000 N 
ATOM     21  H   UNL     1      46.165   5.843  12.929  0.00  0.00    +0.000 HD
BRANCH  19  22
ATOM     22  C   UNL     1      44.211   4.931  11.613  0.00  0.00    +0.000 A 
ATOM     23  C   UNL     1      43.458   4.123  12.458  0.00  0.00    +0.000 A 
ATOM     24  N   UNL     1      43.296   2.903  11.861  0.00  0.00    +0.000 N 
ATOM     25  C   UNL     1      43.948   2.890  10.663  0.00  0.00    +0.000 A 
ATOM     26  N   UNL     1      43.971   1.834   9.834  0.00  0.00    +0.000 NA
ATOM     27  C   UNL     1      44.699   2.076   8.732  0.00  0.00    +0.000 A 
ATOM     28  N   UNL     1      45.379   3.191   8.426  0.00  0.00    +0.000 NA
ATOM     29  C   UNL     1      45.304   4.210   9.300  0.00  0.00    +0.000 A 
ATOM     30 CL   UNL     1      46.266   5.565   8.972  0.00  0.00    +0.000 Cl
ATOM     31  C   UNL     1      44.562   4.121  10.477  0.00  0.00    +0.000 A 
ATOM     32  H   UNL     1      42.762   2.122  12.217  0.00  0.00    +0.000 HD
ENDBRANCH  19  22
ENDBRANCH   1  20
TORSDOF 7
ENDMDL
