MODEL 1
REMARK VINA RESULT:    -7.076      0.000      0.000
REMARK INTER + INTRA:         -12.156
REMARK INTER:                 -10.799
REMARK INTRA:                  -1.357
REMARK UNBOUND:                -1.357
REMARK  Name = 
REMARK  11 active torsions:
REMARK  status: ('A' for Active; 'I' for Inactive)
REMARK    1  A    between atoms: C_1  and  O_2
REMARK    2  A    between atoms: O_2  and  C_3
REMARK    3  A    between atoms: C_8  and  C_9
REMARK    4  A    between atoms: C_9  and  C_10
REMARK    5  A    between atoms: C_10  and  O_11
REMARK    6  A    between atoms: O_11  and  C_12
REMARK    7  A    between atoms: C_15  and  C_16
REMARK    8  A    between atoms: C_16  and  N_17
REMARK    9  A    between atoms: C_18  and  C_20
REMARK   10  A    between atoms: C_27  and  O_28
REMARK   11  A    between atoms: O_28  and  C_29
REMARK                            x       y       z     vdW  Elec       q    Type
REMARK                         _______ _______ _______ _____ _____    ______ ____
ROOT
ATOM      1  C   UNL     1      45.298   4.186  12.701  0.00  0.00    +0.000 A 
ATOM      2  C   UNL     1      46.459   3.970  13.446  0.00  0.00    +0.000 A 
ATOM      3  C   UNL     1      47.311   5.030  13.758  0.00  0.00    +0.000 A 
ATOM      4  C   UNL     1      47.017   6.332  13.343  0.00  0.00    +0.000 A 
ATOM      5  C   UNL     1      45.866   6.546  12.572  0.00  0.00    +0.000 A 
ATOM      6  C   UNL     1      45.010   5.478  12.259  0.00  0.00    +0.000 A 
ENDROOT
BRANCH   1   7
ATOM      7  O   UNL     1      44.389   3.210  12.364  0.00  0.00    +0.000 OA
BRANCH   7   8
ATOM      8  C   UNL     1      43.740   3.390  11.098  0.00  0.00    +0.000 C 
BRANCH   8   9
ATOM      9  C   UNL     1      44.175   2.322  10.097  0.00  0.00    +0.000 C 
BRANCH   9  15
ATOM     10  C   UNL     1      45.920   2.127   8.258  0.00  0.00    +0.000 A 
ATOM     11  C   UNL     1      46.736   2.826   7.384  0.00  0.00    +0.000 A 
ATOM     12  N   UNL     1      46.824   4.171   7.333  0.00  0.00    +0.000 NA
ATOM     13  C   UNL     1      46.039   4.830   8.193  0.00  0.00    +0.000 A 
ATOM     14  N   UNL     1      45.185   4.273   9.064  0.00  0.00    +0.000 NA
ATOM     15  C   UNL     1      45.118   2.916   9.079  0.00  0.00    +0.000 A 
BRANCH  10  17
ATOM     16  C   UNL     1      46.778   0.029   7.585  0.00  0.00    +0.000 C 
ATOM     17  O   UNL     1      45.842   0.770   8.367  0.00  0.00    +0.000 OA
ENDBRANCH  10  17
ENDBRANCH   9  15
ENDBRANCH   8   9
ENDBRANCH   7   8
ENDBRANCH   1   7
BRANCH   4  18
ATOM     18  C   UNL     1      47.937   7.455  13.735  0.00  0.00    +0.000 C 
BRANCH  18  19
ATOM     19  N   UNL     1      47.966   7.658  15.160  0.00  0.00    +0.000 N 
ATOM     20  C   UNL     1      49.019   7.200  15.910  0.00  0.00    +0.000 C 
ATOM     21  O   UNL     1      49.993   6.669  15.381  0.00  0.00    +0.000 OA
ATOM     22  H   UNL     1      47.264   8.254  15.578  0.00  0.00    +0.000 HD
BRANCH  20  23
ATOM     23  C   UNL     1      48.894   7.276  17.371  0.00  0.00    +0.000 A 
ATOM     24  C   UNL     1      49.080   8.502  17.999  0.00  0.00    +0.000 A 
ATOM     25  S   UNL     1      49.235   8.379  19.688  0.00  0.00    +0.000 S 
ATOM     26  C   UNL     1      48.988   6.699  19.633  0.00  0.00    +0.000 A 
ATOM     27  N   UNL     1      49.084   5.972  20.758  0.00  0.00    +0.000 NA
ATOM     28  C   UNL     1      48.810   4.684  20.560  0.00  0.00    +0.000 A 
ATOM     29  N   UNL     1      48.390   4.111  19.427  0.00  0.00    +0.000 NA
ATOM     30  C   UNL     1      48.303   4.882  18.324  0.00  0.00    +0.000 A 
ATOM     31  C   UNL     1      48.679   6.234  18.361  0.00  0.00    +0.000 A 
BRANCH  30  32
ATOM     32  O   UNL     1      47.788   4.338  17.163  0.00  0.00    +0.000 OA
ATOM     33  C   UNL     1      48.446   3.140  16.756  0.00  0.00    +0.000 C 
ENDBRANCH  30  32
ENDBRANCH  20  23
ENDBRANCH  18  19
ENDBRANCH   4  18
TORSDOF 9
ENDMDL
MODEL 2
REMARK VINA RESULT:    -6.960      3.382      8.286
REMARK INTER + INTRA:         -11.979
REMARK INTER:                 -10.360
REMARK INTRA:                  -1.618
REMARK UNBOUND:                -1.357
REMARK  Name = 
REMARK  11 active torsions:
REMARK  status: ('A' for Active; 'I' for Inactive)
REMARK    1  A    between atoms: C_1  and  O_2
REMARK    2  A    between atoms: O_2  and  C_3
REMARK    3  A    between atoms: C_8  and  C_9
REMARK    4  A    between atoms: C_9  and  C_10
REMARK    5  A    between atoms: C_10  and  O_11
REMARK    6  A    between atoms: O_11  and  C_12
REMARK    7  A    between atoms: C_15  and  C_16
REMARK    8  A    between atoms: C_16  and  N_17
REMARK    9  A    between atoms: C_18  and  C_20
REMARK   10  A    between atoms: C_27  and  O_28
REMARK   11  A    between atoms: O_28  and  C_29
REMARK                            x       y       z     vdW  Elec       q    Type
REMARK                         _______ _______ _______ _____ _____    ______ ____
ROOT
ATOM      1  C   UNL     1      49.655   7.754  15.910  0.00  0.00    +0.000 A 
ATOM      2  C   UNL     1      48.648   8.722  15.896  0.00  0.00    +0.000 A 
ATOM      3  C   UNL     1      47.927   8.982  14.731  0.00  0.00    +0.000 A 
ATOM      4  C   UNL     1      48.189   8.274  13.554  0.00  0.00    +0.000 A 
ATOM      5  C   UNL     1      49.217   7.323  13.558  0.00  0.00    +0.000 A 
ATOM      6  C   UNL     1      49.941   7.062  14.732  0.00  0.00    +0.000 A 
ENDROOT
BRANCH   1   7
ATOM      7  O   UNL     1      50.402   7.414  17.013  0.00  0.00    +0.000 OA
BRANCH   7   8
ATOM      8  C   UNL     1      51.063   6.143  16.937  0.00  0.00    +0.000 C 
BRANCH   8   9
ATOM      9  C   UNL     1      50.666   5.243  18.104  0.00  0.00    +0.000 C 
BRANCH   9  15
ATOM     10  C   UNL     1      49.257   3.376  17.108  0.00  0.00    +0.000 A 
ATOM     11  C   UNL     1      47.971   2.894  16.922  0.00  0.00    +0.000 A 
ATOM     12  N   UNL     1      46.852   3.528  17.331  0.00  0.00    +0.000 NA
ATOM     13  C   UNL     1      47.051   4.688  17.967  0.00  0.00    +0.000 A 
ATOM     14  N   UNL     1      48.242   5.244  18.236  0.00  0.00    +0.000 NA
ATOM     15  C   UNL     1      49.345   4.571  17.818  0.00  0.00    +0.000 A 
BRANCH  10  17
ATOM     16  C   UNL     1      50.848   1.654  17.416  0.00  0.00    +0.000 C 
ATOM     17  O   UNL     1      50.403   2.783  16.666  0.00  0.00    +0.000 OA
ENDBRANCH  10  17
ENDBRANCH   9  15
ENDBRANCH   8   9
ENDBRANCH   7   8
ENDBRANCH   1   7
BRANCH   4  18
ATOM     18  C   UNL     1      47.361   8.553  12.330  0.00  0.00    +0.000 C 
BRANCH  18  19
ATOM     19  N   UNL     1      47.035   7.350  11.611  0.00  0.00    +0.000 N 
ATOM     20  C   UNL     1      45.733   7.051  11.303  0.00  0.00    +0.000 C 
ATOM     21  O   UNL     1      44.821   7.832  11.568  0.00  0.00    +0.000 OA
ATOM     22  H   UNL     1      47.789   6.796  11.227  0.00  0.00    +0.000 HD
BRANCH  20  23
ATOM     23  C   UNL     1      45.457   5.724  10.737  0.00  0.00    +0.000 A 
ATOM     24  C   UNL     1      45.716   5.500   9.389  0.00  0.00    +0.000 A 
ATOM     25  S   UNL     1      45.047   4.049   8.806  0.00  0.00    +0.000 S 
ATOM     26  C   UNL     1      44.458   3.648  10.347  0.00  0.00    +0.000 A 
ATOM     27  N   UNL     1      43.707   2.547  10.511  0.00  0.00    +0.000 NA
ATOM     28  C   UNL     1      43.370   2.340  11.783  0.00  0.00    +0.000 A 
ATOM     29  N   UNL     1      43.764   3.045  12.849  0.00  0.00    +0.000 NA
ATOM     30  C   UNL     1      44.522   4.140  12.636  0.00  0.00    +0.000 A 
ATOM     31  C   UNL     1      44.851   4.545  11.333  0.00  0.00    +0.000 A 
BRANCH  30  32
ATOM     32  O   UNL     1      45.017   4.836  13.723  0.00  0.00    +0.000 OA
ATOM     33  C   UNL     1      46.400   4.591  13.973  0.00  0.00    +0.000 C 
ENDBRANCH  30  32
ENDBRANCH  20  23
ENDBRANCH  18  19
ENDBRANCH   4  18
TORSDOF 9
ENDMDL
MODEL 3
REMARK VINA RESULT:    -6.927      1.360      1.866
REMARK INTER + INTRA:         -11.928
REMARK INTER:                 -10.895
REMARK INTRA:                  -1.033
REMARK UNBOUND:                -1.357
REMARK  Name = 
REMARK  11 active torsions:
REMARK  status: ('A' for Active; 'I' for Inactive)
REMARK    1  A    between atoms: C_1  and  O_2
REMARK    2  A    between atoms: O_2  and  C_3
REMARK    3  A    between atoms: C_8  and  C_9
REMARK    4  A    between atoms: C_9  and  C_10
REMARK    5  A    between atoms: C_10  and  O_11
REMARK    6  A    between atoms: O_11  and  C_12
REMARK    7  A    between atoms: C_15  and  C_16
REMARK    8  A    between atoms: C_16  and  N_17
REMARK    9  A    between atoms: C_18  and  C_20
REMARK   10  A    between atoms: C_27  and  O_28
REMARK   11  A    between atoms: O_28  and  C_29
REMARK                            x       y       z     vdW  Elec       q    Type
REMARK                         _______ _______ _______ _____ _____    ______ ____
ROOT
ATOM      1  C   UNL     1      45.144   4.879  11.766  0.00  0.00    +0.000 A 
ATOM      2  C   UNL     1      46.102   4.651  12.756  0.00  0.00    +0.000 A 
ATOM      3  C   UNL     1      46.910   5.690  13.218  0.00  0.00    +0.000 A 
ATOM      4  C   UNL     1      46.772   6.984  12.710  0.00  0.00    +0.000 A 
ATOM      5  C   UNL     1      45.831   7.210  11.697  0.00  0.00    +0.000 A 
ATOM      6  C   UNL     1      45.019   6.164  11.233  0.00  0.00    +0.000 A 
ENDROOT
BRANCH   1   7
ATOM      7  O   UNL     1      44.290   3.925  11.264  0.00  0.00    +0.000 OA
BRANCH   7   8
ATOM      8  C   UNL     1      44.926   2.769  10.703  0.00  0.00    +0.000 C 
BRANCH   8   9
ATOM      9  C   UNL     1      44.447   2.511   9.276  0.00  0.00    +0.000 C 
BRANCH   9  15
ATOM     10  C   UNL     1      46.244   3.062   7.565  0.00  0.00    +0.000 A 
ATOM     11  C   UNL     1      47.292   2.558   6.812  0.00  0.00    +0.000 A 
ATOM     12  N   UNL     1      47.675   1.264   6.806  0.00  0.00    +0.000 NA
ATOM     13  C   UNL     1      46.974   0.456   7.609  0.00  0.00    +0.000 A 
ATOM     14  N   UNL     1      45.962   0.825   8.409  0.00  0.00    +0.000 NA
ATOM     15  C   UNL     1      45.613   2.138   8.394  0.00  0.00    +0.000 A 
BRANCH  10  17
ATOM     16  C   UNL     1      46.486   5.248   8.433  0.00  0.00    +0.000 C 
ATOM     17  O   UNL     1      45.803   4.352   7.557  0.00  0.00    +0.000 OA
ENDBRANCH  10  17
ENDBRANCH   9  15
ENDBRANCH   8   9
ENDBRANCH   7   8
ENDBRANCH   1   7
BRANCH   4  18
ATOM     18  C   UNL     1      47.632   8.087  13.264  0.00  0.00    +0.000 C 
BRANCH  18  19
ATOM     19  N   UNL     1      47.648   8.091  14.703  0.00  0.00    +0.000 N 
ATOM     20  C   UNL     1      48.765   7.694  15.390  0.00  0.00    +0.000 C 
ATOM     21  O   UNL     1      49.801   7.394  14.801  0.00  0.00    +0.000 OA
ATOM     22  H   UNL     1      46.869   8.510  15.194  0.00  0.00    +0.000 HD
BRANCH  20  23
ATOM     23  C   UNL     1      48.648   7.545  16.846  0.00  0.00    +0.000 A 
ATOM     24  C   UNL     1      48.390   8.670  17.619  0.00  0.00    +0.000 A 
ATOM     25  S   UNL     1      48.609   8.410  19.286  0.00  0.00    +0.000 S 
ATOM     26  C   UNL     1      48.986   6.775  19.027  0.00  0.00    +0.000 A 
ATOM     27  N   UNL     1      49.360   6.002  20.059  0.00  0.00    +0.000 NA
ATOM     28  C   UNL     1      49.566   4.735  19.704  0.00  0.00    +0.000 A 
ATOM     29  N   UNL     1      49.361   4.189  18.500  0.00  0.00    +0.000 NA
ATOM     30  C   UNL     1      48.981   5.003  17.495  0.00  0.00    +0.000 A 
ATOM     31  C   UNL     1      48.843   6.384  17.701  0.00  0.00    +0.000 A 
BRANCH  30  32
ATOM     32  O   UNL     1      48.676   4.452  16.264  0.00  0.00    +0.000 OA
ATOM     33  C   UNL     1      47.810   3.322  16.346  0.00  0.00    +0.000 C 
ENDBRANCH  30  32
ENDBRANCH  20  23
ENDBRANCH  18  19
ENDBRANCH   4  18
TORSDOF 9
ENDMDL
MODEL 4
REMARK VINA RESULT:    -6.780      3.675      5.141
REMARK INTER + INTRA:         -11.704
REMARK INTER:                 -10.369
REMARK INTRA:                  -1.335
REMARK UNBOUND:                -1.357
REMARK  Name = 
REMARK  11 active torsions:
REMARK  status: ('A' for Active; 'I' for Inactive)
REMARK    1  A    between atoms: C_1  and  O_2
REMARK    2  A    between atoms: O_2  and  C_3
REMARK    3  A    between atoms: C_8  and  C_9
REMARK    4  A    between atoms: C_9  and  C_10
REMARK    5  A    between atoms: C_10  and  O_11
REMARK    6  A    between atoms: O_11  and  C_12
REMARK    7  A    between atoms: C_15  and  C_16
REMARK    8  A    between atoms: C_16  and  N_17
REMARK    9  A    between atoms: C_18  and  C_20
REMARK   10  A    between atoms: C_27  and  O_28
REMARK   11  A    between atoms: O_28  and  C_29
REMARK                            x       y       z     vdW  Elec       q    Type
REMARK                         _______ _______ _______ _____ _____    ______ ____
ROOT
ATOM      1  C   UNL     1      47.624   5.953  14.409  0.00  0.00    +0.000 A 
ATOM      2  C   UNL     1      48.482   6.329  15.445  0.00  0.00    +0.000 A 
ATOM      3  C   UNL     1      48.702   5.479  16.530  0.00  0.00    +0.000 A 
ATOM      4  C   UNL     1      48.079   4.230  16.599  0.00  0.00    +0.000 A 
ATOM      5  C   UNL     1      47.197   3.863  15.574  0.00  0.00    +0.000 A 
ATOM      6  C   UNL     1      46.976   4.719  14.484  0.00  0.00    +0.000 A 
ENDROOT
BRANCH   1   7
ATOM      7  O   UNL     1      47.363   6.712  13.293  0.00  0.00    +0.000 OA
BRANCH   7   8
ATOM      8  C   UNL     1      46.005   6.677  12.833  0.00  0.00    +0.000 C 
BRANCH   8   9
ATOM      9  C   UNL     1      45.931   6.316  11.351  0.00  0.00    +0.000 C 
BRANCH   9  15
ATOM     10  C   UNL     1      44.992   4.425   9.936  0.00  0.00    +0.000 A 
ATOM     11  C   UNL     1      44.147   3.327   9.918  0.00  0.00    +0.000 A 
ATOM     12  N   UNL     1      43.389   2.930  10.961  0.00  0.00    +0.000 NA
ATOM     13  C   UNL     1      43.509   3.669  12.070  0.00  0.00    +0.000 A 
ATOM     14  N   UNL     1      44.313   4.732  12.224  0.00  0.00    +0.000 NA
ATOM     15  C   UNL     1      45.067   5.094  11.155  0.00  0.00    +0.000 A 
BRANCH  10  17
ATOM     16  C   UNL     1      45.908   3.963   7.805  0.00  0.00    +0.000 C 
ATOM     17  O   UNL     1      45.734   4.878   8.886  0.00  0.00    +0.000 OA
ENDBRANCH  10  17
ENDBRANCH   9  15
ENDBRANCH   8   9
ENDBRANCH   7   8
ENDBRANCH   1   7
BRANCH   4  18
ATOM     18  C   UNL     1      48.375   3.324  17.762  0.00  0.00    +0.000 C 
BRANCH  18  19
ATOM     19  N   UNL     1      49.789   3.133  17.954  0.00  0.00    +0.000 N 
ATOM     20  C   UNL     1      50.488   2.253  17.168  0.00  0.00    +0.000 C 
ATOM     21  O   UNL     1      49.944   1.661  16.238  0.00  0.00    +0.000 OA
ATOM     22  H   UNL     1      50.278   3.749  18.589  0.00  0.00    +0.000 HD
BRANCH  20  23
ATOM     23  C   UNL     1      51.880   1.971  17.540  0.00  0.00    +0.000 A 
ATOM     24  C   UNL     1      52.339   0.660  17.479  0.00  0.00    +0.000 A 
ATOM     25  S   UNL     1      53.842   0.436  18.244  0.00  0.00    +0.000 S 
ATOM     26  C   UNL     1      53.952   2.090  18.614  0.00  0.00    +0.000 A 
ATOM     27  N   UNL     1      54.979   2.545  19.349  0.00  0.00    +0.000 NA
ATOM     28  C   UNL     1      54.953   3.867  19.505  0.00  0.00    +0.000 A 
ATOM     29  N   UNL     1      54.092   4.730  18.953  0.00  0.00    +0.000 NA
ATOM     30  C   UNL     1      53.080   4.227  18.218  0.00  0.00    +0.000 A 
ATOM     31  C   UNL     1      52.916   2.841  18.071  0.00  0.00    +0.000 A 
BRANCH  30  32
ATOM     32  O   UNL     1      52.228   5.098  17.564  0.00  0.00    +0.000 OA
ATOM     33  C   UNL     1      51.929   6.273  18.316  0.00  0.00    +0.000 C 
ENDBRANCH  30  32
ENDBRANCH  20  23
ENDBRANCH  18  19
ENDBRANCH   4  18
TORSDOF 9
ENDMDL
MODEL 5
REMARK VINA RESULT:    -6.702      2.740      3.671
REMARK INTER + INTRA:         -11.586
REMARK INTER:                 -10.376
REMARK INTRA:                  -1.210
REMARK UNBOUND:                -1.357
REMARK  Name = 
REMARK  11 active torsions:
REMARK  status: ('A' for Active; 'I' for Inactive)
REMARK    1  A    between atoms: C_1  and  O_2
REMARK    2  A    between atoms: O_2  and  C_3
REMARK    3  A    between atoms: C_8  and  C_9
REMARK    4  A    between atoms: C_9  and  C_10
REMARK    5  A    between atoms: C_10  and  O_11
REMARK    6  A    between atoms: O_11  and  C_12
REMARK    7  A    between atoms: C_15  and  C_16
REMARK    8  A    between atoms: C_16  and  N_17
REMARK    9  A    between atoms: C_18  and  C_20
REMARK   10  A    between atoms: C_27  and  O_28
REMARK   11  A    between atoms: O_28  and  C_29
REMARK                            x       y       z     vdW  Elec       q    Type
REMARK                         _______ _______ _______ _____ _____    ______ ____
ROOT
ATOM      1  C   UNL     1      47.011   5.823  12.875  0.00  0.00    +0.000 A 
ATOM      2  C   UNL     1      47.893   6.888  12.683  0.00  0.00    +0.000 A 
ATOM      3  C   UNL     1      48.756   7.289  13.704  0.00  0.00    +0.000 A 
ATOM      4  C   UNL     1      48.765   6.629  14.935  0.00  0.00    +0.000 A 
ATOM      5  C   UNL     1      47.862   5.577  15.139  0.00  0.00    +0.000 A 
ATOM      6  C   UNL     1      46.995   5.175  14.111  0.00  0.00    +0.000 A 
ENDROOT
BRANCH   1   7
ATOM      7  O   UNL     1      46.142   5.343  11.924  0.00  0.00    +0.000 OA
BRANCH   7   8
ATOM      8  C   UNL     1      45.360   6.339  11.251  0.00  0.00    +0.000 C 
BRANCH   8   9
ATOM      9  C   UNL     1      44.171   5.713  10.525  0.00  0.00    +0.000 C 
BRANCH   9  15
ATOM     10  C   UNL     1      44.162   3.247   9.908  0.00  0.00    +0.000 A 
ATOM     11  C   UNL     1      44.686   2.283   9.062  0.00  0.00    +0.000 A 
ATOM     12  N   UNL     1      45.624   2.521   8.121  0.00  0.00    +0.000 NA
ATOM     13  C   UNL     1      46.031   3.793   8.026  0.00  0.00    +0.000 A 
ATOM     14  N   UNL     1      45.579   4.820   8.762  0.00  0.00    +0.000 NA
ATOM     15  C   UNL     1      44.629   4.542   9.691  0.00  0.00    +0.000 A 
BRANCH  10  17
ATOM     16  C   UNL     1      43.787   2.705  12.178  0.00  0.00    +0.000 C 
ATOM     17  O   UNL     1      43.250   3.031  10.898  0.00  0.00    +0.000 OA
ENDBRANCH  10  17
ENDBRANCH   9  15
ENDBRANCH   8   9
ENDBRANCH   7   8
ENDBRANCH   1   7
BRANCH   4  18
ATOM     18  C   UNL     1      49.740   7.063  15.995  0.00  0.00    +0.000 C 
BRANCH  18  19
ATOM     19  N   UNL     1      50.329   5.943  16.681  0.00  0.00    +0.000 N 
ATOM     20  C   UNL     1      50.814   6.081  17.956  0.00  0.00    +0.000 C 
ATOM     21  O   UNL     1      50.696   7.139  18.570  0.00  0.00    +0.000 OA
ATOM     22  H   UNL     1      50.262   5.027  16.257  0.00  0.00    +0.000 HD
BRANCH  20  23
ATOM     23  C   UNL     1      51.565   4.953  18.521  0.00  0.00    +0.000 A 
ATOM     24  C   UNL     1      52.528   5.205  19.492  0.00  0.00    +0.000 A 
ATOM     25  S   UNL     1      53.534   3.870  19.807  0.00  0.00    +0.000 S 
ATOM     26  C   UNL     1      52.669   2.903  18.712  0.00  0.00    +0.000 A 
ATOM     27  N   UNL     1      53.083   1.651  18.453  0.00  0.00    +0.000 NA
ATOM     28  C   UNL     1      52.270   1.004  17.619  0.00  0.00    +0.000 A 
ATOM     29  N   UNL     1      51.108   1.441  17.121  0.00  0.00    +0.000 NA
ATOM     30  C   UNL     1      50.731   2.703  17.413  0.00  0.00    +0.000 A 
ATOM     31  C   UNL     1      51.553   3.539  18.183  0.00  0.00    +0.000 A 
BRANCH  30  32
ATOM     32  O   UNL     1      49.494   3.149  16.986  0.00  0.00    +0.000 OA
ATOM     33  C   UNL     1      48.476   3.039  17.978  0.00  0.00    +0.000 C 
ENDBRANCH  30  32
ENDBRANCH  20  23
ENDBRANCH  18  19
ENDBRANCH   4  18
TORSDOF 9
ENDMDL
MODEL 6
REMARK VINA RESULT:    -6.470      5.114      9.677
REMARK INTER + INTRA:         -11.232
REMARK INTER:                 -10.240
REMARK INTRA:                  -0.991
REMARK UNBOUND:                -1.357
REMARK  Name = 
REMARK  11 active torsions:
REMARK  status: ('A' for Active; 'I' for Inactive)
REMARK    1  A    between atoms: C_1  and  O_2
REMARK    2  A    between atoms: O_2  and  C_3
REMARK    3  A    between atoms: C_8  and  C_9
REMARK    4  A    between atoms: C_9  and  C_10
REMARK    5  A    between atoms: C_10  and  O_11
REMARK    6  A    between atoms: O_11  and  C_12
REMARK    7  A    between atoms: C_15  and  C_16
REMARK    8  A    between atoms: C_16  and  N_17
REMARK    9  A    between atoms: C_18  and  C_20
REMARK   10  A    between atoms: C_27  and  O_28
REMARK   11  A    between atoms: O_28  and  C_29
REMARK                            x       y       z     vdW  Elec       q    Type
REMARK                         _______ _______ _______ _____ _____    ______ ____
ROOT
ATOM      1  C   UNL     1      51.677   3.037  17.787  0.00  0.00    +0.000 A 
ATOM      2  C   UNL     1      50.925   2.003  17.225  0.00  0.00    +0.000 A 
ATOM      3  C   UNL     1      49.545   2.132  17.067  0.00  0.00    +0.000 A 
ATOM      4  C   UNL     1      48.886   3.301  17.455  0.00  0.00    +0.000 A 
ATOM      5  C   UNL     1      49.634   4.329  18.044  0.00  0.00    +0.000 A 
ATOM      6  C   UNL     1      51.023   4.198  18.203  0.00  0.00    +0.000 A 
ENDROOT
BRANCH   1   7
ATOM      7  O   UNL     1      53.041   3.010  17.962  0.00  0.00    +0.000 OA
BRANCH   7   8
ATOM      8  C   UNL     1      53.706   1.863  17.415  0.00  0.00    +0.000 C 
BRANCH   8   9
ATOM      9  C   UNL     1      54.249   0.960  18.520  0.00  0.00    +0.000 C 
BRANCH   9  15
ATOM     10  C   UNL     1      54.480  -1.556  18.802  0.00  0.00    +0.000 A 
ATOM     11  C   UNL     1      54.729  -2.757  18.157  0.00  0.00    +0.000 A 
ATOM     12  N   UNL     1      55.023  -2.872  16.845  0.00  0.00    +0.000 NA
ATOM     13  C   UNL     1      55.046  -1.722  16.160  0.00  0.00    +0.000 A 
ATOM     14  N   UNL     1      54.793  -0.503  16.661  0.00  0.00    +0.000 NA
ATOM     15  C   UNL     1      54.492  -0.430  17.983  0.00  0.00    +0.000 A 
BRANCH  10  17
ATOM     16  C   UNL     1      55.112  -2.089  21.018  0.00  0.00    +0.000 C 
ATOM     17  O   UNL     1      54.228  -1.403  20.133  0.00  0.00    +0.000 OA
ENDBRANCH  10  17
ENDBRANCH   9  15
ENDBRANCH   8   9
ENDBRANCH   7   8
ENDBRANCH   1   7
BRANCH   4  18
ATOM     18  C   UNL     1      47.404   3.420  17.229  0.00  0.00    +0.000 C 
BRANCH  18  19
ATOM     19  N   UNL     1      47.084   4.425  16.250  0.00  0.00    +0.000 N 
ATOM     20  C   UNL     1      47.140   4.140  14.910  0.00  0.00    +0.000 C 
ATOM     21  O   UNL     1      47.394   3.005  14.512  0.00  0.00    +0.000 OA
ATOM     22  H   UNL     1      46.695   5.303  16.568  0.00  0.00    +0.000 HD
BRANCH  20  23
ATOM     23  C   UNL     1      46.984   5.258  13.971  0.00  0.00    +0.000 A 
ATOM     24  C   UNL     1      47.913   6.291  13.996  0.00  0.00    +0.000 A 
ATOM     25  S   UNL     1      47.429   7.656  13.102  0.00  0.00    +0.000 S 
ATOM     26  C   UNL     1      46.004   6.879  12.602  0.00  0.00    +0.000 A 
ATOM     27  N   UNL     1      45.097   7.548  11.872  0.00  0.00    +0.000 NA
ATOM     28  C   UNL     1      44.065   6.787  11.513  0.00  0.00    +0.000 A 
ATOM     29  N   UNL     1      43.911   5.477  11.733  0.00  0.00    +0.000 NA
ATOM     30  C   UNL     1      44.850   4.845  12.466  0.00  0.00    +0.000 A 
ATOM     31  C   UNL     1      45.932   5.552  13.012  0.00  0.00    +0.000 A 
BRANCH  30  32
ATOM     32  O   UNL     1      44.763   3.476  12.633  0.00  0.00    +0.000 OA
ATOM     33  C   UNL     1      43.569   2.912  12.093  0.00  0.00    +0.000 C 
ENDBRANCH  30  32
ENDBRANCH  20  23
ENDBRANCH  18  19
ENDBRANCH   4  18
TORSDOF 9
ENDMDL
MODEL 7
REMARK VINA RESULT:    -6.191      1.609      2.097
REMARK INTER + INTRA:         -10.805
REMARK INTER:                  -9.536
REMARK INTRA:                  -1.270
REMARK UNBOUND:                -1.357
REMARK  Name = 
REMARK  11 active torsions:
REMARK  status: ('A' for Active; 'I' for Inactive)
REMARK    1  A    between atoms: C_1  and  O_2
REMARK    2  A    between atoms: O_2  and  C_3
REMARK    3  A    between atoms: C_8  and  C_9
REMARK    4  A    between atoms: C_9  and  C_10
REMARK    5  A    between atoms: C_10  and  O_11
REMARK    6  A    between atoms: O_11  and  C_12
REMARK    7  A    between atoms: C_15  and  C_16
REMARK    8  A    between atoms: C_16  and  N_17
REMARK    9  A    between atoms: C_18  and  C_20
REMARK   10  A    between atoms: C_27  and  O_28
REMARK   11  A    between atoms: O_28  and  C_29
REMARK                            x       y       z     vdW  Elec       q    Type
REMARK                         _______ _______ _______ _____ _____    ______ ____
ROOT
ATOM      1  C   UNL     1      44.780   4.997  11.762  0.00  0.00    +0.000 A 
ATOM      2  C   UNL     1      45.386   4.450  12.895  0.00  0.00    +0.000 A 
ATOM      3  C   UNL     1      46.491   5.068  13.480  0.00  0.00    +0.000 A 
ATOM      4  C   UNL     1      47.010   6.254  12.953  0.00  0.00    +0.000 A 
ATOM      5  C   UNL     1      46.421   6.790  11.801  0.00  0.00    +0.000 A 
ATOM      6  C   UNL     1      45.309   6.167  11.213  0.00  0.00    +0.000 A 
ENDROOT
BRANCH   1   7
ATOM      7  O   UNL     1      43.677   4.473  11.131  0.00  0.00    +0.000 OA
BRANCH   7   8
ATOM      8  C   UNL     1      43.877   4.095   9.762  0.00  0.00    +0.000 C 
BRANCH   8   9
ATOM      9  C   UNL     1      44.730   2.833   9.655  0.00  0.00    +0.000 C 
BRANCH   9  15
ATOM     10  C   UNL     1      46.310   1.849   7.924  0.00  0.00    +0.000 A 
ATOM     11  C   UNL     1      47.186   2.134   6.889  0.00  0.00    +0.000 A 
ATOM     12  N   UNL     1      47.504   3.380   6.479  0.00  0.00    +0.000 NA
ATOM     13  C   UNL     1      46.894   4.373   7.137  0.00  0.00    +0.000 A 
ATOM     14  N   UNL     1      46.005   4.227   8.132  0.00  0.00    +0.000 NA
ATOM     15  C   UNL     1      45.704   2.958   8.509  0.00  0.00    +0.000 A 
BRANCH  10  17
ATOM     16  C   UNL     1      46.565  -0.488   7.666  0.00  0.00    +0.000 C 
ATOM     17  O   UNL     1      46.005   0.605   8.392  0.00  0.00    +0.000 OA
ENDBRANCH  10  17
ENDBRANCH   9  15
ENDBRANCH   8   9
ENDBRANCH   7   8
ENDBRANCH   1   7
BRANCH   4  18
ATOM     18  C   UNL     1      48.176   6.914  13.637  0.00  0.00    +0.000 C 
BRANCH  18  19
ATOM     19  N   UNL     1      48.471   6.310  14.910  0.00  0.00    +0.000 N 
ATOM     20  C   UNL     1      48.876   7.077  15.971  0.00  0.00    +0.000 C 
ATOM     21  O   UNL     1      48.929   8.302  15.886  0.00  0.00    +0.000 OA
ATOM     22  H   UNL     1      48.252   5.331  15.043  0.00  0.00    +0.000 HD
BRANCH  20  23
ATOM     23  C   UNL     1      49.337   6.378  17.177  0.00  0.00    +0.000 A 
ATOM     24  C   UNL     1      50.452   5.553  17.091  0.00  0.00    +0.000 A 
ATOM     25  S   UNL     1      50.668   4.565  18.459  0.00  0.00    +0.000 S 
ATOM     26  C   UNL     1      49.323   5.260  19.229  0.00  0.00    +0.000 A 
ATOM     27  N   UNL     1      48.914   4.788  20.418  0.00  0.00    +0.000 NA
ATOM     28  C   UNL     1      47.886   5.471  20.915  0.00  0.00    +0.000 A 
ATOM     29  N   UNL     1      47.321   6.570  20.402  0.00  0.00    +0.000 NA
ATOM     30  C   UNL     1      47.768   7.011  19.209  0.00  0.00    +0.000 A 
ATOM     31  C   UNL     1      48.768   6.314  18.513  0.00  0.00    +0.000 A 
BRANCH  30  32
ATOM     32  O   UNL     1      47.265   8.193  18.698  0.00  0.00    +0.000 OA
ATOM     33  C   UNL     1      47.861   9.357  19.267  0.00  0.00    +0.000 C 
ENDBRANCH  30  32
ENDBRANCH  20  23
ENDBRANCH  18  19
ENDBRANCH   4  18
TORSDOF 9
ENDMDL
MODEL 8
REMARK VINA RESULT:    -6.078      3.279      8.854
REMARK INTER + INTRA:         -10.633
REMARK INTER:                  -8.901
REMARK INTRA:                  -1.733
REMARK UNBOUND:                -1.357
REMARK  Name = 
REMARK  11 active torsions:
REMARK  status: ('A' for Active; 'I' for Inactive)
REMARK    1  A    between atoms: C_1  and  O_2
REMARK    2  A    between atoms: O_2  and  C_3
REMARK    3  A    between atoms: C_8  and  C_9
REMARK    4  A    between atoms: C_9  and  C_10
REMARK    5  A    between atoms: C_10  and  O_11
REMARK    6  A    between atoms: O_11  and  C_12
REMARK    7  A    between atoms: C_15  and  C_16
REMARK    8  A    between atoms: C_16  and  N_17
REMARK    9  A    between atoms: C_18  and  C_20
REMARK   10  A    between atoms: C_27  and  O_28
REMARK   11  A    between atoms: O_28  and  C_29
REMARK                            x       y       z     vdW  Elec       q    Type
REMARK                         _______ _______ _______ _____ _____    ______ ____
ROOT
ATOM      1  C   UNL     1      50.466   5.180  19.400  0.00  0.00    +0.000 A 
ATOM      2  C   UNL     1      50.685   4.362  18.290  0.00  0.00    +0.000 A 
ATOM      3  C   UNL     1      49.612   3.832  17.573  0.00  0.00    +0.000 A 
ATOM      4  C   UNL     1      48.294   4.116  17.942  0.00  0.00    +0.000 A 
ATOM      5  C   UNL     1      48.072   4.914  19.072  0.00  0.00    +0.000 A 
ATOM      6  C   UNL     1      49.153   5.447  19.792  0.00  0.00    +0.000 A 
ENDROOT
BRANCH   1   7
ATOM      7  O   UNL     1      51.457   5.763  20.153  0.00  0.00    +0.000 OA
BRANCH   7   8
ATOM      8  C   UNL     1      52.392   6.566  19.419  0.00  0.00    +0.000 C 
BRANCH   8   9
ATOM      9  C   UNL     1      51.819   7.950  19.122  0.00  0.00    +0.000 C 
BRANCH   9  15
ATOM     10  C   UNL     1      50.050   8.524  17.389  0.00  0.00    +0.000 A 
ATOM     11  C   UNL     1      49.724   8.498  16.043  0.00  0.00    +0.000 A 
ATOM     12  N   UNL     1      50.505   7.968  15.078  0.00  0.00    +0.000 NA
ATOM     13  C   UNL     1      51.671   7.462  15.498  0.00  0.00    +0.000 A 
ATOM     14  N   UNL     1      52.115   7.457  16.764  0.00  0.00    +0.000 NA
ATOM     15  C   UNL     1      51.304   8.007  17.704  0.00  0.00    +0.000 A 
BRANCH  10  17
ATOM     16  C   UNL     1      47.865   8.761  18.261  0.00  0.00    +0.000 C 
ATOM     17  O   UNL     1      49.264   9.009  18.392  0.00  0.00    +0.000 OA
ENDBRANCH  10  17
ENDBRANCH   9  15
ENDBRANCH   8   9
ENDBRANCH   7   8
ENDBRANCH   1   7
BRANCH   4  18
ATOM     18  C   UNL     1      47.164   3.562  17.119  0.00  0.00    +0.000 C 
BRANCH  18  19
ATOM     19  N   UNL     1      46.781   4.453  16.055  0.00  0.00    +0.000 N 
ATOM     20  C   UNL     1      47.032   4.128  14.747  0.00  0.00    +0.000 C 
ATOM     21  O   UNL     1      47.524   3.043  14.444  0.00  0.00    +0.000 OA
ATOM     22  H   UNL     1      46.212   5.258  16.280  0.00  0.00    +0.000 HD
BRANCH  20  23
ATOM     23  C   UNL     1      46.786   5.161  13.733  0.00  0.00    +0.000 A 
ATOM     24  C   UNL     1      47.690   6.208  13.605  0.00  0.00    +0.000 A 
ATOM     25  S   UNL     1      47.114   7.484  12.638  0.00  0.00    +0.000 S 
ATOM     26  C   UNL     1      45.675   6.644  12.309  0.00  0.00    +0.000 A 
ATOM     27  N   UNL     1      44.704   7.235  11.593  0.00  0.00    +0.000 NA
ATOM     28  C   UNL     1      43.667   6.430  11.373  0.00  0.00    +0.000 A 
ATOM     29  N   UNL     1      43.558   5.140  11.711  0.00  0.00    +0.000 NA
ATOM     30  C   UNL     1      44.560   4.588  12.424  0.00  0.00    +0.000 A 
ATOM     31  C   UNL     1      45.662   5.356  12.830  0.00  0.00    +0.000 A 
BRANCH  30  32
ATOM     32  O   UNL     1      44.516   3.236  12.710  0.00  0.00    +0.000 OA
ATOM     33  C   UNL     1      43.427   2.559  12.085  0.00  0.00    +0.000 C 
ENDBRANCH  30  32
ENDBRANCH  20  23
ENDBRANCH  18  19
ENDBRANCH   4  18
TORSDOF 9
ENDMDL
MODEL 9
REMARK VINA RESULT:    -5.986      3.818      8.166
REMARK INTER + INTRA:         -10.493
REMARK INTER:                  -8.608
REMARK INTRA:                  -1.885
REMARK UNBOUND:                -1.357
REMARK  Name = 
REMARK  11 active torsions:
REMARK  status: ('A' for Active; 'I' for Inactive)
REMARK    1  A    between atoms: C_1  and  O_2
REMARK    2  A    between atoms: O_2  and  C_3
REMARK    3  A    between atoms: C_8  and  C_9
REMARK    4  A    between atoms: C_9  and  C_10
REMARK    5  A    between atoms: C_10  and  O_11
REMARK    6  A    between atoms: O_11  and  C_12
REMARK    7  A    between atoms: C_15  and  C_16
REMARK    8  A    between atoms: C_16  and  N_17
REMARK    9  A    between atoms: C_18  and  C_20
REMARK   10  A    between atoms: C_27  and  O_28
REMARK   11  A    between atoms: O_28  and  C_29
REMARK                            x       y       z     vdW  Elec       q    Type
REMARK                         _______ _______ _______ _____ _____    ______ ____
ROOT
ATOM      1  C   UNL     1      49.725   7.536  17.774  0.00  0.00    +0.000 A 
ATOM      2  C   UNL     1      48.818   8.592  17.891  0.00  0.00    +0.000 A 
ATOM      3  C   UNL     1      48.262   9.180  16.756  0.00  0.00    +0.000 A 
ATOM      4  C   UNL     1      48.589   8.721  15.477  0.00  0.00    +0.000 A 
ATOM      5  C   UNL     1      49.519   7.680  15.356  0.00  0.00    +0.000 A 
ATOM      6  C   UNL     1      50.079   7.089  16.500  0.00  0.00    +0.000 A 
ENDROOT
BRANCH   1   7
ATOM      7  O   UNL     1      50.307   6.880  18.833  0.00  0.00    +0.000 OA
BRANCH   7   8
ATOM      8  C   UNL     1      51.290   5.898  18.479  0.00  0.00    +0.000 C 
BRANCH   8   9
ATOM      9  C   UNL     1      51.004   4.560  19.157  0.00  0.00    +0.000 C 
BRANCH   9  15
ATOM     10  C   UNL     1      48.936   3.558  18.071  0.00  0.00    +0.000 A 
ATOM     11  C   UNL     1      48.467   2.640  17.145  0.00  0.00    +0.000 A 
ATOM     12  N   UNL     1      49.252   1.807  16.431  0.00  0.00    +0.000 NA
ATOM     13  C   UNL     1      50.566   1.926  16.654  0.00  0.00    +0.000 A 
ATOM     14  N   UNL     1      51.145   2.795  17.497  0.00  0.00    +0.000 NA
ATOM     15  C   UNL     1      50.322   3.622  18.191  0.00  0.00    +0.000 A 
BRANCH  10  17
ATOM     16  C   UNL     1      47.125   5.076  18.160  0.00  0.00    +0.000 C 
ATOM     17  O   UNL     1      48.167   4.378  18.841  0.00  0.00    +0.000 OA
ENDBRANCH  10  17
ENDBRANCH   9  15
ENDBRANCH   8   9
ENDBRANCH   7   8
ENDBRANCH   1   7
BRANCH   4  18
ATOM     18  C   UNL     1      47.935   9.353  14.279  0.00  0.00    +0.000 C 
BRANCH  18  19
ATOM     19  N   UNL     1      46.794   8.602  13.826  0.00  0.00    +0.000 N 
ATOM     20  C   UNL     1      46.892   7.766  12.744  0.00  0.00    +0.000 C 
ATOM     21  O   UNL     1      47.967   7.582  12.178  0.00  0.00    +0.000 OA
ATOM     22  H   UNL     1      45.957   8.604  14.395  0.00  0.00    +0.000 HD
BRANCH  20  23
ATOM     23  C   UNL     1      45.649   7.179  12.225  0.00  0.00    +0.000 A 
ATOM     24  C   UNL     1      44.804   7.968  11.453  0.00  0.00    +0.000 A 
ATOM     25  S   UNL     1      43.271   7.272  11.207  0.00  0.00    +0.000 S 
ATOM     26  C   UNL     1      43.718   5.874  12.062  0.00  0.00    +0.000 A 
ATOM     27  N   UNL     1      42.812   4.909  12.288  0.00  0.00    +0.000 NA
ATOM     28  C   UNL     1      43.329   3.857  12.919  0.00  0.00    +0.000 A 
ATOM     29  N   UNL     1      44.611   3.661  13.248  0.00  0.00    +0.000 NA
ATOM     30  C   UNL     1      45.486   4.656  12.998  0.00  0.00    +0.000 A 
ATOM     31  C   UNL     1      45.054   5.871  12.444  0.00  0.00    +0.000 A 
BRANCH  30  32
ATOM     32  O   UNL     1      46.829   4.447  13.245  0.00  0.00    +0.000 OA
ATOM     33  C   UNL     1      47.215   4.753  14.584  0.00  0.00    +0.000 C 
ENDBRANCH  30  32
ENDBRANCH  20  23
ENDBRANCH  18  19
ENDBRANCH   4  18
TORSDOF 9
ENDMDL
