MODEL 1
REMARK VINA RESULT:    -8.429      0.000      0.000
REMARK INTER + INTRA:         -11.596
REMARK INTER:                 -10.892
REMARK INTRA:                  -0.704
REMARK UNBOUND:                -0.704
REMARK  Name = 
REMARK  5 active torsions:
REMARK  status: ('A' for Active; 'I' for Inactive)
REMARK    1  A    between atoms: C_2  and  C_4
REMARK    2  A    between atoms: C_7  and  O_8
REMARK    3  A    between atoms: O_8  and  C_9
REMARK    4  A    between atoms: C_9  and  C_10
REMARK    5  A    between atoms: C_14  and  C_15
REMARK                            x       y       z     vdW  Elec       q    Type
REMARK                         _______ _______ _______ _____ _____    ______ ____
ROOT
ATOM      1  C   UNL     1      43.664   4.439  11.209  0.00  0.00    +0.000 C 
ENDROOT
BRANCH   1   2
ATOM      2  C   UNL     1      44.761   5.275  11.826  0.00  0.00    +0.000 A 
ATOM      3  C   UNL     1      45.019   6.560  11.348  0.00  0.00    +0.000 A 
ATOM      4  C   UNL     1      45.986   7.319  11.982  0.00  0.00    +0.000 A 
ATOM      5  N   UNL     1      46.701   6.891  13.046  0.00  0.00    +0.000 NA
ATOM      6  C   UNL     1      46.457   5.640  13.509  0.00  0.00    +0.000 A 
ATOM      7  C   UNL     1      45.482   4.824  12.936  0.00  0.00    +0.000 A 
BRANCH   6   8
ATOM      8  C   UNL     1      47.282   5.204  14.638  0.00  0.00    +0.000 A 
ATOM      9  C   UNL     1      48.232   6.014  15.237  0.00  0.00    +0.000 A 
ATOM     10  N   UNL     1      49.007   5.645  16.284  0.00  0.00    +0.000 NA
ATOM     11  C   UNL     1      48.818   4.398  16.737  0.00  0.00    +0.000 A 
ATOM     12  N   UNL     1      47.941   3.509  16.249  0.00  0.00    +0.000 NA
ATOM     13  C   UNL     1      47.200   3.942  15.204  0.00  0.00    +0.000 A 
ENDBRANCH   6   8
ENDBRANCH   1   2
BRANCH   1  14
ATOM     14  O   UNL     1      43.590   4.665   9.797  0.00  0.00    +0.000 OA
BRANCH  14  18
ATOM     15  C   UNL     1      46.360   2.404   7.753  0.00  0.00    +0.000 A 
ATOM     16  C   UNL     1      45.509   1.787   8.672  0.00  0.00    +0.000 A 
ATOM     17  C   UNL     1      44.576   2.563   9.366  0.00  0.00    +0.000 A 
ATOM     18  C   UNL     1      44.531   3.925   9.109  0.00  0.00    +0.000 A 
ATOM     19  N   UNL     1      45.349   4.549   8.235  0.00  0.00    +0.000 NA
ATOM     20  C   UNL     1      46.253   3.778   7.584  0.00  0.00    +0.000 A 
BRANCH  15  22
ATOM     21  N   UNL     1      48.437   2.406   6.496  0.00  0.00    +0.000 N 
ATOM     22  C   UNL     1      47.375   1.683   6.960  0.00  0.00    +0.000 C 
ATOM     23  O   UNL     1      47.294   0.478   6.764  0.00  0.00    +0.000 OA
ATOM     24  H   UNL     1      49.182   1.871   6.066  0.00  0.00    +0.000 HD
ATOM     25  H   UNL     1      48.670   3.321   6.856  0.00  0.00    +0.000 HD
ENDBRANCH  15  22
ENDBRANCH  14  18
ENDBRANCH   1  14
TORSDOF 5
ENDMDL
MODEL 2
REMARK VINA RESULT:    -8.337      1.742      3.812
REMARK INTER + INTRA:         -11.477
REMARK INTER:                 -10.699
REMARK INTRA:                  -0.779
REMARK UNBOUND:                -0.704
REMARK  Name = 
REMARK  5 active torsions:
REMARK  status: ('A' for Active; 'I' for Inactive)
REMARK    1  A    between atoms: C_2  and  C_4
REMARK    2  A    between atoms: C_7  and  O_8
REMARK    3  A    between atoms: O_8  and  C_9
REMARK    4  A    between atoms: C_9  and  C_10
REMARK    5  A    between atoms: C_14  and  C_15
REMARK                            x       y       z     vdW  Elec       q    Type
REMARK                         _______ _______ _______ _____ _____    ______ ____
ROOT
ATOM      1  C   UNL     1      43.683   4.298  11.287  0.00  0.00    +0.000 C 
ENDROOT
BRANCH   1   2
ATOM      2  C   UNL     1      44.690   5.167  12.003  0.00  0.00    +0.000 A 
ATOM      3  C   UNL     1      45.615   4.597  12.879  0.00  0.00    +0.000 A 
ATOM      4  C   UNL     1      46.562   5.418  13.464  0.00  0.00    +0.000 A 
ATOM      5  N   UNL     1      46.650   6.747  13.237  0.00  0.00    +0.000 NA
ATOM      6  C   UNL     1      45.749   7.305  12.392  0.00  0.00    +0.000 A 
ATOM      7  C   UNL     1      44.778   6.539  11.748  0.00  0.00    +0.000 A 
BRANCH   6   8
ATOM      8  C   UNL     1      45.858   8.754  12.207  0.00  0.00    +0.000 A 
ATOM      9  C   UNL     1      44.759   9.583  12.062  0.00  0.00    +0.000 A 
ATOM     10  N   UNL     1      44.824  10.925  11.895  0.00  0.00    +0.000 NA
ATOM     11  C   UNL     1      46.058  11.447  11.862  0.00  0.00    +0.000 A 
ATOM     12  N   UNL     1      47.204  10.764  11.984  0.00  0.00    +0.000 NA
ATOM     13  C   UNL     1      47.067   9.428  12.148  0.00  0.00    +0.000 A 
ENDBRANCH   6   8
ENDBRANCH   1   2
BRANCH   1  14
ATOM     14  O   UNL     1      43.640   4.619   9.892  0.00  0.00    +0.000 OA
BRANCH  14  18
ATOM     15  C   UNL     1      46.399   2.436   7.751  0.00  0.00    +0.000 A 
ATOM     16  C   UNL     1      45.564   1.787   8.664  0.00  0.00    +0.000 A 
ATOM     17  C   UNL     1      44.635   2.537   9.390  0.00  0.00    +0.000 A 
ATOM     18  C   UNL     1      44.577   3.905   9.172  0.00  0.00    +0.000 A 
ATOM     19  N   UNL     1      45.380   4.559   8.305  0.00  0.00    +0.000 NA
ATOM     20  C   UNL     1      46.281   3.813   7.622  0.00  0.00    +0.000 A 
BRANCH  15  22
ATOM     21  N   UNL     1      48.483   2.477   6.506  0.00  0.00    +0.000 N 
ATOM     22  C   UNL     1      47.409   1.744   6.926  0.00  0.00    +0.000 C 
ATOM     23  O   UNL     1      47.313   0.552   6.666  0.00  0.00    +0.000 OA
ATOM     24  H   UNL     1      49.223   1.956   6.051  0.00  0.00    +0.000 HD
ATOM     25  H   UNL     1      48.725   3.369   6.914  0.00  0.00    +0.000 HD
ENDBRANCH  15  22
ENDBRANCH  14  18
ENDBRANCH   1  14
TORSDOF 5
ENDMDL
MODEL 3
REMARK VINA RESULT:    -8.287      1.633      3.258
REMARK INTER + INTRA:         -11.412
REMARK INTER:                 -10.763
REMARK INTRA:                  -0.650
REMARK UNBOUND:                -0.704
REMARK  Name = 
REMARK  5 active torsions:
REMARK  status: ('A' for Active; 'I' for Inactive)
REMARK    1  A    between atoms: C_2  and  C_4
REMARK    2  A    between atoms: C_7  and  O_8
REMARK    3  A    between atoms: O_8  and  C_9
REMARK    4  A    between atoms: C_9  and  C_10
REMARK    5  A    between atoms: C_14  and  C_15
REMARK                            x       y       z     vdW  Elec       q    Type
REMARK                         _______ _______ _______ _____ _____    ______ ____
ROOT
ATOM      1  C   UNL     1      43.693   4.300  11.260  0.00  0.00    +0.000 C 
ENDROOT
BRANCH   1   2
ATOM      2  C   UNL     1      44.930   4.777  11.985  0.00  0.00    +0.000 A 
ATOM      3  C   UNL     1      45.571   3.945  12.904  0.00  0.00    +0.000 A 
ATOM      4  C   UNL     1      46.738   4.393  13.498  0.00  0.00    +0.000 A 
ATOM      5  N   UNL     1      47.302   5.594  13.239  0.00  0.00    +0.000 NA
ATOM      6  C   UNL     1      46.677   6.407  12.352  0.00  0.00    +0.000 A 
ATOM      7  C   UNL     1      45.510   6.016  11.697  0.00  0.00    +0.000 A 
BRANCH   6   8
ATOM      8  C   UNL     1      47.303   7.713  12.133  0.00  0.00    +0.000 A 
ATOM      9  C   UNL     1      46.635   8.912  12.317  0.00  0.00    +0.000 A 
ATOM     10  N   UNL     1      47.183  10.135  12.128  0.00  0.00    +0.000 NA
ATOM     11  C   UNL     1      48.461  10.143  11.725  0.00  0.00    +0.000 A 
ATOM     12  N   UNL     1      49.223   9.062  11.503  0.00  0.00    +0.000 NA
ATOM     13  C   UNL     1      48.613   7.873  11.710  0.00  0.00    +0.000 A 
ENDBRANCH   6   8
ENDBRANCH   1   2
BRANCH   1  14
ATOM     14  O   UNL     1      43.728   4.698   9.885  0.00  0.00    +0.000 OA
BRANCH  14  18
ATOM     15  C   UNL     1      46.413   2.438   7.730  0.00  0.00    +0.000 A 
ATOM     16  C   UNL     1      45.556   1.811   8.637  0.00  0.00    +0.000 A 
ATOM     17  C   UNL     1      44.652   2.587   9.368  0.00  0.00    +0.000 A 
ATOM     18  C   UNL     1      44.641   3.958   9.161  0.00  0.00    +0.000 A 
ATOM     19  N   UNL     1      45.467   4.591   8.299  0.00  0.00    +0.000 NA
ATOM     20  C   UNL     1      46.342   3.819   7.611  0.00  0.00    +0.000 A 
BRANCH  15  22
ATOM     21  N   UNL     1      48.469   2.432   6.438  0.00  0.00    +0.000 N 
ATOM     22  C   UNL     1      47.399   1.718   6.900  0.00  0.00    +0.000 C 
ATOM     23  O   UNL     1      47.290   0.521   6.672  0.00  0.00    +0.000 OA
ATOM     24  H   UNL     1      49.195   1.894   5.980  0.00  0.00    +0.000 HD
ATOM     25  H   UNL     1      48.727   3.332   6.819  0.00  0.00    +0.000 HD
ENDBRANCH  15  22
ENDBRANCH  14  18
ENDBRANCH   1  14
TORSDOF 5
ENDMDL
MODEL 4
REMARK VINA RESULT:    -7.708      1.461      1.983
REMARK INTER + INTRA:         -10.665
REMARK INTER:                  -9.963
REMARK INTRA:                  -0.702
REMARK UNBOUND:                -0.704
REMARK  Name = 
REMARK  5 active torsions:
REMARK  status: ('A' for Active; 'I' for Inactive)
REMARK    1  A    between atoms: C_2  and  C_4
REMARK    2  A    between atoms: C_7  and  O_8
REMARK    3  A    between atoms: O_8  and  C_9
REMARK    4  A    between atoms: C_9  and  C_10
REMARK    5  A    between atoms: C_14  and  C_15
REMARK                            x       y       z     vdW  Elec       q    Type
REMARK                         _______ _______ _______ _____ _____    ______ ____
ROOT
ATOM      1  C   UNL     1      44.196   4.613  11.445  0.00  0.00    +0.000 C 
ENDROOT
BRANCH   1   2
ATOM      2  C   UNL     1      44.926   5.895  11.771  0.00  0.00    +0.000 A 
ATOM      3  C   UNL     1      44.406   7.124  11.363  0.00  0.00    +0.000 A 
ATOM      4  C   UNL     1      45.068   8.279  11.738  0.00  0.00    +0.000 A 
ATOM      5  N   UNL     1      46.196   8.292  12.482  0.00  0.00    +0.000 NA
ATOM      6  C   UNL     1      46.709   7.099  12.874  0.00  0.00    +0.000 A 
ATOM      7  C   UNL     1      46.085   5.894  12.554  0.00  0.00    +0.000 A 
BRANCH   6   8
ATOM      8  C   UNL     1      47.952   7.161  13.645  0.00  0.00    +0.000 A 
ATOM      9  C   UNL     1      48.947   8.093  13.403  0.00  0.00    +0.000 A 
ATOM     10  N   UNL     1      50.105   8.181  14.099  0.00  0.00    +0.000 NA
ATOM     11  C   UNL     1      50.266   7.277  15.075  0.00  0.00    +0.000 A 
ATOM     12  N   UNL     1      49.392   6.319  15.412  0.00  0.00    +0.000 NA
ATOM     13  C   UNL     1      48.257   6.287  14.677  0.00  0.00    +0.000 A 
ENDBRANCH   6   8
ENDBRANCH   1   2
BRANCH   1  14
ATOM     14  O   UNL     1      43.818   4.583  10.064  0.00  0.00    +0.000 OA
BRANCH  14  18
ATOM     15  C   UNL     1      46.437   2.332   7.820  0.00  0.00    +0.000 A 
ATOM     16  C   UNL     1      46.425   3.722   7.678  0.00  0.00    +0.000 A 
ATOM     17  C   UNL     1      45.529   4.477   8.439  0.00  0.00    +0.000 A 
ATOM     18  C   UNL     1      44.682   3.812   9.313  0.00  0.00    +0.000 A 
ATOM     19  N   UNL     1      44.665   2.470   9.461  0.00  0.00    +0.000 NA
ATOM     20  C   UNL     1      45.534   1.758   8.704  0.00  0.00    +0.000 A 
BRANCH  15  22
ATOM     21  N   UNL     1      48.392   2.019   6.415  0.00  0.00    +0.000 N 
ATOM     22  C   UNL     1      47.345   1.439   7.074  0.00  0.00    +0.000 C 
ATOM     23  O   UNL     1      47.196   0.224   7.083  0.00  0.00    +0.000 OA
ATOM     24  H   UNL     1      49.072   1.381   6.018  0.00  0.00    +0.000 HD
ATOM     25  H   UNL     1      48.695   2.964   6.602  0.00  0.00    +0.000 HD
ENDBRANCH  15  22
ENDBRANCH  14  18
ENDBRANCH   1  14
TORSDOF 5
ENDMDL
MODEL 5
REMARK VINA RESULT:    -7.059      2.892      7.948
REMARK INTER + INTRA:          -9.826
REMARK INTER:                  -9.299
REMARK INTRA:                  -0.527
REMARK UNBOUND:                -0.704
REMARK  Name = 
REMARK  5 active torsions:
REMARK  status: ('A' for Active; 'I' for Inactive)
REMARK    1  A    between atoms: C_2  and  C_4
REMARK    2  A    between atoms: C_7  and  O_8
REMARK    3  A    between atoms: O_8  and  C_9
REMARK    4  A    between atoms: C_9  and  C_10
REMARK    5  A    between atoms: C_14  and  C_15
REMARK                            x       y       z     vdW  Elec       q    Type
REMARK                         _______ _______ _______ _____ _____    ______ ____
ROOT
ATOM      1  C   UNL     1      45.284   5.367  13.293  0.00  0.00    +0.000 C 
ENDROOT
BRANCH   1   2
ATOM      2  C   UNL     1      44.804   4.340  12.295  0.00  0.00    +0.000 A 
ATOM      3  C   UNL     1      43.655   3.591  12.552  0.00  0.00    +0.000 A 
ATOM      4  C   UNL     1      43.211   2.709  11.584  0.00  0.00    +0.000 A 
ATOM      5  N   UNL     1      43.825   2.526  10.394  0.00  0.00    +0.000 NA
ATOM      6  C   UNL     1      44.947   3.246  10.143  0.00  0.00    +0.000 A 
ATOM      7  C   UNL     1      45.442   4.172  11.061  0.00  0.00    +0.000 A 
BRANCH   6   8
ATOM      8  C   UNL     1      45.599   2.986   8.858  0.00  0.00    +0.000 A 
ATOM      9  C   UNL     1      45.853   3.977   7.925  0.00  0.00    +0.000 A 
ATOM     10  N   UNL     1      46.458   3.772   6.731  0.00  0.00    +0.000 NA
ATOM     11  C   UNL     1      46.811   2.507   6.468  0.00  0.00    +0.000 A 
ATOM     12  N   UNL     1      46.621   1.453   7.274  0.00  0.00    +0.000 NA
ATOM     13  C   UNL     1      46.011   1.727   8.450  0.00  0.00    +0.000 A 
ENDBRANCH   6   8
ENDBRANCH   1   2
BRANCH   1  14
ATOM     14  O   UNL     1      46.714   5.449  13.287  0.00  0.00    +0.000 OA
BRANCH  14  18
ATOM     15  C   UNL     1      48.320   4.602  16.984  0.00  0.00    +0.000 A 
ATOM     16  C   UNL     1      48.666   5.791  16.337  0.00  0.00    +0.000 A 
ATOM     17  C   UNL     1      48.121   6.067  15.080  0.00  0.00    +0.000 A 
ATOM     18  C   UNL     1      47.250   5.144  14.522  0.00  0.00    +0.000 A 
ATOM     19  N   UNL     1      46.907   3.983  15.120  0.00  0.00    +0.000 NA
ATOM     20  C   UNL     1      47.458   3.731  16.332  0.00  0.00    +0.000 A 
BRANCH  15  22
ATOM     21  N   UNL     1      48.257   3.122  18.907  0.00  0.00    +0.000 N 
ATOM     22  C   UNL     1      48.827   4.213  18.315  0.00  0.00    +0.000 C 
ATOM     23  O   UNL     1      49.752   4.814  18.846  0.00  0.00    +0.000 OA
ATOM     24  H   UNL     1      48.703   2.798  19.757  0.00  0.00    +0.000 HD
ATOM     25  H   UNL     1      47.693   2.459  18.395  0.00  0.00    +0.000 HD
ENDBRANCH  15  22
ENDBRANCH  14  18
ENDBRANCH   1  14
TORSDOF 5
ENDMDL
MODEL 6
REMARK VINA RESULT:    -6.820      2.540      7.313
REMARK INTER + INTRA:          -9.517
REMARK INTER:                  -9.113
REMARK INTRA:                  -0.404
REMARK UNBOUND:                -0.704
REMARK  Name = 
REMARK  5 active torsions:
REMARK  status: ('A' for Active; 'I' for Inactive)
REMARK    1  A    between atoms: C_2  and  C_4
REMARK    2  A    between atoms: C_7  and  O_8
REMARK    3  A    between atoms: O_8  and  C_9
REMARK    4  A    between atoms: C_9  and  C_10
REMARK    5  A    between atoms: C_14  and  C_15
REMARK                            x       y       z     vdW  Elec       q    Type
REMARK                         _______ _______ _______ _____ _____    ______ ____
ROOT
ATOM      1  C   UNL     1      43.936   6.565  11.395  0.00  0.00    +0.000 C 
ENDROOT
BRANCH   1   2
ATOM      2  C   UNL     1      44.015   5.103  11.021  0.00  0.00    +0.000 A 
ATOM      3  C   UNL     1      43.260   4.158  11.715  0.00  0.00    +0.000 A 
ATOM      4  C   UNL     1      43.309   2.839  11.300  0.00  0.00    +0.000 A 
ATOM      5  N   UNL     1      44.049   2.406  10.255  0.00  0.00    +0.000 NA
ATOM      6  C   UNL     1      44.790   3.321   9.583  0.00  0.00    +0.000 A 
ATOM      7  C   UNL     1      44.774   4.672   9.928  0.00  0.00    +0.000 A 
BRANCH   6   8
ATOM      8  C   UNL     1      45.605   2.800   8.483  0.00  0.00    +0.000 A 
ATOM      9  C   UNL     1      45.988   1.473   8.389  0.00  0.00    +0.000 A 
ATOM     10  N   UNL     1      46.736   0.958   7.385  0.00  0.00    +0.000 NA
ATOM     11  C   UNL     1      47.121   1.828   6.441  0.00  0.00    +0.000 A 
ATOM     12  N   UNL     1      46.828   3.136   6.411  0.00  0.00    +0.000 NA
ATOM     13  C   UNL     1      46.079   3.585   7.444  0.00  0.00    +0.000 A 
ENDBRANCH   6   8
ENDBRANCH   1   2
BRANCH   1  14
ATOM     14  O   UNL     1      45.137   7.249  11.018  0.00  0.00    +0.000 OA
BRANCH  14  18
ATOM     15  C   UNL     1      47.887   7.269  14.084  0.00  0.00    +0.000 A 
ATOM     16  C   UNL     1      47.067   8.383  13.885  0.00  0.00    +0.000 A 
ATOM     17  C   UNL     1      46.141   8.369  12.838  0.00  0.00    +0.000 A 
ATOM     18  C   UNL     1      46.071   7.242  12.034  0.00  0.00    +0.000 A 
ATOM     19  N   UNL     1      46.858   6.157  12.197  0.00  0.00    +0.000 NA
ATOM     20  C   UNL     1      47.757   6.198  13.211  0.00  0.00    +0.000 A 
BRANCH  15  22
ATOM     21  N   UNL     1      48.455   7.358  16.442  0.00  0.00    +0.000 N 
ATOM     22  C   UNL     1      48.891   7.171  15.161  0.00  0.00    +0.000 C 
ATOM     23  O   UNL     1      50.058   6.888  14.922  0.00  0.00    +0.000 OA
ATOM     24  H   UNL     1      49.131   7.162  17.172  0.00  0.00    +0.000 HD
ATOM     25  H   UNL     1      47.477   7.327  16.693  0.00  0.00    +0.000 HD
ENDBRANCH  15  22
ENDBRANCH  14  18
ENDBRANCH   1  14
TORSDOF 5
ENDMDL
MODEL 7
REMARK VINA RESULT:    -6.503      3.844      7.819
REMARK INTER + INTRA:          -9.107
REMARK INTER:                  -8.464
REMARK INTRA:                  -0.643
REMARK UNBOUND:                -0.704
REMARK  Name = 
REMARK  5 active torsions:
REMARK  status: ('A' for Active; 'I' for Inactive)
REMARK    1  A    between atoms: C_2  and  C_4
REMARK    2  A    between atoms: C_7  and  O_8
REMARK    3  A    between atoms: O_8  and  C_9
REMARK    4  A    between atoms: C_9  and  C_10
REMARK    5  A    between atoms: C_14  and  C_15
REMARK                            x       y       z     vdW  Elec       q    Type
REMARK                         _______ _______ _______ _____ _____    ______ ____
ROOT
ATOM      1  C   UNL     1      48.619   6.289  15.752  0.00  0.00    +0.000 C 
ENDROOT
BRANCH   1   2
ATOM      2  C   UNL     1      48.007   6.373  14.374  0.00  0.00    +0.000 A 
ATOM      3  C   UNL     1      48.494   7.291  13.442  0.00  0.00    +0.000 A 
ATOM      4  C   UNL     1      47.952   7.292  12.170  0.00  0.00    +0.000 A 
ATOM      5  N   UNL     1      46.974   6.451  11.768  0.00  0.00    +0.000 NA
ATOM      6  C   UNL     1      46.493   5.562  12.673  0.00  0.00    +0.000 A 
ATOM      7  C   UNL     1      47.005   5.487  13.968  0.00  0.00    +0.000 A 
BRANCH   6   8
ATOM      8  C   UNL     1      45.407   4.698  12.205  0.00  0.00    +0.000 A 
ATOM      9  C   UNL     1      44.783   3.763  13.013  0.00  0.00    +0.000 A 
ATOM     10  N   UNL     1      43.774   2.953  12.615  0.00  0.00    +0.000 NA
ATOM     11  C   UNL     1      43.388   3.090  11.339  0.00  0.00    +0.000 A 
ATOM     12  N   UNL     1      43.906   3.947  10.448  0.00  0.00    +0.000 NA
ATOM     13  C   UNL     1      44.911   4.726  10.911  0.00  0.00    +0.000 A 
ENDBRANCH   6   8
ENDBRANCH   1   2
BRANCH   1  14
ATOM     14  O   UNL     1      48.086   5.173  16.475  0.00  0.00    +0.000 OA
BRANCH  14  18
ATOM     15  C   UNL     1      51.013   2.425  17.392  0.00  0.00    +0.000 A 
ATOM     16  C   UNL     1      51.210   3.772  17.703  0.00  0.00    +0.000 A 
ATOM     17  C   UNL     1      50.214   4.698  17.382  0.00  0.00    +0.000 A 
ATOM     18  C   UNL     1      49.060   4.239  16.766  0.00  0.00    +0.000 A 
ATOM     19  N   UNL     1      48.849   2.945  16.444  0.00  0.00    +0.000 NA
ATOM     20  C   UNL     1      49.833   2.068  16.753  0.00  0.00    +0.000 A 
BRANCH  15  22
ATOM     21  N   UNL     1      51.503   0.178  18.171  0.00  0.00    +0.000 N 
ATOM     22  C   UNL     1      51.992   1.361  17.692  0.00  0.00    +0.000 C 
ATOM     23  O   UNL     1      53.187   1.513  17.477  0.00  0.00    +0.000 OA
ATOM     24  H   UNL     1      52.173  -0.577  18.249  0.00  0.00    +0.000 HD
ATOM     25  H   UNL     1      50.526  -0.071  18.108  0.00  0.00    +0.000 HD
ENDBRANCH  15  22
ENDBRANCH  14  18
ENDBRANCH   1  14
TORSDOF 5
ENDMDL
MODEL 8
REMARK VINA RESULT:    -6.217      2.768      4.243
REMARK INTER + INTRA:          -8.737
REMARK INTER:                  -8.080
REMARK INTRA:                  -0.657
REMARK UNBOUND:                -0.704
REMARK  Name = 
REMARK  5 active torsions:
REMARK  status: ('A' for Active; 'I' for Inactive)
REMARK    1  A    between atoms: C_2  and  C_4
REMARK    2  A    between atoms: C_7  and  O_8
REMARK    3  A    between atoms: O_8  and  C_9
REMARK    4  A    between atoms: C_9  and  C_10
REMARK    5  A    between atoms: C_14  and  C_15
REMARK                            x       y       z     vdW  Elec       q    Type
REMARK                         _______ _______ _______ _____ _____    ______ ____
ROOT
ATOM      1  C   UNL     1      47.619   7.687  12.269  0.00  0.00    +0.000 C 
ENDROOT
BRANCH   1   2
ATOM      2  C   UNL     1      48.146   7.524  13.675  0.00  0.00    +0.000 A 
ATOM      3  C   UNL     1      48.787   8.587  14.313  0.00  0.00    +0.000 A 
ATOM      4  C   UNL     1      49.197   8.420  15.624  0.00  0.00    +0.000 A 
ATOM      5  N   UNL     1      49.012   7.283  16.331  0.00  0.00    +0.000 NA
ATOM      6  C   UNL     1      48.397   6.246  15.712  0.00  0.00    +0.000 A 
ATOM      7  C   UNL     1      47.936   6.347  14.400  0.00  0.00    +0.000 A 
BRANCH   6   8
ATOM      8  C   UNL     1      48.254   5.022  16.504  0.00  0.00    +0.000 A 
ATOM      9  C   UNL     1      47.092   4.271  16.532  0.00  0.00    +0.000 A 
ATOM     10  N   UNL     1      46.928   3.134  17.248  0.00  0.00    +0.000 NA
ATOM     11  C   UNL     1      47.985   2.748  17.976  0.00  0.00    +0.000 A 
ATOM     12  N   UNL     1      49.164   3.380  18.046  0.00  0.00    +0.000 NA
ATOM     13  C   UNL     1      49.260   4.509  17.307  0.00  0.00    +0.000 A 
ENDBRANCH   6   8
ENDBRANCH   1   2
BRANCH   1  14
ATOM     14  O   UNL     1      46.188   7.764  12.272  0.00  0.00    +0.000 OA
BRANCH  14  18
ATOM     15  C   UNL     1      44.513   4.162  11.183  0.00  0.00    +0.000 A 
ATOM     16  C   UNL     1      45.387   4.809  10.307  0.00  0.00    +0.000 A 
ATOM     17  C   UNL     1      45.946   6.034  10.682  0.00  0.00    +0.000 A 
ATOM     18  C   UNL     1      45.610   6.561  11.920  0.00  0.00    +0.000 A 
ATOM     19  N   UNL     1      44.759   5.962  12.781  0.00  0.00    +0.000 NA
ATOM     20  C   UNL     1      44.220   4.783  12.390  0.00  0.00    +0.000 A 
BRANCH  15  22
ATOM     21  N   UNL     1      44.381   2.131   9.860  0.00  0.00    +0.000 N 
ATOM     22  C   UNL     1      43.872   2.864  10.895  0.00  0.00    +0.000 C 
ATOM     23  O   UNL     1      42.954   2.438  11.582  0.00  0.00    +0.000 OA
ATOM     24  H   UNL     1      44.013   1.193   9.760  0.00  0.00    +0.000 HD
ATOM     25  H   UNL     1      45.286   2.322   9.453  0.00  0.00    +0.000 HD
ENDBRANCH  15  22
ENDBRANCH  14  18
ENDBRANCH   1  14
TORSDOF 5
ENDMDL
MODEL 9
REMARK VINA RESULT:    -6.157      3.345      8.229
REMARK INTER + INTRA:          -8.660
REMARK INTER:                  -8.078
REMARK INTRA:                  -0.582
REMARK UNBOUND:                -0.704
REMARK  Name = 
REMARK  5 active torsions:
REMARK  status: ('A' for Active; 'I' for Inactive)
REMARK    1  A    between atoms: C_2  and  C_4
REMARK    2  A    between atoms: C_7  and  O_8
REMARK    3  A    between atoms: O_8  and  C_9
REMARK    4  A    between atoms: C_9  and  C_10
REMARK    5  A    between atoms: C_14  and  C_15
REMARK                            x       y       z     vdW  Elec       q    Type
REMARK                         _______ _______ _______ _____ _____    ______ ____
ROOT
ATOM      1  C   UNL     1      47.901   7.207  13.972  0.00  0.00    +0.000 C 
ENDROOT
BRANCH   1   2
ATOM      2  C   UNL     1      46.714   7.138  13.040  0.00  0.00    +0.000 A 
ATOM      3  C   UNL     1      45.864   8.235  12.899  0.00  0.00    +0.000 A 
ATOM      4  C   UNL     1      44.828   8.156  11.986  0.00  0.00    +0.000 A 
ATOM      5  N   UNL     1      44.586   7.073  11.215  0.00  0.00    +0.000 NA
ATOM      6  C   UNL     1      45.405   6.001  11.355  0.00  0.00    +0.000 A 
ATOM      7  C   UNL     1      46.484   6.015  12.238  0.00  0.00    +0.000 A 
BRANCH   6   8
ATOM      8  C   UNL     1      45.081   4.837  10.527  0.00  0.00    +0.000 A 
ATOM      9  C   UNL     1      44.330   3.768  10.986  0.00  0.00    +0.000 A 
ATOM     10  N   UNL     1      44.009   2.680  10.248  0.00  0.00    +0.000 NA
ATOM     11  C   UNL     1      44.478   2.670   8.992  0.00  0.00    +0.000 A 
ATOM     12  N   UNL     1      45.220   3.631   8.423  0.00  0.00    +0.000 NA
ATOM     13  C   UNL     1      45.505   4.689   9.216  0.00  0.00    +0.000 A 
ENDBRANCH   6   8
ENDBRANCH   1   2
BRANCH   1  14
ATOM     14  O   UNL     1      48.426   5.898  14.221  0.00  0.00    +0.000 OA
BRANCH  14  18
ATOM     15  C   UNL     1      48.581   5.122  18.263  0.00  0.00    +0.000 A 
ATOM     16  C   UNL     1      48.891   6.401  17.794  0.00  0.00    +0.000 A 
ATOM     17  C   UNL     1      48.842   6.653  16.420  0.00  0.00    +0.000 A 
ATOM     18  C   UNL     1      48.482   5.617  15.572  0.00  0.00    +0.000 A 
ATOM     19  N   UNL     1      48.188   4.369  15.997  0.00  0.00    +0.000 NA
ATOM     20  C   UNL     1      48.255   4.145  17.332  0.00  0.00    +0.000 A 
BRANCH  15  22
ATOM     21  N   UNL     1      48.405   3.426  19.992  0.00  0.00    +0.000 N 
ATOM     22  C   UNL     1      48.592   4.746  19.690  0.00  0.00    +0.000 C 
ATOM     23  O   UNL     1      48.806   5.573  20.567  0.00  0.00    +0.000 OA
ATOM     24  H   UNL     1      48.542   3.171  20.962  0.00  0.00    +0.000 HD
ATOM     25  H   UNL     1      48.492   2.694  19.301  0.00  0.00    +0.000 HD
ENDBRANCH  15  22
ENDBRANCH  14  18
ENDBRANCH   1  14
TORSDOF 5
ENDMDL
