MODEL 1
REMARK VINA RESULT:    -9.079      0.000      0.000
REMARK INTER + INTRA:         -12.605
REMARK INTER:                 -11.733
REMARK INTRA:                  -0.872
REMARK UNBOUND:                -0.872
REMARK  Name = 
REMARK  5 active torsions:
REMARK  status: ('A' for Active; 'I' for Inactive)
REMARK    1  A    between atoms: C_2  and  C_4
REMARK    2  A    between atoms: N_8  and  C_9
REMARK    3  A    between atoms: C_9  and  C_10
REMARK    4  A    between atoms: C_10  and  C_11
REMARK    5  A    between atoms: C_15  and  C_16
REMARK                            x       y       z     vdW  Elec       q    Type
REMARK                         _______ _______ _______ _____ _____    ______ ____
ROOT
ATOM      1  C   UNL     1      43.323   4.436  11.163  0.00  0.00    +0.000 C 
ENDROOT
BRANCH   1   6
ATOM      2  C   UNL     1      46.504   2.544   7.692  0.00  0.00    +0.000 A 
ATOM      3  C   UNL     1      45.651   1.878   8.563  0.00  0.00    +0.000 A 
ATOM      4  C   UNL     1      44.734   2.617   9.310  0.00  0.00    +0.000 A 
ATOM      5  C   UNL     1      44.702   4.004   9.189  0.00  0.00    +0.000 A 
ATOM      6  N   UNL     1      43.757   4.796   9.822  0.00  0.00    +0.000 N 
ATOM      7  N   UNL     1      45.554   4.661   8.380  0.00  0.00    +0.000 NA
ATOM      8  C   UNL     1      46.438   3.927   7.653  0.00  0.00    +0.000 A 
ATOM      9  H   UNL     1      44.047   5.763   9.685  0.00  0.00    +0.000 HD
BRANCH   2  11
ATOM     10  N   UNL     1      48.533   2.530   6.360  0.00  0.00    +0.000 N 
ATOM     11  C   UNL     1      47.447   1.832   6.807  0.00  0.00    +0.000 C 
ATOM     12  O   UNL     1      47.285   0.653   6.515  0.00  0.00    +0.000 OA
ATOM     13  H   UNL     1      49.233   2.002   5.852  0.00  0.00    +0.000 HD
ATOM     14  H   UNL     1      48.826   3.402   6.780  0.00  0.00    +0.000 HD
ENDBRANCH   2  11
ENDBRANCH   1   6
BRANCH   1  15
ATOM     15  C   UNL     1      43.521   5.612  12.123  0.00  0.00    +0.000 C 
BRANCH  15  16
ATOM     16  C   UNL     1      44.935   5.674  12.634  0.00  0.00    +0.000 A 
ATOM     17  C   UNL     1      45.418   4.724  13.524  0.00  0.00    +0.000 A 
ATOM     18  N   UNL     1      46.677   4.720  14.003  0.00  0.00    +0.000 NA
ATOM     19  C   UNL     1      47.497   5.713  13.576  0.00  0.00    +0.000 A 
ATOM     20  C   UNL     1      47.149   6.715  12.666  0.00  0.00    +0.000 A 
ATOM     21  C   UNL     1      45.825   6.664  12.196  0.00  0.00    +0.000 A 
BRANCH  20  22
ATOM     22  C   UNL     1      48.106   7.755  12.223  0.00  0.00    +0.000 A 
ATOM     23  C   UNL     1      49.428   7.430  11.854  0.00  0.00    +0.000 A 
ATOM     24  C   UNL     1      50.332   8.413  11.436  0.00  0.00    +0.000 A 
ATOM     25  C   UNL     1      49.923   9.736  11.368  0.00  0.00    +0.000 A 
ATOM     26  F   UNL     1      50.784  10.676  10.958  0.00  0.00    +0.000 F 
ATOM     27  C   UNL     1      48.631  10.095  11.717  0.00  0.00    +0.000 A 
ATOM     28  C   UNL     1      47.733   9.112  12.148  0.00  0.00    +0.000 A 
ENDBRANCH  20  22
ENDBRANCH  15  16
ENDBRANCH   1  15
TORSDOF 5
ENDMDL
MODEL 2
REMARK VINA RESULT:    -8.895      2.784      3.992
REMARK INTER + INTRA:         -12.368
REMARK INTER:                 -11.641
REMARK INTRA:                  -0.726
REMARK UNBOUND:                -0.872
REMARK  Name = 
REMARK  5 active torsions:
REMARK  status: ('A' for Active; 'I' for Inactive)
REMARK    1  A    between atoms: C_2  and  C_4
REMARK    2  A    between atoms: N_8  and  C_9
REMARK    3  A    between atoms: C_9  and  C_10
REMARK    4  A    between atoms: C_10  and  C_11
REMARK    5  A    between atoms: C_15  and  C_16
REMARK                            x       y       z     vdW  Elec       q    Type
REMARK                         _______ _______ _______ _____ _____    ______ ____
ROOT
ATOM      1  C   UNL     1      43.454   4.690  11.067  0.00  0.00    +0.000 C 
ENDROOT
BRANCH   1   6
ATOM      2  C   UNL     1      46.438   2.338   7.703  0.00  0.00    +0.000 A 
ATOM      3  C   UNL     1      45.617   1.797   8.685  0.00  0.00    +0.000 A 
ATOM      4  C   UNL     1      44.748   2.637   9.380  0.00  0.00    +0.000 A 
ATOM      5  C   UNL     1      44.731   4.000   9.097  0.00  0.00    +0.000 A 
ATOM      6  N   UNL     1      43.829   4.881   9.674  0.00  0.00    +0.000 N 
ATOM      7  N   UNL     1      45.553   4.540   8.177  0.00  0.00    +0.000 NA
ATOM      8  C   UNL     1      46.391   3.708   7.504  0.00  0.00    +0.000 A 
ATOM      9  H   UNL     1      44.126   5.819   9.411  0.00  0.00    +0.000 HD
BRANCH   2  11
ATOM     10  N   UNL     1      48.420   2.118   6.319  0.00  0.00    +0.000 N 
ATOM     11  C   UNL     1      47.327   1.508   6.867  0.00  0.00    +0.000 C 
ATOM     12  O   UNL     1      47.116   0.313   6.700  0.00  0.00    +0.000 OA
ATOM     13  H   UNL     1      49.085   1.518   5.846  0.00  0.00    +0.000 HD
ATOM     14  H   UNL     1      48.755   3.017   6.641  0.00  0.00    +0.000 HD
ENDBRANCH   2  11
ENDBRANCH   1   6
BRANCH   1  15
ATOM     15  C   UNL     1      43.737   5.959  11.876  0.00  0.00    +0.000 C 
BRANCH  15  16
ATOM     16  C   UNL     1      45.189   6.058  12.253  0.00  0.00    +0.000 A 
ATOM     17  C   UNL     1      46.098   6.721  11.439  0.00  0.00    +0.000 A 
ATOM     18  N   UNL     1      47.406   6.854  11.732  0.00  0.00    +0.000 NA
ATOM     19  C   UNL     1      47.832   6.299  12.894  0.00  0.00    +0.000 A 
ATOM     20  C   UNL     1      47.023   5.629  13.815  0.00  0.00    +0.000 A 
ATOM     21  C   UNL     1      45.667   5.526  13.459  0.00  0.00    +0.000 A 
BRANCH  20  22
ATOM     22  C   UNL     1      47.552   5.069  15.080  0.00  0.00    +0.000 A 
ATOM     23  C   UNL     1      47.237   3.758  15.494  0.00  0.00    +0.000 A 
ATOM     24  C   UNL     1      47.738   3.228  16.689  0.00  0.00    +0.000 A 
ATOM     25  C   UNL     1      48.574   3.999  17.482  0.00  0.00    +0.000 A 
ATOM     26  F   UNL     1      49.061   3.490  18.621  0.00  0.00    +0.000 F 
ATOM     27  C   UNL     1      48.911   5.290  17.108  0.00  0.00    +0.000 A 
ATOM     28  C   UNL     1      48.398   5.821  15.920  0.00  0.00    +0.000 A 
ENDBRANCH  20  22
ENDBRANCH  15  16
ENDBRANCH   1  15
TORSDOF 5
ENDMDL
MODEL 3
REMARK VINA RESULT:    -8.112      3.754      6.971
REMARK INTER + INTRA:         -11.355
REMARK INTER:                 -10.543
REMARK INTRA:                  -0.812
REMARK UNBOUND:                -0.872
REMARK  Name = 
REMARK  5 active torsions:
REMARK  status: ('A' for Active; 'I' for Inactive)
REMARK    1  A    between atoms: C_2  and  C_4
REMARK    2  A    between atoms: N_8  and  C_9
REMARK    3  A    between atoms: C_9  and  C_10
REMARK    4  A    between atoms: C_10  and  C_11
REMARK    5  A    between atoms: C_15  and  C_16
REMARK                            x       y       z     vdW  Elec       q    Type
REMARK                         _______ _______ _______ _____ _____    ______ ____
ROOT
ATOM      1  C   UNL     1      44.225   6.505  12.670  0.00  0.00    +0.000 C 
ENDROOT
BRANCH   1   6
ATOM      2  C   UNL     1      48.904   8.385  12.103  0.00  0.00    +0.000 A 
ATOM      3  C   UNL     1      48.338   7.242  11.550  0.00  0.00    +0.000 A 
ATOM      4  C   UNL     1      46.972   7.019  11.707  0.00  0.00    +0.000 A 
ATOM      5  C   UNL     1      46.201   7.927  12.430  0.00  0.00    +0.000 A 
ATOM      6  N   UNL     1      44.824   7.825  12.547  0.00  0.00    +0.000 N 
ATOM      7  N   UNL     1      46.748   9.014  13.006  0.00  0.00    +0.000 NA
ATOM      8  C   UNL     1      48.082   9.222  12.839  0.00  0.00    +0.000 A 
ATOM      9  H   UNL     1      44.536   8.518  13.236  0.00  0.00    +0.000 HD
BRANCH   2  11
ATOM     10  N   UNL     1      51.254   7.919  12.493  0.00  0.00    +0.000 N 
ATOM     11  C   UNL     1      50.325   8.737  11.915  0.00  0.00    +0.000 C 
ATOM     12  O   UNL     1      50.661   9.701  11.238  0.00  0.00    +0.000 OA
ATOM     13  H   UNL     1      52.224   8.099  12.262  0.00  0.00    +0.000 HD
ATOM     14  H   UNL     1      51.023   6.994  12.832  0.00  0.00    +0.000 HD
ENDBRANCH   2  11
ENDBRANCH   1   6
BRANCH   1  15
ATOM     15  C   UNL     1      43.443   6.152  11.401  0.00  0.00    +0.000 C 
BRANCH  15  16
ATOM     16  C   UNL     1      43.713   4.738  10.965  0.00  0.00    +0.000 A 
ATOM     17  C   UNL     1      43.105   3.663  11.600  0.00  0.00    +0.000 A 
ATOM     18  N   UNL     1      43.296   2.378  11.245  0.00  0.00    +0.000 NA
ATOM     19  C   UNL     1      44.138   2.150  10.206  0.00  0.00    +0.000 A 
ATOM     20  C   UNL     1      44.794   3.137   9.464  0.00  0.00    +0.000 A 
ATOM     21  C   UNL     1      44.551   4.458   9.877  0.00  0.00    +0.000 A 
BRANCH  20  22
ATOM     22  C   UNL     1      45.681   2.816   8.323  0.00  0.00    +0.000 A 
ATOM     23  C   UNL     1      45.982   3.773   7.331  0.00  0.00    +0.000 A 
ATOM     24  C   UNL     1      46.820   3.470   6.252  0.00  0.00    +0.000 A 
ATOM     25  C   UNL     1      47.382   2.206   6.156  0.00  0.00    +0.000 A 
ATOM     26  F   UNL     1      48.192   1.917   5.129  0.00  0.00    +0.000 F 
ATOM     27  C   UNL     1      47.115   1.239   7.112  0.00  0.00    +0.000 A 
ATOM     28  C   UNL     1      46.266   1.541   8.181  0.00  0.00    +0.000 A 
ENDBRANCH  20  22
ENDBRANCH  15  16
ENDBRANCH   1  15
TORSDOF 5
ENDMDL
MODEL 4
REMARK VINA RESULT:    -8.033      4.694      8.178
REMARK INTER + INTRA:         -11.253
REMARK INTER:                 -10.680
REMARK INTRA:                  -0.573
REMARK UNBOUND:                -0.872
REMARK  Name = 
REMARK  5 active torsions:
REMARK  status: ('A' for Active; 'I' for Inactive)
REMARK    1  A    between atoms: C_2  and  C_4
REMARK    2  A    between atoms: N_8  and  C_9
REMARK    3  A    between atoms: C_9  and  C_10
REMARK    4  A    between atoms: C_10  and  C_11
REMARK    5  A    between atoms: C_15  and  C_16
REMARK                            x       y       z     vdW  Elec       q    Type
REMARK                         _______ _______ _______ _____ _____    ______ ____
ROOT
ATOM      1  C   UNL     1      46.306   5.172  13.588  0.00  0.00    +0.000 C 
ENDROOT
BRANCH   1   6
ATOM      2  C   UNL     1      49.255   4.357  17.636  0.00  0.00    +0.000 A 
ATOM      3  C   UNL     1      49.067   5.521  16.901  0.00  0.00    +0.000 A 
ATOM      4  C   UNL     1      48.066   5.555  15.931  0.00  0.00    +0.000 A 
ATOM      5  C   UNL     1      47.289   4.423  15.699  0.00  0.00    +0.000 A 
ATOM      6  N   UNL     1      46.215   4.409  14.824  0.00  0.00    +0.000 N 
ATOM      7  N   UNL     1      47.493   3.277  16.376  0.00  0.00    +0.000 NA
ATOM      8  C   UNL     1      48.469   3.261  17.323  0.00  0.00    +0.000 A 
ATOM      9  H   UNL     1      45.922   3.438  14.734  0.00  0.00    +0.000 HD
BRANCH   2  11
ATOM     10  N   UNL     1      49.746   4.142  20.003  0.00  0.00    +0.000 N 
ATOM     11  C   UNL     1      50.237   4.263  18.734  0.00  0.00    +0.000 C 
ATOM     12  O   UNL     1      51.443   4.257  18.516  0.00  0.00    +0.000 OA
ATOM     13  H   UNL     1      50.422   3.961  20.736  0.00  0.00    +0.000 HD
ATOM     14  H   UNL     1      48.784   3.890  20.189  0.00  0.00    +0.000 HD
ENDBRANCH   2  11
ENDBRANCH   1   6
BRANCH   1  15
ATOM     15  C   UNL     1      44.915   5.373  12.979  0.00  0.00    +0.000 C 
BRANCH  15  16
ATOM     16  C   UNL     1      44.559   4.252  12.041  0.00  0.00    +0.000 A 
ATOM     17  C   UNL     1      43.484   3.413  12.303  0.00  0.00    +0.000 A 
ATOM     18  N   UNL     1      43.109   2.403  11.493  0.00  0.00    +0.000 NA
ATOM     19  C   UNL     1      43.842   2.218  10.367  0.00  0.00    +0.000 A 
ATOM     20  C   UNL     1      44.929   3.002   9.971  0.00  0.00    +0.000 A 
ATOM     21  C   UNL     1      45.270   4.044  10.851  0.00  0.00    +0.000 A 
BRANCH  20  22
ATOM     22  C   UNL     1      45.669   2.758   8.711  0.00  0.00    +0.000 A 
ATOM     23  C   UNL     1      46.135   1.472   8.368  0.00  0.00    +0.000 A 
ATOM     24  C   UNL     1      46.834   1.241   7.178  0.00  0.00    +0.000 A 
ATOM     25  C   UNL     1      47.066   2.293   6.305  0.00  0.00    +0.000 A 
ATOM     26  F   UNL     1      47.727   2.071   5.161  0.00  0.00    +0.000 F 
ATOM     27  C   UNL     1      46.620   3.570   6.603  0.00  0.00    +0.000 A 
ATOM     28  C   UNL     1      45.934   3.801   7.800  0.00  0.00    +0.000 A 
ENDBRANCH  20  22
ENDBRANCH  15  16
ENDBRANCH   1  15
TORSDOF 5
ENDMDL
MODEL 5
REMARK VINA RESULT:    -7.512      3.696      7.223
REMARK INTER + INTRA:         -10.580
REMARK INTER:                  -9.897
REMARK INTRA:                  -0.683
REMARK UNBOUND:                -0.872
REMARK  Name = 
REMARK  5 active torsions:
REMARK  status: ('A' for Active; 'I' for Inactive)
REMARK    1  A    between atoms: C_2  and  C_4
REMARK    2  A    between atoms: N_8  and  C_9
REMARK    3  A    between atoms: C_9  and  C_10
REMARK    4  A    between atoms: C_10  and  C_11
REMARK    5  A    between atoms: C_15  and  C_16
REMARK                            x       y       z     vdW  Elec       q    Type
REMARK                         _______ _______ _______ _____ _____    ______ ____
ROOT
ATOM      1  C   UNL     1      46.540   4.762  13.756  0.00  0.00    +0.000 C 
ENDROOT
BRANCH   1   6
ATOM      2  C   UNL     1      49.967   8.260  12.429  0.00  0.00    +0.000 A 
ATOM      3  C   UNL     1      48.986   7.649  11.658  0.00  0.00    +0.000 A 
ATOM      4  C   UNL     1      48.037   6.842  12.285  0.00  0.00    +0.000 A 
ATOM      5  C   UNL     1      48.100   6.644  13.662  0.00  0.00    +0.000 A 
ATOM      6  N   UNL     1      47.139   5.938  14.369  0.00  0.00    +0.000 N 
ATOM      7  N   UNL     1      49.072   7.197  14.411  0.00  0.00    +0.000 NA
ATOM      8  C   UNL     1      49.987   7.987  13.786  0.00  0.00    +0.000 A 
ATOM      9  H   UNL     1      47.498   5.821  15.315  0.00  0.00    +0.000 HD
BRANCH   2  11
ATOM     10  N   UNL     1      51.448  10.167  12.678  0.00  0.00    +0.000 N 
ATOM     11  C   UNL     1      50.959   9.192  11.856  0.00  0.00    +0.000 C 
ATOM     12  O   UNL     1      51.355   9.075  10.703  0.00  0.00    +0.000 OA
ATOM     13  H   UNL     1      52.210  10.726  12.315  0.00  0.00    +0.000 HD
ATOM     14  H   UNL     1      51.338  10.132  13.683  0.00  0.00    +0.000 HD
ENDBRANCH   2  11
ENDBRANCH   1   6
BRANCH   1  15
ATOM     15  C   UNL     1      45.135   5.085  13.239  0.00  0.00    +0.000 C 
BRANCH  15  16
ATOM     16  C   UNL     1      44.681   4.080  12.216  0.00  0.00    +0.000 A 
ATOM     17  C   UNL     1      43.535   3.323  12.414  0.00  0.00    +0.000 A 
ATOM     18  N   UNL     1      43.072   2.420  11.528  0.00  0.00    +0.000 NA
ATOM     19  C   UNL     1      43.789   2.260  10.387  0.00  0.00    +0.000 A 
ATOM     20  C   UNL     1      44.943   2.973  10.050  0.00  0.00    +0.000 A 
ATOM     21  C   UNL     1      45.374   3.905  11.010  0.00  0.00    +0.000 A 
BRANCH  20  22
ATOM     22  C   UNL     1      45.661   2.765   8.771  0.00  0.00    +0.000 A 
ATOM     23  C   UNL     1      45.917   3.835   7.888  0.00  0.00    +0.000 A 
ATOM     24  C   UNL     1      46.596   3.639   6.680  0.00  0.00    +0.000 A 
ATOM     25  C   UNL     1      47.041   2.369   6.343  0.00  0.00    +0.000 A 
ATOM     26  F   UNL     1      47.699   2.182   5.191  0.00  0.00    +0.000 F 
ATOM     27  C   UNL     1      46.813   1.293   7.186  0.00  0.00    +0.000 A 
ATOM     28  C   UNL     1      46.122   1.490   8.386  0.00  0.00    +0.000 A 
ENDBRANCH  20  22
ENDBRANCH  15  16
ENDBRANCH   1  15
TORSDOF 5
ENDMDL
MODEL 6
REMARK VINA RESULT:    -7.138      4.081      7.521
REMARK INTER + INTRA:         -10.097
REMARK INTER:                  -9.545
REMARK INTRA:                  -0.551
REMARK UNBOUND:                -0.872
REMARK  Name = 
REMARK  5 active torsions:
REMARK  status: ('A' for Active; 'I' for Inactive)
REMARK    1  A    between atoms: C_2  and  C_4
REMARK    2  A    between atoms: N_8  and  C_9
REMARK    3  A    between atoms: C_9  and  C_10
REMARK    4  A    between atoms: C_10  and  C_11
REMARK    5  A    between atoms: C_15  and  C_16
REMARK                            x       y       z     vdW  Elec       q    Type
REMARK                         _______ _______ _______ _____ _____    ______ ____
ROOT
ATOM      1  C   UNL     1      45.633   6.684  12.872  0.00  0.00    +0.000 C 
ENDROOT
BRANCH   1   6
ATOM      2  C   UNL     1      50.353   7.662  14.459  0.00  0.00    +0.000 A 
ATOM      3  C   UNL     1      49.371   6.871  15.043  0.00  0.00    +0.000 A 
ATOM      4  C   UNL     1      48.202   6.607  14.332  0.00  0.00    +0.000 A 
ATOM      5  C   UNL     1      48.027   7.152  13.062  0.00  0.00    +0.000 A 
ATOM      6  N   UNL     1      46.940   6.856  12.255  0.00  0.00    +0.000 N 
ATOM      7  N   UNL     1      48.954   7.955  12.505  0.00  0.00    +0.000 NA
ATOM      8  C   UNL     1      50.091   8.199  13.210  0.00  0.00    +0.000 A 
ATOM      9  H   UNL     1      46.984   7.490  11.460  0.00  0.00    +0.000 HD
BRANCH   2  11
ATOM     10  N   UNL     1      52.609   8.551  14.365  0.00  0.00    +0.000 N 
ATOM     11  C   UNL     1      51.651   7.925  15.111  0.00  0.00    +0.000 C 
ATOM     12  O   UNL     1      51.851   7.628  16.282  0.00  0.00    +0.000 OA
ATOM     13  H   UNL     1      53.452   8.832  14.853  0.00  0.00    +0.000 HD
ATOM     14  H   UNL     1      52.395   9.029  13.500  0.00  0.00    +0.000 HD
ENDBRANCH   2  11
ENDBRANCH   1   6
BRANCH   1  15
ATOM     15  C   UNL     1      44.538   6.641  11.803  0.00  0.00    +0.000 C 
BRANCH  15  16
ATOM     16  C   UNL     1      44.372   5.256  11.241  0.00  0.00    +0.000 A 
ATOM     17  C   UNL     1      43.416   4.386  11.749  0.00  0.00    +0.000 A 
ATOM     18  N   UNL     1      43.212   3.141  11.278  0.00  0.00    +0.000 NA
ATOM     19  C   UNL     1      44.001   2.739  10.250  0.00  0.00    +0.000 A 
ATOM     20  C   UNL     1      44.981   3.519   9.629  0.00  0.00    +0.000 A 
ATOM     21  C   UNL     1      45.144   4.810  10.160  0.00  0.00    +0.000 A 
BRANCH  20  22
ATOM     22  C   UNL     1      45.789   3.023   8.492  0.00  0.00    +0.000 A 
ATOM     23  C   UNL     1      46.177   1.670   8.397  0.00  0.00    +0.000 A 
ATOM     24  C   UNL     1      46.941   1.202   7.322  0.00  0.00    +0.000 A 
ATOM     25  C   UNL     1      47.317   2.079   6.316  0.00  0.00    +0.000 A 
ATOM     26  F   UNL     1      48.040   1.630   5.282  0.00  0.00    +0.000 F 
ATOM     27  C   UNL     1      46.952   3.414   6.369  0.00  0.00    +0.000 A 
ATOM     28  C   UNL     1      46.200   3.883   7.453  0.00  0.00    +0.000 A 
ENDBRANCH  20  22
ENDBRANCH  15  16
ENDBRANCH   1  15
TORSDOF 5
ENDMDL
MODEL 7
REMARK VINA RESULT:    -7.075      4.309      7.844
REMARK INTER + INTRA:         -10.015
REMARK INTER:                  -9.107
REMARK INTRA:                  -0.909
REMARK UNBOUND:                -0.872
REMARK  Name = 
REMARK  5 active torsions:
REMARK  status: ('A' for Active; 'I' for Inactive)
REMARK    1  A    between atoms: C_2  and  C_4
REMARK    2  A    between atoms: N_8  and  C_9
REMARK    3  A    between atoms: C_9  and  C_10
REMARK    4  A    between atoms: C_10  and  C_11
REMARK    5  A    between atoms: C_15  and  C_16
REMARK                            x       y       z     vdW  Elec       q    Type
REMARK                         _______ _______ _______ _____ _____    ______ ____
ROOT
ATOM      1  C   UNL     1      48.769   8.415  13.990  0.00  0.00    +0.000 C 
ENDROOT
BRANCH   1   6
ATOM      2  C   UNL     1      48.112   4.390  17.008  0.00  0.00    +0.000 A 
ATOM      3  C   UNL     1      47.329   4.838  15.953  0.00  0.00    +0.000 A 
ATOM      4  C   UNL     1      47.803   5.874  15.149  0.00  0.00    +0.000 A 
ATOM      5  C   UNL     1      49.039   6.454  15.426  0.00  0.00    +0.000 A 
ATOM      6  N   UNL     1      49.621   7.417  14.617  0.00  0.00    +0.000 N 
ATOM      7  N   UNL     1      49.786   6.054  16.473  0.00  0.00    +0.000 NA
ATOM      8  C   UNL     1      49.312   5.040  17.244  0.00  0.00    +0.000 A 
ATOM      9  H   UNL     1      50.435   7.768  15.119  0.00  0.00    +0.000 HD
BRANCH   2  11
ATOM     10  N   UNL     1      48.473   3.010  18.972  0.00  0.00    +0.000 N 
ATOM     11  C   UNL     1      47.720   3.247  17.857  0.00  0.00    +0.000 C 
ATOM     12  O   UNL     1      46.740   2.562  17.594  0.00  0.00    +0.000 OA
ATOM     13  H   UNL     1      48.129   2.300  19.609  0.00  0.00    +0.000 HD
ATOM     14  H   UNL     1      49.115   3.695  19.347  0.00  0.00    +0.000 HD
ENDBRANCH   2  11
ENDBRANCH   1   6
BRANCH   1  15
ATOM     15  C   UNL     1      48.652   8.150  12.487  0.00  0.00    +0.000 C 
BRANCH  15  16
ATOM     16  C   UNL     1      47.239   7.817  12.095  0.00  0.00    +0.000 A 
ATOM     17  C   UNL     1      46.208   8.727  12.287  0.00  0.00    +0.000 A 
ATOM     18  N   UNL     1      44.927   8.490  11.943  0.00  0.00    +0.000 NA
ATOM     19  C   UNL     1      44.658   7.285  11.381  0.00  0.00    +0.000 A 
ATOM     20  C   UNL     1      45.601   6.291  11.109  0.00  0.00    +0.000 A 
ATOM     21  C   UNL     1      46.921   6.597  11.483  0.00  0.00    +0.000 A 
BRANCH  20  22
ATOM     22  C   UNL     1      45.239   5.006  10.468  0.00  0.00    +0.000 A 
ATOM     23  C   UNL     1      44.605   3.974  11.191  0.00  0.00    +0.000 A 
ATOM     24  C   UNL     1      44.263   2.760  10.586  0.00  0.00    +0.000 A 
ATOM     25  C   UNL     1      44.538   2.564   9.241  0.00  0.00    +0.000 A 
ATOM     26  F   UNL     1      44.202   1.406   8.658  0.00  0.00    +0.000 F 
ATOM     27  C   UNL     1      45.155   3.554   8.494  0.00  0.00    +0.000 A 
ATOM     28  C   UNL     1      45.509   4.762   9.106  0.00  0.00    +0.000 A 
ENDBRANCH  20  22
ENDBRANCH  15  16
ENDBRANCH   1  15
TORSDOF 5
ENDMDL
MODEL 8
REMARK VINA RESULT:    -6.627      5.396      7.214
REMARK INTER + INTRA:          -9.436
REMARK INTER:                  -8.620
REMARK INTRA:                  -0.816
REMARK UNBOUND:                -0.872
REMARK  Name = 
REMARK  5 active torsions:
REMARK  status: ('A' for Active; 'I' for Inactive)
REMARK    1  A    between atoms: C_2  and  C_4
REMARK    2  A    between atoms: N_8  and  C_9
REMARK    3  A    between atoms: C_9  and  C_10
REMARK    4  A    between atoms: C_10  and  C_11
REMARK    5  A    between atoms: C_15  and  C_16
REMARK                            x       y       z     vdW  Elec       q    Type
REMARK                         _______ _______ _______ _____ _____    ______ ____
ROOT
ATOM      1  C   UNL     1      48.643   6.706  14.626  0.00  0.00    +0.000 C 
ENDROOT
BRANCH   1   6
ATOM      2  C   UNL     1      45.137   4.244  11.907  0.00  0.00    +0.000 A 
ATOM      3  C   UNL     1      45.961   3.770  12.921  0.00  0.00    +0.000 A 
ATOM      4  C   UNL     1      46.728   4.678  13.650  0.00  0.00    +0.000 A 
ATOM      5  C   UNL     1      46.673   6.035  13.340  0.00  0.00    +0.000 A 
ATOM      6  N   UNL     1      47.328   7.006  14.081  0.00  0.00    +0.000 N 
ATOM      7  N   UNL     1      45.910   6.498  12.332  0.00  0.00    +0.000 NA
ATOM      8  C   UNL     1      45.164   5.601  11.633  0.00  0.00    +0.000 A 
ATOM      9  H   UNL     1      47.243   7.878  13.560  0.00  0.00    +0.000 HD
BRANCH   2  11
ATOM     10  N   UNL     1      44.814   2.422  10.336  0.00  0.00    +0.000 N 
ATOM     11  C   UNL     1      44.234   3.361  11.142  0.00  0.00    +0.000 C 
ATOM     12  O   UNL     1      43.017   3.441  11.251  0.00  0.00    +0.000 OA
ATOM     13  H   UNL     1      44.192   1.747   9.908  0.00  0.00    +0.000 HD
ATOM     14  H   UNL     1      45.789   2.165  10.419  0.00  0.00    +0.000 HD
ENDBRANCH   2  11
ENDBRANCH   1   6
BRANCH   1  15
ATOM     15  C   UNL     1      48.624   6.806  16.154  0.00  0.00    +0.000 C 
BRANCH  15  16
ATOM     16  C   UNL     1      48.695   5.447  16.795  0.00  0.00    +0.000 A 
ATOM     17  C   UNL     1      47.543   4.783  17.197  0.00  0.00    +0.000 A 
ATOM     18  N   UNL     1      47.544   3.561  17.762  0.00  0.00    +0.000 NA
ATOM     19  C   UNL     1      48.752   2.969  17.939  0.00  0.00    +0.000 A 
ATOM     20  C   UNL     1      49.982   3.512  17.558  0.00  0.00    +0.000 A 
ATOM     21  C   UNL     1      49.918   4.786  16.968  0.00  0.00    +0.000 A 
BRANCH  20  22
ATOM     22  C   UNL     1      51.263   2.797  17.758  0.00  0.00    +0.000 A 
ATOM     23  C   UNL     1      51.409   1.437  17.414  0.00  0.00    +0.000 A 
ATOM     24  C   UNL     1      52.620   0.761  17.603  0.00  0.00    +0.000 A 
ATOM     25  C   UNL     1      53.709   1.440  18.128  0.00  0.00    +0.000 A 
ATOM     26  F   UNL     1      54.871   0.797  18.300  0.00  0.00    +0.000 F 
ATOM     27  C   UNL     1      53.608   2.778  18.474  0.00  0.00    +0.000 A 
ATOM     28  C   UNL     1      52.392   3.447  18.297  0.00  0.00    +0.000 A 
ENDBRANCH  20  22
ENDBRANCH  15  16
ENDBRANCH   1  15
TORSDOF 5
ENDMDL
MODEL 9
REMARK VINA RESULT:    -6.580      4.640      6.783
REMARK INTER + INTRA:          -9.375
REMARK INTER:                  -8.269
REMARK INTRA:                  -1.106
REMARK UNBOUND:                -0.872
REMARK  Name = 
REMARK  5 active torsions:
REMARK  status: ('A' for Active; 'I' for Inactive)
REMARK    1  A    between atoms: C_2  and  C_4
REMARK    2  A    between atoms: N_8  and  C_9
REMARK    3  A    between atoms: C_9  and  C_10
REMARK    4  A    between atoms: C_10  and  C_11
REMARK    5  A    between atoms: C_15  and  C_16
REMARK                            x       y       z     vdW  Elec       q    Type
REMARK                         _______ _______ _______ _____ _____    ______ ____
ROOT
ATOM      1  C   UNL     1      48.294   8.553  13.787  0.00  0.00    +0.000 C 
ENDROOT
BRANCH   1   6
ATOM      2  C   UNL     1      45.306   4.636  12.572  0.00  0.00    +0.000 A 
ATOM      3  C   UNL     1      46.515   4.645  13.257  0.00  0.00    +0.000 A 
ATOM      4  C   UNL     1      47.072   5.866  13.631  0.00  0.00    +0.000 A 
ATOM      5  C   UNL     1      46.424   7.054  13.298  0.00  0.00    +0.000 A 
ATOM      6  N   UNL     1      46.864   8.299  13.719  0.00  0.00    +0.000 N 
ATOM      7  N   UNL     1      45.275   7.057  12.597  0.00  0.00    +0.000 NA
ATOM      8  C   UNL     1      44.740   5.857  12.244  0.00  0.00    +0.000 A 
ATOM      9  H   UNL     1      46.305   8.990  13.222  0.00  0.00    +0.000 HD
BRANCH   2  11
ATOM     10  N   UNL     1      44.959   2.796  11.028  0.00  0.00    +0.000 N 
ATOM     11  C   UNL     1      44.609   3.386  12.209  0.00  0.00    +0.000 C 
ATOM     12  O   UNL     1      43.779   2.878  12.952  0.00  0.00    +0.000 OA
ATOM     13  H   UNL     1      44.564   1.881  10.844  0.00  0.00    +0.000 HD
ATOM     14  H   UNL     1      45.803   3.044  10.529  0.00  0.00    +0.000 HD
ENDBRANCH   2  11
ENDBRANCH   1   6
BRANCH   1  15
ATOM     15  C   UNL     1      48.637   9.352  15.048  0.00  0.00    +0.000 C 
BRANCH  15  16
ATOM     16  C   UNL     1      48.619   8.480  16.273  0.00  0.00    +0.000 A 
ATOM     17  C   UNL     1      48.081   8.936  17.470  0.00  0.00    +0.000 A 
ATOM     18  N   UNL     1      48.024   8.196  18.594  0.00  0.00    +0.000 NA
ATOM     19  C   UNL     1      48.531   6.939  18.525  0.00  0.00    +0.000 A 
ATOM     20  C   UNL     1      49.076   6.348  17.382  0.00  0.00    +0.000 A 
ATOM     21  C   UNL     1      49.103   7.165  16.239  0.00  0.00    +0.000 A 
BRANCH  20  22
ATOM     22  C   UNL     1      49.588   4.958  17.373  0.00  0.00    +0.000 A 
ATOM     23  C   UNL     1      48.743   3.864  17.089  0.00  0.00    +0.000 A 
ATOM     24  C   UNL     1      49.227   2.551  17.080  0.00  0.00    +0.000 A 
ATOM     25  C   UNL     1      50.568   2.313  17.342  0.00  0.00    +0.000 A 
ATOM     26  F   UNL     1      51.034   1.057  17.325  0.00  0.00    +0.000 F 
ATOM     27  C   UNL     1      51.430   3.361  17.620  0.00  0.00    +0.000 A 
ATOM     28  C   UNL     1      50.941   4.671  17.643  0.00  0.00    +0.000 A 
ENDBRANCH  20  22
ENDBRANCH  15  16
ENDBRANCH   1  15
TORSDOF 5
ENDMDL
