MODEL 1
REMARK VINA RESULT:    -7.990      0.000      0.000
REMARK INTER + INTRA:         -10.335
REMARK INTER:                  -9.859
REMARK INTRA:                  -0.476
REMARK UNBOUND:                -0.476
REMARK  Name = 
REMARK  6 active torsions:
REMARK  status: ('A' for Active; 'I' for Inactive)
REMARK    1  A    between atoms: C_1  and  C_2
REMARK    2  A    between atoms: C_2  and  C_3
REMARK    3  A    between atoms: C_2  and  N_9
REMARK    4  A    between atoms: N_9  and  C_10
REMARK    5  A    between atoms: N_9  and  C_11
REMARK    6  A    between atoms: C_14  and  C_15
REMARK                            x       y       z     vdW  Elec       q    Type
REMARK                         _______ _______ _______ _____ _____    ______ ____
ROOT
ATOM      1  C   UNL     1      44.862   3.477   9.668  0.00  0.00    +0.000 A 
ATOM      2  C   UNL     1      45.417   4.416   8.779  0.00  0.00    +0.000 A 
ATOM      3  C   UNL     1      46.217   4.043   7.684  0.00  0.00    +0.000 A 
ATOM      4  C   UNL     1      46.518   2.698   7.461  0.00  0.00    +0.000 A 
ATOM      5  C   UNL     1      45.976   1.742   8.317  0.00  0.00    +0.000 A 
ATOM      6  C   UNL     1      45.149   2.131   9.387  0.00  0.00    +0.000 A 
ENDROOT
BRANCH   4   7
ATOM      7  C   UNL     1      47.375   2.348   6.300  0.00  0.00    +0.000 C 
ATOM      8  N   UNL     1      47.255   3.117   5.174  0.00  0.00    +0.000 N 
ATOM      9  O   UNL     1      48.141   1.394   6.325  0.00  0.00    +0.000 OA
ATOM     10  H   UNL     1      46.472   3.734   5.023  0.00  0.00    +0.000 HD
ATOM     11  H   UNL     1      47.761   2.791   4.359  0.00  0.00    +0.000 HD
ENDBRANCH   4   7
BRANCH   1  12
ATOM     12  N   UNL     1      44.069   3.881  10.743  0.00  0.00    +0.000 N 
ATOM     13  C   UNL     1      43.335   2.844  11.473  0.00  0.00    +0.000 C 
BRANCH  12  15
ATOM     14  C   UNL     1      42.374   5.461  11.708  0.00  0.00    +0.000 C 
ATOM     15  C   UNL     1      43.718   5.306  10.987  0.00  0.00    +0.000 C 
BRANCH  15  16
ATOM     16  C   UNL     1      44.814   6.078  11.749  0.00  0.00    +0.000 A 
ATOM     17  C   UNL     1      45.718   5.393  12.556  0.00  0.00    +0.000 A 
ATOM     18  C   UNL     1      46.726   6.110  13.201  0.00  0.00    +0.000 A 
ATOM     19  C   UNL     1      46.799   7.488  13.040  0.00  0.00    +0.000 A 
ATOM     20  C   UNL     1      45.848   8.102  12.249  0.00  0.00    +0.000 A 
ATOM     21  N   UNL     1      44.867   7.433  11.608  0.00  0.00    +0.000 NA
ENDBRANCH  15  16
ENDBRANCH  12  15
ENDBRANCH   1  12
TORSDOF 4
ENDMDL
MODEL 2
REMARK VINA RESULT:    -7.729      1.283      1.950
REMARK INTER + INTRA:         -10.013
REMARK INTER:                  -9.426
REMARK INTRA:                  -0.588
REMARK UNBOUND:                -0.476
REMARK  Name = 
REMARK  6 active torsions:
REMARK  status: ('A' for Active; 'I' for Inactive)
REMARK    1  A    between atoms: C_1  and  C_2
REMARK    2  A    between atoms: C_2  and  C_3
REMARK    3  A    between atoms: C_2  and  N_9
REMARK    4  A    between atoms: N_9  and  C_10
REMARK    5  A    between atoms: N_9  and  C_11
REMARK    6  A    between atoms: C_14  and  C_15
REMARK                            x       y       z     vdW  Elec       q    Type
REMARK                         _______ _______ _______ _____ _____    ______ ____
ROOT
ATOM      1  C   UNL     1      44.993   3.461   9.796  0.00  0.00    +0.000 A 
ATOM      2  C   UNL     1      45.274   2.163   9.331  0.00  0.00    +0.000 A 
ATOM      3  C   UNL     1      46.013   1.921   8.160  0.00  0.00    +0.000 A 
ATOM      4  C   UNL     1      46.472   2.988   7.386  0.00  0.00    +0.000 A 
ATOM      5  C   UNL     1      46.220   4.287   7.823  0.00  0.00    +0.000 A 
ATOM      6  C   UNL     1      45.509   4.510   9.017  0.00  0.00    +0.000 A 
ENDROOT
BRANCH   4   7
ATOM      7  C   UNL     1      47.239   2.688   6.151  0.00  0.00    +0.000 C 
ATOM      8  N   UNL     1      48.576   2.428   6.286  0.00  0.00    +0.000 N 
ATOM      9  O   UNL     1      46.714   2.699   5.044  0.00  0.00    +0.000 OA
ATOM     10  H   UNL     1      49.088   2.658   7.124  0.00  0.00    +0.000 HD
ATOM     11  H   UNL     1      49.100   2.341   5.423  0.00  0.00    +0.000 HD
ENDBRANCH   4   7
BRANCH   1  12
ATOM     12  N   UNL     1      44.261   3.666  10.967  0.00  0.00    +0.000 N 
ATOM     13  C   UNL     1      43.309   2.624  11.362  0.00  0.00    +0.000 C 
BRANCH  12  15
ATOM     14  C   UNL     1      42.922   5.147  12.487  0.00  0.00    +0.000 C 
ATOM     15  C   UNL     1      44.196   4.986  11.649  0.00  0.00    +0.000 C 
BRANCH  15  16
ATOM     16  C   UNL     1      45.435   5.282  12.516  0.00  0.00    +0.000 A 
ATOM     17  C   UNL     1      46.249   6.372  12.224  0.00  0.00    +0.000 A 
ATOM     18  C   UNL     1      47.340   6.642  13.051  0.00  0.00    +0.000 A 
ATOM     19  C   UNL     1      47.601   5.813  14.136  0.00  0.00    +0.000 A 
ATOM     20  C   UNL     1      46.766   4.734  14.346  0.00  0.00    +0.000 A 
ATOM     21  N   UNL     1      45.701   4.452  13.566  0.00  0.00    +0.000 NA
ENDBRANCH  15  16
ENDBRANCH  12  15
ENDBRANCH   1  12
TORSDOF 4
ENDMDL
MODEL 3
REMARK VINA RESULT:    -7.261      0.983      1.525
REMARK INTER + INTRA:          -9.435
REMARK INTER:                  -8.890
REMARK INTRA:                  -0.545
REMARK UNBOUND:                -0.476
REMARK  Name = 
REMARK  6 active torsions:
REMARK  status: ('A' for Active; 'I' for Inactive)
REMARK    1  A    between atoms: C_1  and  C_2
REMARK    2  A    between atoms: C_2  and  C_3
REMARK    3  A    between atoms: C_2  and  N_9
REMARK    4  A    between atoms: N_9  and  C_10
REMARK    5  A    between atoms: N_9  and  C_11
REMARK    6  A    between atoms: C_14  and  C_15
REMARK                            x       y       z     vdW  Elec       q    Type
REMARK                         _______ _______ _______ _____ _____    ______ ____
ROOT
ATOM      1  C   UNL     1      44.913   3.976  10.049  0.00  0.00    +0.000 A 
ATOM      2  C   UNL     1      45.553   4.743   9.058  0.00  0.00    +0.000 A 
ATOM      3  C   UNL     1      46.172   4.167   7.935  0.00  0.00    +0.000 A 
ATOM      4  C   UNL     1      46.199   2.780   7.783  0.00  0.00    +0.000 A 
ATOM      5  C   UNL     1      45.566   1.991   8.741  0.00  0.00    +0.000 A 
ATOM      6  C   UNL     1      44.921   2.587   9.841  0.00  0.00    +0.000 A 
ENDROOT
BRANCH   4   7
ATOM      7  C   UNL     1      46.873   2.212   6.588  0.00  0.00    +0.000 C 
ATOM      8  N   UNL     1      47.092   3.051   5.529  0.00  0.00    +0.000 N 
ATOM      9  O   UNL     1      47.199   1.033   6.528  0.00  0.00    +0.000 OA
ATOM     10  H   UNL     1      46.620   3.938   5.437  0.00  0.00    +0.000 HD
ATOM     11  H   UNL     1      47.446   2.617   4.685  0.00  0.00    +0.000 HD
ENDBRANCH   4   7
BRANCH   1  12
ATOM     12  N   UNL     1      44.304   4.581  11.149  0.00  0.00    +0.000 N 
ATOM     13  C   UNL     1      42.998   5.212  10.940  0.00  0.00    +0.000 C 
BRANCH  12  15
ATOM     14  C   UNL     1      46.026   3.744  12.772  0.00  0.00    +0.000 C 
ATOM     15  C   UNL     1      45.034   4.858  12.415  0.00  0.00    +0.000 C 
BRANCH  15  16
ATOM     16  C   UNL     1      45.755   6.221  12.413  0.00  0.00    +0.000 A 
ATOM     17  C   UNL     1      47.088   6.305  12.022  0.00  0.00    +0.000 A 
ATOM     18  C   UNL     1      47.704   7.557  11.988  0.00  0.00    +0.000 A 
ATOM     19  C   UNL     1      46.984   8.687  12.358  0.00  0.00    +0.000 A 
ATOM     20  C   UNL     1      45.675   8.521  12.764  0.00  0.00    +0.000 A 
ATOM     21  N   UNL     1      45.052   7.324  12.800  0.00  0.00    +0.000 NA
ENDBRANCH  15  16
ENDBRANCH  12  15
ENDBRANCH   1  12
TORSDOF 4
ENDMDL
MODEL 4
REMARK VINA RESULT:    -6.483      2.883      6.439
REMARK INTER + INTRA:          -8.476
REMARK INTER:                  -7.962
REMARK INTRA:                  -0.513
REMARK UNBOUND:                -0.476
REMARK  Name = 
REMARK  6 active torsions:
REMARK  status: ('A' for Active; 'I' for Inactive)
REMARK    1  A    between atoms: C_1  and  C_2
REMARK    2  A    between atoms: C_2  and  C_3
REMARK    3  A    between atoms: C_2  and  N_9
REMARK    4  A    between atoms: N_9  and  C_10
REMARK    5  A    between atoms: N_9  and  C_11
REMARK    6  A    between atoms: C_14  and  C_15
REMARK                            x       y       z     vdW  Elec       q    Type
REMARK                         _______ _______ _______ _____ _____    ______ ____
ROOT
ATOM      1  C   UNL     1      45.055   6.051  12.077  0.00  0.00    +0.000 A 
ATOM      2  C   UNL     1      44.844   7.442  12.023  0.00  0.00    +0.000 A 
ATOM      3  C   UNL     1      45.720   8.365  12.621  0.00  0.00    +0.000 A 
ATOM      4  C   UNL     1      46.835   7.916  13.331  0.00  0.00    +0.000 A 
ATOM      5  C   UNL     1      47.079   6.546  13.396  0.00  0.00    +0.000 A 
ATOM      6  C   UNL     1      46.210   5.638  12.762  0.00  0.00    +0.000 A 
ENDROOT
BRANCH   4   7
ATOM      7  C   UNL     1      47.728   8.924  13.957  0.00  0.00    +0.000 C 
ATOM      8  N   UNL     1      47.624   9.104  15.310  0.00  0.00    +0.000 N 
ATOM      9  O   UNL     1      48.510   9.595  13.297  0.00  0.00    +0.000 OA
ATOM     10  H   UNL     1      46.834   8.768  15.840  0.00  0.00    +0.000 HD
ATOM     11  H   UNL     1      48.157   9.874  15.697  0.00  0.00    +0.000 HD
ENDBRANCH   4   7
BRANCH   1  12
ATOM     12  N   UNL     1      44.168   5.162  11.469  0.00  0.00    +0.000 N 
ATOM     13  C   UNL     1      42.777   5.595  11.307  0.00  0.00    +0.000 C 
BRANCH  12  15
ATOM     14  C   UNL     1      43.292   2.810  11.494  0.00  0.00    +0.000 C 
ATOM     15  C   UNL     1      44.497   3.728  11.250  0.00  0.00    +0.000 C 
BRANCH  15  16
ATOM     16  C   UNL     1      45.093   3.449   9.856  0.00  0.00    +0.000 A 
ATOM     17  C   UNL     1      45.409   4.506   9.007  0.00  0.00    +0.000 A 
ATOM     18  C   UNL     1      45.988   4.228   7.768  0.00  0.00    +0.000 A 
ATOM     19  C   UNL     1      46.223   2.908   7.401  0.00  0.00    +0.000 A 
ATOM     20  C   UNL     1      45.856   1.912   8.283  0.00  0.00    +0.000 A 
ATOM     21  N   UNL     1      45.300   2.152   9.489  0.00  0.00    +0.000 NA
ENDBRANCH  15  16
ENDBRANCH  12  15
ENDBRANCH   1  12
TORSDOF 4
ENDMDL
MODEL 5
REMARK VINA RESULT:    -5.904      3.073      6.355
REMARK INTER + INTRA:          -7.761
REMARK INTER:                  -7.429
REMARK INTRA:                  -0.332
REMARK UNBOUND:                -0.476
REMARK  Name = 
REMARK  6 active torsions:
REMARK  status: ('A' for Active; 'I' for Inactive)
REMARK    1  A    between atoms: C_1  and  C_2
REMARK    2  A    between atoms: C_2  and  C_3
REMARK    3  A    between atoms: C_2  and  N_9
REMARK    4  A    between atoms: N_9  and  C_10
REMARK    5  A    between atoms: N_9  and  C_11
REMARK    6  A    between atoms: C_14  and  C_15
REMARK                            x       y       z     vdW  Elec       q    Type
REMARK                         _______ _______ _______ _____ _____    ______ ____
ROOT
ATOM      1  C   UNL     1      45.930   6.411  12.361  0.00  0.00    +0.000 A 
ATOM      2  C   UNL     1      45.273   7.558  12.845  0.00  0.00    +0.000 A 
ATOM      3  C   UNL     1      45.839   8.843  12.772  0.00  0.00    +0.000 A 
ATOM      4  C   UNL     1      47.114   9.019  12.232  0.00  0.00    +0.000 A 
ATOM      5  C   UNL     1      47.788   7.906  11.734  0.00  0.00    +0.000 A 
ATOM      6  C   UNL     1      47.192   6.631  11.785  0.00  0.00    +0.000 A 
ENDROOT
BRANCH   4   7
ATOM      7  C   UNL     1      47.678  10.391  12.183  0.00  0.00    +0.000 C 
ATOM      8  N   UNL     1      46.831  11.431  12.456  0.00  0.00    +0.000 N 
ATOM      9  O   UNL     1      48.847  10.600  11.884  0.00  0.00    +0.000 OA
ATOM     10  H   UNL     1      45.828  11.325  12.452  0.00  0.00    +0.000 HD
ATOM     11  H   UNL     1      47.206  12.360  12.304  0.00  0.00    +0.000 HD
ENDBRANCH   4   7
BRANCH   1  12
ATOM     12  N   UNL     1      45.338   5.150  12.446  0.00  0.00    +0.000 N 
ATOM     13  C   UNL     1      46.007   4.141  13.272  0.00  0.00    +0.000 C 
BRANCH  12  15
ATOM     14  C   UNL     1      43.322   5.869  11.134  0.00  0.00    +0.000 C 
ATOM     15  C   UNL     1      44.250   4.713  11.529  0.00  0.00    +0.000 C 
BRANCH  15  16
ATOM     16  C   UNL     1      44.773   4.004  10.264  0.00  0.00    +0.000 A 
ATOM     17  C   UNL     1      45.332   4.746   9.228  0.00  0.00    +0.000 A 
ATOM     18  C   UNL     1      45.837   4.076   8.113  0.00  0.00    +0.000 A 
ATOM     19  C   UNL     1      45.758   2.690   8.051  0.00  0.00    +0.000 A 
ATOM     20  C   UNL     1      45.162   2.024   9.104  0.00  0.00    +0.000 A 
ATOM     21  N   UNL     1      44.672   2.646  10.197  0.00  0.00    +0.000 NA
ENDBRANCH  15  16
ENDBRANCH  12  15
ENDBRANCH   1  12
TORSDOF 4
ENDMDL
MODEL 6
REMARK VINA RESULT:    -5.794      3.322      5.428
REMARK INTER + INTRA:          -7.625
REMARK INTER:                  -7.081
REMARK INTRA:                  -0.544
REMARK UNBOUND:                -0.476
REMARK  Name = 
REMARK  6 active torsions:
REMARK  status: ('A' for Active; 'I' for Inactive)
REMARK    1  A    between atoms: C_1  and  C_2
REMARK    2  A    between atoms: C_2  and  C_3
REMARK    3  A    between atoms: C_2  and  N_9
REMARK    4  A    between atoms: N_9  and  C_10
REMARK    5  A    between atoms: N_9  and  C_11
REMARK    6  A    between atoms: C_14  and  C_15
REMARK                            x       y       z     vdW  Elec       q    Type
REMARK                         _______ _______ _______ _____ _____    ______ ____
ROOT
ATOM      1  C   UNL     1      46.451   6.195  12.205  0.00  0.00    +0.000 A 
ATOM      2  C   UNL     1      46.185   5.066  13.002  0.00  0.00    +0.000 A 
ATOM      3  C   UNL     1      45.420   3.979  12.545  0.00  0.00    +0.000 A 
ATOM      4  C   UNL     1      44.859   4.003  11.267  0.00  0.00    +0.000 A 
ATOM      5  C   UNL     1      45.111   5.102  10.448  0.00  0.00    +0.000 A 
ATOM      6  C   UNL     1      45.908   6.166  10.909  0.00  0.00    +0.000 A 
ENDROOT
BRANCH   4   7
ATOM      7  C   UNL     1      44.048   2.840  10.828  0.00  0.00    +0.000 C 
ATOM      8  N   UNL     1      44.519   2.106   9.772  0.00  0.00    +0.000 N 
ATOM      9  O   UNL     1      42.984   2.553  11.361  0.00  0.00    +0.000 OA
ATOM     10  H   UNL     1      45.238   2.450   9.154  0.00  0.00    +0.000 HD
ATOM     11  H   UNL     1      43.896   1.391   9.416  0.00  0.00    +0.000 HD
ENDBRANCH   4   7
BRANCH   1  12
ATOM     12  N   UNL     1      47.219   7.256  12.688  0.00  0.00    +0.000 N 
ATOM     13  C   UNL     1      46.509   8.455  13.142  0.00  0.00    +0.000 C 
BRANCH  12  15
ATOM     14  C   UNL     1      49.111   8.560  11.679  0.00  0.00    +0.000 C 
ATOM     15  C   UNL     1      48.692   7.330  12.495  0.00  0.00    +0.000 C 
BRANCH  15  16
ATOM     16  C   UNL     1      49.480   7.286  13.819  0.00  0.00    +0.000 A 
ATOM     17  C   UNL     1      50.654   8.020  13.958  0.00  0.00    +0.000 A 
ATOM     18  C   UNL     1      51.325   7.996  15.181  0.00  0.00    +0.000 A 
ATOM     19  C   UNL     1      50.820   7.233  16.227  0.00  0.00    +0.000 A 
ATOM     20  C   UNL     1      49.666   6.508  16.005  0.00  0.00    +0.000 A 
ATOM     21  N   UNL     1      48.994   6.517  14.835  0.00  0.00    +0.000 NA
ENDBRANCH  15  16
ENDBRANCH  12  15
ENDBRANCH   1  12
TORSDOF 4
ENDMDL
MODEL 7
REMARK VINA RESULT:    -5.690      3.900      7.032
REMARK INTER + INTRA:          -7.498
REMARK INTER:                  -6.989
REMARK INTRA:                  -0.509
REMARK UNBOUND:                -0.476
REMARK  Name = 
REMARK  6 active torsions:
REMARK  status: ('A' for Active; 'I' for Inactive)
REMARK    1  A    between atoms: C_1  and  C_2
REMARK    2  A    between atoms: C_2  and  C_3
REMARK    3  A    between atoms: C_2  and  N_9
REMARK    4  A    between atoms: N_9  and  C_10
REMARK    5  A    between atoms: N_9  and  C_11
REMARK    6  A    between atoms: C_14  and  C_15
REMARK                            x       y       z     vdW  Elec       q    Type
REMARK                         _______ _______ _______ _____ _____    ______ ____
ROOT
ATOM      1  C   UNL     1      47.112   5.623  13.589  0.00  0.00    +0.000 A 
ATOM      2  C   UNL     1      47.952   6.409  14.399  0.00  0.00    +0.000 A 
ATOM      3  C   UNL     1      48.394   5.988  15.665  0.00  0.00    +0.000 A 
ATOM      4  C   UNL     1      47.976   4.761  16.183  0.00  0.00    +0.000 A 
ATOM      5  C   UNL     1      47.152   3.953  15.403  0.00  0.00    +0.000 A 
ATOM      6  C   UNL     1      46.747   4.376  14.122  0.00  0.00    +0.000 A 
ENDROOT
BRANCH   4   7
ATOM      7  C   UNL     1      48.457   4.360  17.529  0.00  0.00    +0.000 C 
ATOM      8  N   UNL     1      47.569   4.446  18.567  0.00  0.00    +0.000 N 
ATOM      9  O   UNL     1      49.609   3.992  17.722  0.00  0.00    +0.000 OA
ATOM     10  H   UNL     1      46.713   4.976  18.502  0.00  0.00    +0.000 HD
ATOM     11  H   UNL     1      47.950   4.280  19.491  0.00  0.00    +0.000 HD
ENDBRANCH   4   7
BRANCH   1  12
ATOM     12  N   UNL     1      46.694   6.069  12.334  0.00  0.00    +0.000 N 
ATOM     13  C   UNL     1      47.565   7.011  11.625  0.00  0.00    +0.000 C 
BRANCH  12  15
ATOM     14  C   UNL     1      44.647   7.176  11.394  0.00  0.00    +0.000 C 
ATOM     15  C   UNL     1      45.309   5.863  11.832  0.00  0.00    +0.000 C 
BRANCH  15  16
ATOM     16  C   UNL     1      45.226   4.829  10.692  0.00  0.00    +0.000 A 
ATOM     17  C   UNL     1      44.761   3.542  10.949  0.00  0.00    +0.000 A 
ATOM     18  C   UNL     1      44.655   2.638   9.891  0.00  0.00    +0.000 A 
ATOM     19  C   UNL     1      45.027   3.031   8.611  0.00  0.00    +0.000 A 
ATOM     20  C   UNL     1      45.507   4.315   8.439  0.00  0.00    +0.000 A 
ATOM     21  N   UNL     1      45.614   5.211   9.442  0.00  0.00    +0.000 NA
ENDBRANCH  15  16
ENDBRANCH  12  15
ENDBRANCH   1  12
TORSDOF 4
ENDMDL
MODEL 8
REMARK VINA RESULT:    -5.606      3.402      5.523
REMARK INTER + INTRA:          -7.394
REMARK INTER:                  -6.878
REMARK INTRA:                  -0.516
REMARK UNBOUND:                -0.476
REMARK  Name = 
REMARK  6 active torsions:
REMARK  status: ('A' for Active; 'I' for Inactive)
REMARK    1  A    between atoms: C_1  and  C_2
REMARK    2  A    between atoms: C_2  and  C_3
REMARK    3  A    between atoms: C_2  and  N_9
REMARK    4  A    between atoms: N_9  and  C_10
REMARK    5  A    between atoms: N_9  and  C_11
REMARK    6  A    between atoms: C_14  and  C_15
REMARK                            x       y       z     vdW  Elec       q    Type
REMARK                         _______ _______ _______ _____ _____    ______ ____
ROOT
ATOM      1  C   UNL     1      46.548   6.170  12.728  0.00  0.00    +0.000 A 
ATOM      2  C   UNL     1      46.124   6.414  11.408  0.00  0.00    +0.000 A 
ATOM      3  C   UNL     1      45.325   5.508  10.689  0.00  0.00    +0.000 A 
ATOM      4  C   UNL     1      44.947   4.294  11.266  0.00  0.00    +0.000 A 
ATOM      5  C   UNL     1      45.342   4.025  12.575  0.00  0.00    +0.000 A 
ATOM      6  C   UNL     1      46.113   4.959  13.292  0.00  0.00    +0.000 A 
ENDROOT
BRANCH   4   7
ATOM      7  C   UNL     1      44.112   3.361  10.468  0.00  0.00    +0.000 C 
ATOM      8  N   UNL     1      44.193   3.452   9.104  0.00  0.00    +0.000 N 
ATOM      9  O   UNL     1      43.355   2.556  10.996  0.00  0.00    +0.000 OA
ATOM     10  H   UNL     1      44.596   4.252   8.640  0.00  0.00    +0.000 HD
ATOM     11  H   UNL     1      43.532   2.889   8.583  0.00  0.00    +0.000 HD
ENDBRANCH   4   7
BRANCH   1  12
ATOM     12  N   UNL     1      47.338   7.093  13.415  0.00  0.00    +0.000 N 
ATOM     13  C   UNL     1      46.962   8.507  13.324  0.00  0.00    +0.000 C 
BRANCH  12  15
ATOM     14  C   UNL     1      49.742   7.785  13.622  0.00  0.00    +0.000 C 
ATOM     15  C   UNL     1      48.671   6.745  13.976  0.00  0.00    +0.000 C 
BRANCH  15  16
ATOM     16  C   UNL     1      48.645   6.517  15.500  0.00  0.00    +0.000 A 
ATOM     17  C   UNL     1      48.840   7.586  16.370  0.00  0.00    +0.000 A 
ATOM     18  C   UNL     1      48.769   7.360  17.745  0.00  0.00    +0.000 A 
ATOM     19  C   UNL     1      48.523   6.077  18.219  0.00  0.00    +0.000 A 
ATOM     20  C   UNL     1      48.370   5.061  17.296  0.00  0.00    +0.000 A 
ATOM     21  N   UNL     1      48.427   5.252  15.961  0.00  0.00    +0.000 NA
ENDBRANCH  15  16
ENDBRANCH  12  15
ENDBRANCH   1  12
TORSDOF 4
ENDMDL
MODEL 9
REMARK VINA RESULT:    -5.078      3.725      6.323
REMARK INTER + INTRA:          -6.742
REMARK INTER:                  -6.248
REMARK INTRA:                  -0.494
REMARK UNBOUND:                -0.476
REMARK  Name = 
REMARK  6 active torsions:
REMARK  status: ('A' for Active; 'I' for Inactive)
REMARK    1  A    between atoms: C_1  and  C_2
REMARK    2  A    between atoms: C_2  and  C_3
REMARK    3  A    between atoms: C_2  and  N_9
REMARK    4  A    between atoms: N_9  and  C_10
REMARK    5  A    between atoms: N_9  and  C_11
REMARK    6  A    between atoms: C_14  and  C_15
REMARK                            x       y       z     vdW  Elec       q    Type
REMARK                         _______ _______ _______ _____ _____    ______ ____
ROOT
ATOM      1  C   UNL     1      47.169   6.323  13.352  0.00  0.00    +0.000 A 
ATOM      2  C   UNL     1      47.076   5.016  13.865  0.00  0.00    +0.000 A 
ATOM      3  C   UNL     1      46.254   4.032  13.289  0.00  0.00    +0.000 A 
ATOM      4  C   UNL     1      45.461   4.340  12.183  0.00  0.00    +0.000 A 
ATOM      5  C   UNL     1      45.536   5.622  11.643  0.00  0.00    +0.000 A 
ATOM      6  C   UNL     1      46.391   6.585  12.212  0.00  0.00    +0.000 A 
ENDROOT
BRANCH   4   7
ATOM      7  C   UNL     1      44.599   3.275  11.612  0.00  0.00    +0.000 C 
ATOM      8  N   UNL     1      43.851   2.533  12.486  0.00  0.00    +0.000 N 
ATOM      9  O   UNL     1      44.571   3.038  10.411  0.00  0.00    +0.000 OA
ATOM     10  H   UNL     1      44.035   2.521  13.478  0.00  0.00    +0.000 HD
ATOM     11  H   UNL     1      43.362   1.740  12.089  0.00  0.00    +0.000 HD
ENDBRANCH   4   7
BRANCH   1  12
ATOM     12  N   UNL     1      47.998   7.276  13.946  0.00  0.00    +0.000 N 
ATOM     13  C   UNL     1      47.935   8.647  13.432  0.00  0.00    +0.000 C 
BRANCH  12  15
ATOM     14  C   UNL     1      50.382   7.735  14.586  0.00  0.00    +0.000 C 
ATOM     15  C   UNL     1      49.119   6.906  14.852  0.00  0.00    +0.000 C 
BRANCH  15  16
ATOM     16  C   UNL     1      48.744   6.989  16.345  0.00  0.00    +0.000 A 
ATOM     17  C   UNL     1      48.635   8.228  16.971  0.00  0.00    +0.000 A 
ATOM     18  C   UNL     1      48.252   8.276  18.311  0.00  0.00    +0.000 A 
ATOM     19  C   UNL     1      48.003   7.094  18.998  0.00  0.00    +0.000 A 
ATOM     20  C   UNL     1      48.161   5.902  18.319  0.00  0.00    +0.000 A 
ATOM     21  N   UNL     1      48.524   5.825  17.022  0.00  0.00    +0.000 NA
ENDBRANCH  15  16
ENDBRANCH  12  15
ENDBRANCH   1  12
TORSDOF 4
ENDMDL
