MODEL 1
REMARK VINA RESULT:    -7.968      0.000      0.000
REMARK INTER + INTRA:         -12.918
REMARK INTER:                 -11.695
REMARK INTRA:                  -1.223
REMARK UNBOUND:                -1.223
REMARK  Name = 
REMARK  9 active torsions:
REMARK  status: ('A' for Active; 'I' for Inactive)
REMARK    1  A    between atoms: C_1  and  O_2
REMARK    2  A    between atoms: O_2  and  C_3
REMARK    3  A    between atoms: C_7  and  C_8
REMARK    4  A    between atoms: C_8  and  O_9
REMARK    5  A    between atoms: O_9  and  C_10
REMARK    6  A    between atoms: C_10  and  C_11
REMARK    7  A    between atoms: C_14  and  C_15
REMARK    8  A    between atoms: C_15  and  N_16
REMARK    9  A    between atoms: C_17  and  C_19
REMARK                            x       y       z     vdW  Elec       q    Type
REMARK                         _______ _______ _______ _____ _____    ______ ____
ROOT
ATOM      1  C   UNL     1      44.472   4.824  12.754  0.00  0.00    +0.000 A 
ATOM      2  C   UNL     1      44.593   6.093  12.204  0.00  0.00    +0.000 A 
ATOM      3  C   UNL     1      45.723   6.845  12.492  0.00  0.00    +0.000 A 
ATOM      4  C   UNL     1      46.678   6.305  13.340  0.00  0.00    +0.000 A 
ATOM      5  N   UNL     1      46.523   5.074  13.882  0.00  0.00    +0.000 NA
ATOM      6  N   UNL     1      45.412   4.329  13.589  0.00  0.00    +0.000 NA
ENDROOT
BRANCH   1   7
ATOM      7  C   UNL     1      43.305   3.943  12.401  0.00  0.00    +0.000 C 
BRANCH   7   8
ATOM      8  O   UNL     1      43.296   3.771  10.985  0.00  0.00    +0.000 OA
BRANCH   8   9
ATOM      9  C   UNL     1      44.009   2.611  10.575  0.00  0.00    +0.000 C 
BRANCH   9  14
ATOM     10  C   UNL     1      46.449   2.242   7.667  0.00  0.00    +0.000 A 
ATOM     11  C   UNL     1      46.676   3.572   7.316  0.00  0.00    +0.000 A 
ATOM     12  C   UNL     1      46.053   4.598   8.027  0.00  0.00    +0.000 A 
ATOM     13  C   UNL     1      45.200   4.299   9.091  0.00  0.00    +0.000 A 
ATOM     14  C   UNL     1      44.972   2.969   9.469  0.00  0.00    +0.000 A 
ATOM     15  C   UNL     1      45.607   1.950   8.745  0.00  0.00    +0.000 A 
BRANCH  10  17
ATOM     16  C   UNL     1      46.720  -0.119   7.643  0.00  0.00    +0.000 C 
ATOM     17  O   UNL     1      46.976   1.144   7.042  0.00  0.00    +0.000 OA
ENDBRANCH  10  17
ENDBRANCH   9  14
ENDBRANCH   8   9
ENDBRANCH   7   8
ENDBRANCH   1   7
BRANCH   4  18
ATOM     18  C   UNL     1      47.947   7.049  13.652  0.00  0.00    +0.000 C 
BRANCH  18  19
ATOM     19  N   UNL     1      48.017   7.455  15.038  0.00  0.00    +0.000 N 
ATOM     20  C   UNL     1      48.771   6.799  15.972  0.00  0.00    +0.000 C 
ATOM     21  O   UNL     1      49.459   5.822  15.685  0.00  0.00    +0.000 OA
ATOM     22  H   UNL     1      47.289   8.095  15.342  0.00  0.00    +0.000 HD
BRANCH  20  23
ATOM     23  C   UNL     1      48.775   7.374  17.325  0.00  0.00    +0.000 A 
ATOM     24  C   UNL     1      49.442   8.568  17.565  0.00  0.00    +0.000 A 
ATOM     25  S   UNL     1      49.297   9.123  19.172  0.00  0.00    +0.000 S 
ATOM     26  C   UNL     1      48.381   7.761  19.619  0.00  0.00    +0.000 A 
ATOM     27  N   UNL     1      47.942   7.601  20.897  0.00  0.00    +0.000 NA
ATOM     28  C   UNL     1      47.290   6.505  21.103  0.00  0.00    +0.000 A 
ATOM     29  N   UNL     1      47.030   5.559  20.147  0.00  0.00    +0.000 N 
ATOM     30  C   UNL     1      47.401   5.709  18.833  0.00  0.00    +0.000 A 
ATOM     31  O   UNL     1      47.063   4.895  17.980  0.00  0.00    +0.000 OA
ATOM     32  C   UNL     1      48.169   6.906  18.551  0.00  0.00    +0.000 A 
ATOM     33  H   UNL     1      46.494   4.733  20.366  0.00  0.00    +0.000 HD
ENDBRANCH  20  23
ENDBRANCH  18  19
ENDBRANCH   4  18
TORSDOF 8
ENDMDL
MODEL 2
REMARK VINA RESULT:    -7.793      1.524      2.109
REMARK INTER + INTRA:         -12.661
REMARK INTER:                 -11.511
REMARK INTRA:                  -1.150
REMARK UNBOUND:                -1.223
REMARK  Name = 
REMARK  9 active torsions:
REMARK  status: ('A' for Active; 'I' for Inactive)
REMARK    1  A    between atoms: C_1  and  O_2
REMARK    2  A    between atoms: O_2  and  C_3
REMARK    3  A    between atoms: C_7  and  C_8
REMARK    4  A    between atoms: C_8  and  O_9
REMARK    5  A    between atoms: O_9  and  C_10
REMARK    6  A    between atoms: C_10  and  C_11
REMARK    7  A    between atoms: C_14  and  C_15
REMARK    8  A    between atoms: C_15  and  N_16
REMARK    9  A    between atoms: C_17  and  C_19
REMARK                            x       y       z     vdW  Elec       q    Type
REMARK                         _______ _______ _______ _____ _____    ______ ____
ROOT
ATOM      1  C   UNL     1      44.333   4.705  12.358  0.00  0.00    +0.000 A 
ATOM      2  C   UNL     1      44.879   5.940  12.034  0.00  0.00    +0.000 A 
ATOM      3  C   UNL     1      46.086   6.313  12.609  0.00  0.00    +0.000 A 
ATOM      4  C   UNL     1      46.688   5.442  13.505  0.00  0.00    +0.000 A 
ATOM      5  N   UNL     1      46.122   4.254  13.821  0.00  0.00    +0.000 NA
ATOM      6  N   UNL     1      44.936   3.883  13.246  0.00  0.00    +0.000 NA
ENDROOT
BRANCH   1   7
ATOM      7  C   UNL     1      43.072   4.226  11.695  0.00  0.00    +0.000 C 
BRANCH   7   8
ATOM      8  O   UNL     1      43.377   3.920  10.335  0.00  0.00    +0.000 OA
BRANCH   8   9
ATOM      9  C   UNL     1      44.152   2.735  10.206  0.00  0.00    +0.000 C 
BRANCH   9  14
ATOM     10  C   UNL     1      46.667   1.923   7.457  0.00  0.00    +0.000 A 
ATOM     11  C   UNL     1      47.025   3.195   7.013  0.00  0.00    +0.000 A 
ATOM     12  C   UNL     1      46.467   4.326   7.612  0.00  0.00    +0.000 A 
ATOM     13  C   UNL     1      45.548   4.188   8.654  0.00  0.00    +0.000 A 
ATOM     14  C   UNL     1      45.188   2.918   9.124  0.00  0.00    +0.000 A 
ATOM     15  C   UNL     1      45.759   1.792   8.512  0.00  0.00    +0.000 A 
BRANCH  10  17
ATOM     16  C   UNL     1      46.689  -0.449   7.601  0.00  0.00    +0.000 C 
ATOM     17  O   UNL     1      47.120   0.736   6.945  0.00  0.00    +0.000 OA
ENDBRANCH  10  17
ENDBRANCH   9  14
ENDBRANCH   8   9
ENDBRANCH   7   8
ENDBRANCH   1   7
BRANCH   4  18
ATOM     18  C   UNL     1      48.019   5.766  14.124  0.00  0.00    +0.000 C 
BRANCH  18  19
ATOM     19  N   UNL     1      47.884   6.361  15.435  0.00  0.00    +0.000 N 
ATOM     20  C   UNL     1      48.911   6.419  16.338  0.00  0.00    +0.000 C 
ATOM     21  O   UNL     1      50.029   5.979  16.083  0.00  0.00    +0.000 OA
ATOM     22  H   UNL     1      46.930   6.509  15.750  0.00  0.00    +0.000 HD
BRANCH  20  23
ATOM     23  C   UNL     1      48.623   7.106  17.606  0.00  0.00    +0.000 A 
ATOM     24  C   UNL     1      48.675   6.399  18.801  0.00  0.00    +0.000 A 
ATOM     25  S   UNL     1      48.372   7.359  20.178  0.00  0.00    +0.000 S 
ATOM     26  C   UNL     1      48.108   8.743  19.224  0.00  0.00    +0.000 A 
ATOM     27  N   UNL     1      47.779   9.934  19.794  0.00  0.00    +0.000 NA
ATOM     28  C   UNL     1      47.572  10.890  18.951  0.00  0.00    +0.000 A 
ATOM     29  N   UNL     1      47.673  10.766  17.590  0.00  0.00    +0.000 N 
ATOM     30  C   UNL     1      48.062   9.600  16.976  0.00  0.00    +0.000 A 
ATOM     31  O   UNL     1      48.245   9.549  15.765  0.00  0.00    +0.000 OA
ATOM     32  C   UNL     1      48.272   8.481  17.875  0.00  0.00    +0.000 A 
ATOM     33  H   UNL     1      47.522  11.558  16.984  0.00  0.00    +0.000 HD
ENDBRANCH  20  23
ENDBRANCH  18  19
ENDBRANCH   4  18
TORSDOF 8
ENDMDL
MODEL 3
REMARK VINA RESULT:    -7.580      1.339      1.395
REMARK INTER + INTRA:         -12.348
REMARK INTER:                 -11.084
REMARK INTRA:                  -1.265
REMARK UNBOUND:                -1.223
REMARK  Name = 
REMARK  9 active torsions:
REMARK  status: ('A' for Active; 'I' for Inactive)
REMARK    1  A    between atoms: C_1  and  O_2
REMARK    2  A    between atoms: O_2  and  C_3
REMARK    3  A    between atoms: C_7  and  C_8
REMARK    4  A    between atoms: C_8  and  O_9
REMARK    5  A    between atoms: O_9  and  C_10
REMARK    6  A    between atoms: C_10  and  C_11
REMARK    7  A    between atoms: C_14  and  C_15
REMARK    8  A    between atoms: C_15  and  N_16
REMARK    9  A    between atoms: C_17  and  C_19
REMARK                            x       y       z     vdW  Elec       q    Type
REMARK                         _______ _______ _______ _____ _____    ______ ____
ROOT
ATOM      1  C   UNL     1      44.447   5.597  12.960  0.00  0.00    +0.000 A 
ATOM      2  C   UNL     1      44.881   6.795  12.406  0.00  0.00    +0.000 A 
ATOM      3  C   UNL     1      46.213   7.156  12.548  0.00  0.00    +0.000 A 
ATOM      4  C   UNL     1      47.055   6.315  13.258  0.00  0.00    +0.000 A 
ATOM      5  N   UNL     1      46.600   5.164  13.808  0.00  0.00    +0.000 NA
ATOM      6  N   UNL     1      45.288   4.803  13.660  0.00  0.00    +0.000 NA
ENDROOT
BRANCH   1   7
ATOM      7  C   UNL     1      43.033   5.126  12.759  0.00  0.00    +0.000 C 
BRANCH   7   8
ATOM      8  O   UNL     1      42.899   4.701  11.404  0.00  0.00    +0.000 OA
BRANCH   8   9
ATOM      9  C   UNL     1      43.348   3.367  11.206  0.00  0.00    +0.000 C 
BRANCH   9  14
ATOM     10  C   UNL     1      45.710   2.008   8.538  0.00  0.00    +0.000 A 
ATOM     11  C   UNL     1      46.093   3.175   7.877  0.00  0.00    +0.000 A 
ATOM     12  C   UNL     1      45.602   4.411   8.300  0.00  0.00    +0.000 A 
ATOM     13  C   UNL     1      44.725   4.485   9.384  0.00  0.00    +0.000 A 
ATOM     14  C   UNL     1      44.341   3.325  10.071  0.00  0.00    +0.000 A 
ATOM     15  C   UNL     1      44.844   2.092   9.633  0.00  0.00    +0.000 A 
BRANCH  10  17
ATOM     16  C   UNL     1      47.184   0.608   7.308  0.00  0.00    +0.000 C 
ATOM     17  O   UNL     1      46.097   0.736   8.214  0.00  0.00    +0.000 OA
ENDBRANCH  10  17
ENDBRANCH   9  14
ENDBRANCH   8   9
ENDBRANCH   7   8
ENDBRANCH   1   7
BRANCH   4  18
ATOM     18  C   UNL     1      48.519   6.625  13.405  0.00  0.00    +0.000 C 
BRANCH  18  19
ATOM     19  N   UNL     1      48.967   6.520  14.775  0.00  0.00    +0.000 N 
ATOM     20  C   UNL     1      48.791   7.516  15.697  0.00  0.00    +0.000 C 
ATOM     21  O   UNL     1      48.218   8.567  15.421  0.00  0.00    +0.000 OA
ATOM     22  H   UNL     1      49.638   5.780  14.959  0.00  0.00    +0.000 HD
BRANCH  20  23
ATOM     23  C   UNL     1      49.257   7.227  17.062  0.00  0.00    +0.000 A 
ATOM     24  C   UNL     1      50.169   8.078  17.673  0.00  0.00    +0.000 A 
ATOM     25  S   UNL     1      50.558   7.630  19.272  0.00  0.00    +0.000 S 
ATOM     26  C   UNL     1      49.563   6.253  19.188  0.00  0.00    +0.000 A 
ATOM     27  N   UNL     1      49.457   5.400  20.243  0.00  0.00    +0.000 NA
ATOM     28  C   UNL     1      48.696   4.378  20.028  0.00  0.00    +0.000 A 
ATOM     29  N   UNL     1      48.025   4.136  18.858  0.00  0.00    +0.000 N 
ATOM     30  C   UNL     1      48.055   5.002  17.792  0.00  0.00    +0.000 A 
ATOM     31  O   UNL     1      47.362   4.810  16.799  0.00  0.00    +0.000 OA
ATOM     32  C   UNL     1      48.924   6.149  17.965  0.00  0.00    +0.000 A 
ATOM     33  H   UNL     1      47.427   3.330  18.760  0.00  0.00    +0.000 HD
ENDBRANCH  20  23
ENDBRANCH  18  19
ENDBRANCH   4  18
TORSDOF 8
ENDMDL
MODEL 4
REMARK VINA RESULT:    -7.430      4.151      4.952
REMARK INTER + INTRA:         -12.128
REMARK INTER:                 -11.041
REMARK INTRA:                  -1.087
REMARK UNBOUND:                -1.223
REMARK  Name = 
REMARK  9 active torsions:
REMARK  status: ('A' for Active; 'I' for Inactive)
REMARK    1  A    between atoms: C_1  and  O_2
REMARK    2  A    between atoms: O_2  and  C_3
REMARK    3  A    between atoms: C_7  and  C_8
REMARK    4  A    between atoms: C_8  and  O_9
REMARK    5  A    between atoms: O_9  and  C_10
REMARK    6  A    between atoms: C_10  and  C_11
REMARK    7  A    between atoms: C_14  and  C_15
REMARK    8  A    between atoms: C_15  and  N_16
REMARK    9  A    between atoms: C_17  and  C_19
REMARK                            x       y       z     vdW  Elec       q    Type
REMARK                         _______ _______ _______ _____ _____    ______ ____
ROOT
ATOM      1  C   UNL     1      47.357   5.528  13.662  0.00  0.00    +0.000 A 
ATOM      2  C   UNL     1      46.737   4.293  13.804  0.00  0.00    +0.000 A 
ATOM      3  C   UNL     1      46.884   3.600  14.997  0.00  0.00    +0.000 A 
ATOM      4  C   UNL     1      47.666   4.161  15.995  0.00  0.00    +0.000 A 
ATOM      5  N   UNL     1      48.279   5.356  15.822  0.00  0.00    +0.000 NA
ATOM      6  N   UNL     1      48.126   6.043  14.647  0.00  0.00    +0.000 NA
ENDROOT
BRANCH   1   7
ATOM      7  C   UNL     1      47.156   6.350  12.419  0.00  0.00    +0.000 C 
BRANCH   7   8
ATOM      8  O   UNL     1      45.772   6.300  12.078  0.00  0.00    +0.000 OA
BRANCH   8   9
ATOM      9  C   UNL     1      45.554   6.400  10.677  0.00  0.00    +0.000 C 
BRANCH   9  14
ATOM     10  C   UNL     1      45.389   3.394   8.335  0.00  0.00    +0.000 A 
ATOM     11  C   UNL     1      44.642   2.488   9.087  0.00  0.00    +0.000 A 
ATOM     12  C   UNL     1      44.172   2.850  10.351  0.00  0.00    +0.000 A 
ATOM     13  C   UNL     1      44.450   4.116  10.867  0.00  0.00    +0.000 A 
ATOM     14  C   UNL     1      45.186   5.045  10.120  0.00  0.00    +0.000 A 
ATOM     15  C   UNL     1      45.649   4.667   8.852  0.00  0.00    +0.000 A 
BRANCH  10  17
ATOM     16  C   UNL     1      47.270   2.698   7.060  0.00  0.00    +0.000 C 
ATOM     17  O   UNL     1      45.927   3.161   7.098  0.00  0.00    +0.000 OA
ENDBRANCH  10  17
ENDBRANCH   9  14
ENDBRANCH   8   9
ENDBRANCH   7   8
ENDBRANCH   1   7
BRANCH   4  18
ATOM     18  C   UNL     1      47.825   3.484  17.328  0.00  0.00    +0.000 C 
BRANCH  18  19
ATOM     19  N   UNL     1      49.211   3.229  17.652  0.00  0.00    +0.000 N 
ATOM     20  C   UNL     1      49.974   2.303  16.993  0.00  0.00    +0.000 C 
ATOM     21  O   UNL     1      49.530   1.635  16.063  0.00  0.00    +0.000 OA
ATOM     22  H   UNL     1      49.522   3.587  18.550  0.00  0.00    +0.000 HD
BRANCH  20  23
ATOM     23  C   UNL     1      51.381   2.206  17.410  0.00  0.00    +0.000 A 
ATOM     24  C   UNL     1      51.955   0.958  17.615  0.00  0.00    +0.000 A 
ATOM     25  S   UNL     1      53.606   1.023  18.038  0.00  0.00    +0.000 S 
ATOM     26  C   UNL     1      53.602   2.724  18.013  0.00  0.00    +0.000 A 
ATOM     27  N   UNL     1      54.725   3.432  18.311  0.00  0.00    +0.000 NA
ATOM     28  C   UNL     1      54.570   4.714  18.289  0.00  0.00    +0.000 A 
ATOM     29  N   UNL     1      53.396   5.353  17.987  0.00  0.00    +0.000 N 
ATOM     30  C   UNL     1      52.256   4.680  17.621  0.00  0.00    +0.000 A 
ATOM     31  O   UNL     1      51.252   5.282  17.255  0.00  0.00    +0.000 OA
ATOM     32  C   UNL     1      52.364   3.234  17.664  0.00  0.00    +0.000 A 
ATOM     33  H   UNL     1      53.345   6.360  17.964  0.00  0.00    +0.000 HD
ENDBRANCH  20  23
ENDBRANCH  18  19
ENDBRANCH   4  18
TORSDOF 8
ENDMDL
MODEL 5
REMARK VINA RESULT:    -7.366      3.311      8.709
REMARK INTER + INTRA:         -12.035
REMARK INTER:                 -10.590
REMARK INTRA:                  -1.445
REMARK UNBOUND:                -1.223
REMARK  Name = 
REMARK  9 active torsions:
REMARK  status: ('A' for Active; 'I' for Inactive)
REMARK    1  A    between atoms: C_1  and  O_2
REMARK    2  A    between atoms: O_2  and  C_3
REMARK    3  A    between atoms: C_7  and  C_8
REMARK    4  A    between atoms: C_8  and  O_9
REMARK    5  A    between atoms: O_9  and  C_10
REMARK    6  A    between atoms: C_10  and  C_11
REMARK    7  A    between atoms: C_14  and  C_15
REMARK    8  A    between atoms: C_15  and  N_16
REMARK    9  A    between atoms: C_17  and  C_19
REMARK                            x       y       z     vdW  Elec       q    Type
REMARK                         _______ _______ _______ _____ _____    ______ ____
ROOT
ATOM      1  C   UNL     1      49.357   7.830  15.686  0.00  0.00    +0.000 A 
ATOM      2  C   UNL     1      48.491   8.869  15.373  0.00  0.00    +0.000 A 
ATOM      3  C   UNL     1      47.868   8.874  14.133  0.00  0.00    +0.000 A 
ATOM      4  C   UNL     1      48.155   7.849  13.245  0.00  0.00    +0.000 A 
ATOM      5  N   UNL     1      49.022   6.860  13.567  0.00  0.00    +0.000 NA
ATOM      6  N   UNL     1      49.629   6.851  14.795  0.00  0.00    +0.000 NA
ENDROOT
BRANCH   1   7
ATOM      7  C   UNL     1      49.988   7.741  17.048  0.00  0.00    +0.000 C 
BRANCH   7   8
ATOM      8  O   UNL     1      49.035   7.161  17.938  0.00  0.00    +0.000 OA
BRANCH   8   9
ATOM      9  C   UNL     1      49.571   6.066  18.669  0.00  0.00    +0.000 C 
BRANCH   9  14
ATOM     10  C   UNL     1      47.888   3.553  16.345  0.00  0.00    +0.000 A 
ATOM     11  C   UNL     1      48.704   2.432  16.499  0.00  0.00    +0.000 A 
ATOM     12  C   UNL     1      49.795   2.478  17.368  0.00  0.00    +0.000 A 
ATOM     13  C   UNL     1      50.075   3.642  18.085  0.00  0.00    +0.000 A 
ATOM     14  C   UNL     1      49.258   4.773  17.955  0.00  0.00    +0.000 A 
ATOM     15  C   UNL     1      48.165   4.711  17.079  0.00  0.00    +0.000 A 
BRANCH  10  17
ATOM     16  C   UNL     1      47.070   3.680  14.118  0.00  0.00    +0.000 C 
ATOM     17  O   UNL     1      46.805   3.652  15.514  0.00  0.00    +0.000 OA
ENDBRANCH  10  17
ENDBRANCH   9  14
ENDBRANCH   8   9
ENDBRANCH   7   8
ENDBRANCH   1   7
BRANCH   4  18
ATOM     18  C   UNL     1      47.476   7.770  11.906  0.00  0.00    +0.000 C 
BRANCH  18  19
ATOM     19  N   UNL     1      46.766   6.524  11.724  0.00  0.00    +0.000 N 
ATOM     20  C   UNL     1      45.400   6.445  11.665  0.00  0.00    +0.000 C 
ATOM     21  O   UNL     1      44.685   7.440  11.745  0.00  0.00    +0.000 OA
ATOM     22  H   UNL     1      47.309   5.683  11.893  0.00  0.00    +0.000 HD
BRANCH  20  23
ATOM     23  C   UNL     1      44.837   5.108  11.422  0.00  0.00    +0.000 A 
ATOM     24  C   UNL     1      44.092   4.483  12.413  0.00  0.00    +0.000 A 
ATOM     25  S   UNL     1      43.465   2.967  11.947  0.00  0.00    +0.000 S 
ATOM     26  C   UNL     1      44.211   3.066  10.421  0.00  0.00    +0.000 A 
ATOM     27  N   UNL     1      44.089   2.058   9.514  0.00  0.00    +0.000 NA
ATOM     28  C   UNL     1      44.735   2.250   8.413  0.00  0.00    +0.000 A 
ATOM     29  N   UNL     1      45.486   3.361   8.131  0.00  0.00    +0.000 N 
ATOM     30  C   UNL     1      45.587   4.428   8.992  0.00  0.00    +0.000 A 
ATOM     31  O   UNL     1      46.180   5.451   8.668  0.00  0.00    +0.000 OA
ATOM     32  C   UNL     1      44.909   4.250  10.261  0.00  0.00    +0.000 A 
ATOM     33  H   UNL     1      45.950   3.463   7.241  0.00  0.00    +0.000 HD
ENDBRANCH  20  23
ENDBRANCH  18  19
ENDBRANCH   4  18
TORSDOF 8
ENDMDL
MODEL 6
REMARK VINA RESULT:    -7.166      4.122      4.871
REMARK INTER + INTRA:         -11.741
REMARK INTER:                 -10.775
REMARK INTRA:                  -0.966
REMARK UNBOUND:                -1.223
REMARK  Name = 
REMARK  9 active torsions:
REMARK  status: ('A' for Active; 'I' for Inactive)
REMARK    1  A    between atoms: C_1  and  O_2
REMARK    2  A    between atoms: O_2  and  C_3
REMARK    3  A    between atoms: C_7  and  C_8
REMARK    4  A    between atoms: C_8  and  O_9
REMARK    5  A    between atoms: O_9  and  C_10
REMARK    6  A    between atoms: C_10  and  C_11
REMARK    7  A    between atoms: C_14  and  C_15
REMARK    8  A    between atoms: C_15  and  N_16
REMARK    9  A    between atoms: C_17  and  C_19
REMARK                            x       y       z     vdW  Elec       q    Type
REMARK                         _______ _______ _______ _____ _____    ______ ____
ROOT
ATOM      1  C   UNL     1      47.380   5.352  13.946  0.00  0.00    +0.000 A 
ATOM      2  C   UNL     1      46.847   4.392  14.796  0.00  0.00    +0.000 A 
ATOM      3  C   UNL     1      47.240   4.381  16.127  0.00  0.00    +0.000 A 
ATOM      4  C   UNL     1      48.169   5.318  16.550  0.00  0.00    +0.000 A 
ATOM      5  N   UNL     1      48.691   6.229  15.695  0.00  0.00    +0.000 NA
ATOM      6  N   UNL     1      48.296   6.245  14.384  0.00  0.00    +0.000 NA
ENDROOT
BRANCH   1   7
ATOM      7  C   UNL     1      46.920   5.454  12.518  0.00  0.00    +0.000 C 
BRANCH   7   8
ATOM      8  O   UNL     1      45.522   5.738  12.525  0.00  0.00    +0.000 OA
BRANCH   8   9
ATOM      9  C   UNL     1      45.045   6.150  11.251  0.00  0.00    +0.000 C 
BRANCH   9  14
ATOM     10  C   UNL     1      45.596   3.886   8.231  0.00  0.00    +0.000 A 
ATOM     11  C   UNL     1      44.939   2.721   8.626  0.00  0.00    +0.000 A 
ATOM     12  C   UNL     1      44.299   2.666   9.865  0.00  0.00    +0.000 A 
ATOM     13  C   UNL     1      44.316   3.773  10.715  0.00  0.00    +0.000 A 
ATOM     14  C   UNL     1      44.957   4.957  10.329  0.00  0.00    +0.000 A 
ATOM     15  C   UNL     1      45.594   4.997   9.081  0.00  0.00    +0.000 A 
BRANCH  10  17
ATOM     16  C   UNL     1      47.038   2.964   6.583  0.00  0.00    +0.000 C 
ATOM     17  O   UNL     1      46.278   4.067   7.059  0.00  0.00    +0.000 OA
ENDBRANCH  10  17
ENDBRANCH   9  14
ENDBRANCH   8   9
ENDBRANCH   7   8
ENDBRANCH   1   7
BRANCH   4  18
ATOM     18  C   UNL     1      48.599   5.390  17.989  0.00  0.00    +0.000 C 
BRANCH  18  19
ATOM     19  N   UNL     1      49.770   4.584  18.253  0.00  0.00    +0.000 N 
ATOM     20  C   UNL     1      51.044   5.085  18.219  0.00  0.00    +0.000 C 
ATOM     21  O   UNL     1      51.274   6.267  17.977  0.00  0.00    +0.000 OA
ATOM     22  H   UNL     1      49.626   3.579  18.218  0.00  0.00    +0.000 HD
BRANCH  20  23
ATOM     23  C   UNL     1      52.120   4.144  18.563  0.00  0.00    +0.000 A 
ATOM     24  C   UNL     1      53.164   4.560  19.380  0.00  0.00    +0.000 A 
ATOM     25  S   UNL     1      54.294   3.331  19.728  0.00  0.00    +0.000 S 
ATOM     26  C   UNL     1      53.459   2.211  18.757  0.00  0.00    +0.000 A 
ATOM     27  N   UNL     1      53.918   0.940  18.600  0.00  0.00    +0.000 NA
ATOM     28  C   UNL     1      53.206   0.209  17.808  0.00  0.00    +0.000 A 
ATOM     29  N   UNL     1      52.072   0.632  17.164  0.00  0.00    +0.000 N 
ATOM     30  C   UNL     1      51.540   1.886  17.341  0.00  0.00    +0.000 A 
ATOM     31  O   UNL     1      50.469   2.199  16.834  0.00  0.00    +0.000 OA
ATOM     32  C   UNL     1      52.321   2.762  18.194  0.00  0.00    +0.000 A 
ATOM     33  H   UNL     1      51.546   0.005  16.575  0.00  0.00    +0.000 HD
ENDBRANCH  20  23
ENDBRANCH  18  19
ENDBRANCH   4  18
TORSDOF 8
ENDMDL
MODEL 7
REMARK VINA RESULT:    -6.862      6.279      9.275
REMARK INTER + INTRA:         -11.294
REMARK INTER:                 -10.292
REMARK INTRA:                  -1.002
REMARK UNBOUND:                -1.223
REMARK  Name = 
REMARK  9 active torsions:
REMARK  status: ('A' for Active; 'I' for Inactive)
REMARK    1  A    between atoms: C_1  and  O_2
REMARK    2  A    between atoms: O_2  and  C_3
REMARK    3  A    between atoms: C_7  and  C_8
REMARK    4  A    between atoms: C_8  and  O_9
REMARK    5  A    between atoms: O_9  and  C_10
REMARK    6  A    between atoms: C_10  and  C_11
REMARK    7  A    between atoms: C_14  and  C_15
REMARK    8  A    between atoms: C_15  and  N_16
REMARK    9  A    between atoms: C_17  and  C_19
REMARK                            x       y       z     vdW  Elec       q    Type
REMARK                         _______ _______ _______ _____ _____    ______ ____
ROOT
ATOM      1  C   UNL     1      50.766   2.531  17.409  0.00  0.00    +0.000 A 
ATOM      2  C   UNL     1      49.378   2.555  17.373  0.00  0.00    +0.000 A 
ATOM      3  C   UNL     1      48.732   3.768  17.179  0.00  0.00    +0.000 A 
ATOM      4  C   UNL     1      49.501   4.913  17.051  0.00  0.00    +0.000 A 
ATOM      5  N   UNL     1      50.853   4.865  17.114  0.00  0.00    +0.000 NA
ATOM      6  N   UNL     1      51.490   3.667  17.296  0.00  0.00    +0.000 NA
ENDROOT
BRANCH   1   7
ATOM      7  C   UNL     1      51.509   1.229  17.533  0.00  0.00    +0.000 C 
BRANCH   7   8
ATOM      8  O   UNL     1      52.693   1.468  18.291  0.00  0.00    +0.000 OA
BRANCH   8   9
ATOM      9  C   UNL     1      53.876   1.238  17.538  0.00  0.00    +0.000 C 
BRANCH   9  14
ATOM     10  C   UNL     1      55.010  -2.233  16.436  0.00  0.00    +0.000 A 
ATOM     11  C   UNL     1      55.052  -2.917  17.650  0.00  0.00    +0.000 A 
ATOM     12  C   UNL     1      54.698  -2.264  18.832  0.00  0.00    +0.000 A 
ATOM     13  C   UNL     1      54.303  -0.925  18.804  0.00  0.00    +0.000 A 
ATOM     14  C   UNL     1      54.240  -0.226  17.592  0.00  0.00    +0.000 A 
ATOM     15  C   UNL     1      54.598  -0.896  16.413  0.00  0.00    +0.000 A 
BRANCH  10  17
ATOM     16  C   UNL     1      54.420  -3.629  14.606  0.00  0.00    +0.000 C 
ATOM     17  O   UNL     1      55.351  -2.743  15.212  0.00  0.00    +0.000 OA
ENDBRANCH  10  17
ENDBRANCH   9  14
ENDBRANCH   8   9
ENDBRANCH   7   8
ENDBRANCH   1   7
BRANCH   4  18
ATOM     18  C   UNL     1      48.864   6.250  16.790  0.00  0.00    +0.000 C 
BRANCH  18  19
ATOM     19  N   UNL     1      47.884   6.193  15.729  0.00  0.00    +0.000 N 
ATOM     20  C   UNL     1      48.188   6.440  14.417  0.00  0.00    +0.000 C 
ATOM     21  O   UNL     1      49.329   6.713  14.053  0.00  0.00    +0.000 OA
ATOM     22  H   UNL     1      46.914   6.207  16.029  0.00  0.00    +0.000 HD
BRANCH  20  23
ATOM     23  C   UNL     1      47.087   6.287  13.455  0.00  0.00    +0.000 A 
ATOM     24  C   UNL     1      46.570   7.406  12.815  0.00  0.00    +0.000 A 
ATOM     25  S   UNL     1      45.339   7.044  11.690  0.00  0.00    +0.000 S 
ATOM     26  C   UNL     1      45.416   5.384  12.056  0.00  0.00    +0.000 A 
ATOM     27  N   UNL     1      44.590   4.493  11.443  0.00  0.00    +0.000 NA
ATOM     28  C   UNL     1      44.732   3.273  11.842  0.00  0.00    +0.000 A 
ATOM     29  N   UNL     1      45.629   2.861  12.792  0.00  0.00    +0.000 N 
ATOM     30  C   UNL     1      46.522   3.717  13.391  0.00  0.00    +0.000 A 
ATOM     31  O   UNL     1      47.383   3.300  14.159  0.00  0.00    +0.000 OA
ATOM     32  C   UNL     1      46.383   5.108  13.006  0.00  0.00    +0.000 A 
ATOM     33  H   UNL     1      45.708   1.888  13.045  0.00  0.00    +0.000 HD
ENDBRANCH  20  23
ENDBRANCH  18  19
ENDBRANCH   4  18
TORSDOF 8
ENDMDL
MODEL 8
REMARK VINA RESULT:    -6.852      2.117      3.201
REMARK INTER + INTRA:         -11.280
REMARK INTER:                 -10.279
REMARK INTRA:                  -1.001
REMARK UNBOUND:                -1.223
REMARK  Name = 
REMARK  9 active torsions:
REMARK  status: ('A' for Active; 'I' for Inactive)
REMARK    1  A    between atoms: C_1  and  O_2
REMARK    2  A    between atoms: O_2  and  C_3
REMARK    3  A    between atoms: C_7  and  C_8
REMARK    4  A    between atoms: C_8  and  O_9
REMARK    5  A    between atoms: O_9  and  C_10
REMARK    6  A    between atoms: C_10  and  C_11
REMARK    7  A    between atoms: C_14  and  C_15
REMARK    8  A    between atoms: C_15  and  N_16
REMARK    9  A    between atoms: C_17  and  C_19
REMARK                            x       y       z     vdW  Elec       q    Type
REMARK                         _______ _______ _______ _____ _____    ______ ____
ROOT
ATOM      1  C   UNL     1      45.895   5.252  12.013  0.00  0.00    +0.000 A 
ATOM      2  C   UNL     1      46.776   6.166  12.576  0.00  0.00    +0.000 A 
ATOM      3  C   UNL     1      47.302   5.905  13.834  0.00  0.00    +0.000 A 
ATOM      4  C   UNL     1      46.907   4.749  14.489  0.00  0.00    +0.000 A 
ATOM      5  N   UNL     1      46.028   3.886  13.926  0.00  0.00    +0.000 NA
ATOM      6  N   UNL     1      45.517   4.140  12.682  0.00  0.00    +0.000 NA
ENDROOT
BRANCH   1   7
ATOM      7  C   UNL     1      45.367   5.453  10.620  0.00  0.00    +0.000 C 
BRANCH   7   8
ATOM      8  O   UNL     1      44.823   4.212  10.172  0.00  0.00    +0.000 OA
BRANCH   8   9
ATOM      9  C   UNL     1      44.574   4.203   8.772  0.00  0.00    +0.000 C 
BRANCH   9  14
ATOM     10  C   UNL     1      46.619   1.161   7.720  0.00  0.00    +0.000 A 
ATOM     11  C   UNL     1      47.429   1.695   6.718  0.00  0.00    +0.000 A 
ATOM     12  C   UNL     1      47.329   3.047   6.387  0.00  0.00    +0.000 A 
ATOM     13  C   UNL     1      46.420   3.869   7.055  0.00  0.00    +0.000 A 
ATOM     14  C   UNL     1      45.609   3.354   8.075  0.00  0.00    +0.000 A 
ATOM     15  C   UNL     1      45.722   1.994   8.396  0.00  0.00    +0.000 A 
BRANCH  10  17
ATOM     16  C   UNL     1      46.491  -1.132   7.108  0.00  0.00    +0.000 C 
ATOM     17  O   UNL     1      46.598  -0.147   8.126  0.00  0.00    +0.000 OA
ENDBRANCH  10  17
ENDBRANCH   9  14
ENDBRANCH   8   9
ENDBRANCH   7   8
ENDBRANCH   1   7
BRANCH   4  18
ATOM     18  C   UNL     1      47.478   4.384  15.831  0.00  0.00    +0.000 C 
BRANCH  18  19
ATOM     19  N   UNL     1      48.169   5.492  16.452  0.00  0.00    +0.000 N 
ATOM     20  C   UNL     1      49.413   5.378  17.010  0.00  0.00    +0.000 C 
ATOM     21  O   UNL     1      50.036   4.319  17.003  0.00  0.00    +0.000 OA
ATOM     22  H   UNL     1      47.590   6.296  16.679  0.00  0.00    +0.000 HD
BRANCH  20  23
ATOM     23  C   UNL     1      49.998   6.613  17.553  0.00  0.00    +0.000 A 
ATOM     24  C   UNL     1      50.125   6.770  18.927  0.00  0.00    +0.000 A 
ATOM     25  S   UNL     1      50.875   8.233  19.383  0.00  0.00    +0.000 S 
ATOM     26  C   UNL     1      51.011   8.733  17.762  0.00  0.00    +0.000 A 
ATOM     27  N   UNL     1      51.559   9.937  17.444  0.00  0.00    +0.000 NA
ATOM     28  C   UNL     1      51.567  10.203  16.181  0.00  0.00    +0.000 A 
ATOM     29  N   UNL     1      51.083   9.371  15.205  0.00  0.00    +0.000 N 
ATOM     30  C   UNL     1      50.577   8.123  15.476  0.00  0.00    +0.000 A 
ATOM     31  O   UNL     1      50.250   7.361  14.573  0.00  0.00    +0.000 OA
ATOM     32  C   UNL     1      50.512   7.787  16.885  0.00  0.00    +0.000 A 
ATOM     33  H   UNL     1      51.138   9.627  14.231  0.00  0.00    +0.000 HD
ENDBRANCH  20  23
ENDBRANCH  18  19
ENDBRANCH   4  18
TORSDOF 8
ENDMDL
MODEL 9
REMARK VINA RESULT:    -6.639      4.228      9.129
REMARK INTER + INTRA:         -10.968
REMARK INTER:                  -9.711
REMARK INTRA:                  -1.257
REMARK UNBOUND:                -1.223
REMARK  Name = 
REMARK  9 active torsions:
REMARK  status: ('A' for Active; 'I' for Inactive)
REMARK    1  A    between atoms: C_1  and  O_2
REMARK    2  A    between atoms: O_2  and  C_3
REMARK    3  A    between atoms: C_7  and  C_8
REMARK    4  A    between atoms: C_8  and  O_9
REMARK    5  A    between atoms: O_9  and  C_10
REMARK    6  A    between atoms: C_10  and  C_11
REMARK    7  A    between atoms: C_14  and  C_15
REMARK    8  A    between atoms: C_15  and  N_16
REMARK    9  A    between atoms: C_17  and  C_19
REMARK                            x       y       z     vdW  Elec       q    Type
REMARK                         _______ _______ _______ _____ _____    ______ ____
ROOT
ATOM      1  C   UNL     1      51.338   2.524  17.461  0.00  0.00    +0.000 A 
ATOM      2  C   UNL     1      50.780   3.633  18.082  0.00  0.00    +0.000 A 
ATOM      3  C   UNL     1      49.433   3.907  17.886  0.00  0.00    +0.000 A 
ATOM      4  C   UNL     1      48.703   3.071  17.056  0.00  0.00    +0.000 A 
ATOM      5  N   UNL     1      49.278   2.009  16.444  0.00  0.00    +0.000 NA
ATOM      6  N   UNL     1      50.604   1.734  16.645  0.00  0.00    +0.000 NA
ENDROOT
BRANCH   1   7
ATOM      7  C   UNL     1      52.770   2.143  17.712  0.00  0.00    +0.000 C 
BRANCH   7   8
ATOM      8  O   UNL     1      53.409   3.238  18.366  0.00  0.00    +0.000 OA
BRANCH   8   9
ATOM      9  C   UNL     1      54.347   3.899  17.527  0.00  0.00    +0.000 C 
BRANCH   9  14
ATOM     10  C   UNL     1      53.586   7.264  15.900  0.00  0.00    +0.000 A 
ATOM     11  C   UNL     1      53.120   8.005  16.985  0.00  0.00    +0.000 A 
ATOM     12  C   UNL     1      53.064   7.426  18.254  0.00  0.00    +0.000 A 
ATOM     13  C   UNL     1      53.471   6.104  18.442  0.00  0.00    +0.000 A 
ATOM     14  C   UNL     1      53.958   5.348  17.367  0.00  0.00    +0.000 A 
ATOM     15  C   UNL     1      54.009   5.945  16.099  0.00  0.00    +0.000 A 
BRANCH  10  17
ATOM     16  C   UNL     1      54.764   7.212  13.837  0.00  0.00    +0.000 C 
ATOM     17  O   UNL     1      53.672   7.699  14.605  0.00  0.00    +0.000 OA
ENDBRANCH  10  17
ENDBRANCH   9  14
ENDBRANCH   8   9
ENDBRANCH   7   8
ENDBRANCH   1   7
BRANCH   4  18
ATOM     18  C   UNL     1      47.230   3.284  16.842  0.00  0.00    +0.000 C 
BRANCH  18  19
ATOM     19  N   UNL     1      46.962   4.325  15.876  0.00  0.00    +0.000 N 
ATOM     20  C   UNL     1      46.999   4.117  14.523  0.00  0.00    +0.000 C 
ATOM     21  O   UNL     1      47.247   3.015  14.040  0.00  0.00    +0.000 OA
ATOM     22  H   UNL     1      46.991   5.274  16.237  0.00  0.00    +0.000 HD
BRANCH  20  23
ATOM     23  C   UNL     1      46.648   5.268  13.679  0.00  0.00    +0.000 A 
ATOM     24  C   UNL     1      47.567   6.293  13.495  0.00  0.00    +0.000 A 
ATOM     25  S   UNL     1      47.023   7.521  12.442  0.00  0.00    +0.000 S 
ATOM     26  C   UNL     1      45.519   6.753  12.234  0.00  0.00    +0.000 A 
ATOM     27  N   UNL     1      44.554   7.304  11.449  0.00  0.00    +0.000 NA
ATOM     28  C   UNL     1      43.451   6.633  11.410  0.00  0.00    +0.000 A 
ATOM     29  N   UNL     1      43.227   5.458  12.078  0.00  0.00    +0.000 N 
ATOM     30  C   UNL     1      44.193   4.836  12.833  0.00  0.00    +0.000 A 
ATOM     31  O   UNL     1      43.997   3.734  13.332  0.00  0.00    +0.000 OA
ATOM     32  C   UNL     1      45.442   5.565  12.940  0.00  0.00    +0.000 A 
ATOM     33  H   UNL     1      42.350   4.969  11.989  0.00  0.00    +0.000 HD
ENDBRANCH  20  23
ENDBRANCH  18  19
ENDBRANCH   4  18
TORSDOF 8
ENDMDL
