MODEL 1
REMARK VINA RESULT:    -8.917      0.000      0.000
REMARK INTER + INTRA:         -12.858
REMARK INTER:                 -12.044
REMARK INTRA:                  -0.814
REMARK UNBOUND:                -0.814
REMARK  Name = 
REMARK  7 active torsions:
REMARK  status: ('A' for Active; 'I' for Inactive)
REMARK    1  A    between atoms: C_1  and  C_2
REMARK    2  A    between atoms: C_2  and  N_3
REMARK    3  A    between atoms: C_2  and  C_16
REMARK    4  A    between atoms: C_4  and  C_6
REMARK    5  A    between atoms: C_19  and  O_20
REMARK    6  A    between atoms: O_20  and  C_21
REMARK    7  A    between atoms: C_21  and  C_22
REMARK                            x       y       z     vdW  Elec       q    Type
REMARK                         _______ _______ _______ _____ _____    ______ ____
ROOT
ATOM      1  C   UNL     1      45.765   8.629  12.899  0.00  0.00    +0.000 C 
ATOM      2  C   UNL     1      46.726   7.436  12.888  0.00  0.00    +0.000 C 
ENDROOT
BRANCH   2   3
ATOM      3  C   UNL     1      46.047   6.240  12.240  0.00  0.00    +0.000 A 
ATOM      4  C   UNL     1      45.741   6.220  10.872  0.00  0.00    +0.000 A 
ATOM      5  C   UNL     1      45.217   5.062  10.285  0.00  0.00    +0.000 A 
ATOM      6  C   UNL     1      45.007   3.916  11.053  0.00  0.00    +0.000 A 
ATOM      7  C   UNL     1      45.230   3.957  12.427  0.00  0.00    +0.000 A 
ATOM      8  C   UNL     1      45.761   5.101  13.011  0.00  0.00    +0.000 A 
BRANCH   6   9
ATOM      9  O   UNL     1      44.607   2.792  10.376  0.00  0.00    +0.000 OA
BRANCH   9  10
ATOM     10  C   UNL     1      44.369   3.010   8.977  0.00  0.00    +0.000 C 
BRANCH  10  11
ATOM     11  C   UNL     1      45.518   2.531   8.126  0.00  0.00    +0.000 A 
ATOM     12  C   UNL     1      46.027   3.314   7.094  0.00  0.00    +0.000 A 
ATOM     13  C   UNL     1      47.079   2.818   6.332  0.00  0.00    +0.000 A 
ATOM     14  C   UNL     1      47.583   1.551   6.609  0.00  0.00    +0.000 A 
ATOM     15  C   UNL     1      47.007   0.827   7.636  0.00  0.00    +0.000 A 
ATOM     16  N   UNL     1      45.989   1.284   8.393  0.00  0.00    +0.000 NA
ENDBRANCH  10  11
ENDBRANCH   9  10
ENDBRANCH   6   9
ENDBRANCH   2   3
BRANCH   2  17
ATOM     17  N   UNL     1      47.155   7.041  14.224  0.00  0.00    +0.000 N 
ATOM     18  C   UNL     1      48.427   6.642  14.534  0.00  0.00    +0.000 C 
ATOM     19  O   UNL     1      49.338   6.619  13.711  0.00  0.00    +0.000 OA
ATOM     20  H   UNL     1      46.410   6.745  14.847  0.00  0.00    +0.000 HD
BRANCH  18  21
ATOM     21  C   UNL     1      48.671   6.320  15.945  0.00  0.00    +0.000 A 
ATOM     22  C   UNL     1      49.225   7.277  16.784  0.00  0.00    +0.000 A 
ATOM     23  S   UNL     1      49.401   6.752  18.397  0.00  0.00    +0.000 S 
ATOM     24  C   UNL     1      48.787   5.211  18.022  0.00  0.00    +0.000 A 
ATOM     25  N   UNL     1      48.692   4.242  18.972  0.00  0.00    +0.000 NA
ATOM     26  C   UNL     1      48.239   3.114  18.538  0.00  0.00    +0.000 A 
ATOM     27  N   UNL     1      47.864   2.867  17.242  0.00  0.00    +0.000 N 
ATOM     28  C   UNL     1      47.911   3.823  16.258  0.00  0.00    +0.000 A 
ATOM     29  O   UNL     1      47.517   3.593  15.118  0.00  0.00    +0.000 OA
ATOM     30  C   UNL     1      48.431   5.108  16.688  0.00  0.00    +0.000 A 
ATOM     31  H   UNL     1      47.505   1.963  16.969  0.00  0.00    +0.000 HD
ENDBRANCH  18  21
ENDBRANCH   2  17
TORSDOF 6
ENDMDL
MODEL 2
REMARK VINA RESULT:    -8.495      1.585      2.145
REMARK INTER + INTRA:         -12.289
REMARK INTER:                 -11.332
REMARK INTRA:                  -0.957
REMARK UNBOUND:                -0.814
REMARK  Name = 
REMARK  7 active torsions:
REMARK  status: ('A' for Active; 'I' for Inactive)
REMARK    1  A    between atoms: C_1  and  C_2
REMARK    2  A    between atoms: C_2  and  N_3
REMARK    3  A    between atoms: C_2  and  C_16
REMARK    4  A    between atoms: C_4  and  C_6
REMARK    5  A    between atoms: C_19  and  O_20
REMARK    6  A    between atoms: O_20  and  C_21
REMARK    7  A    between atoms: C_21  and  C_22
REMARK                            x       y       z     vdW  Elec       q    Type
REMARK                         _______ _______ _______ _____ _____    ______ ____
ROOT
ATOM      1  C   UNL     1      46.862   8.161  13.373  0.00  0.00    +0.000 C 
ATOM      2  C   UNL     1      47.332   6.706  13.283  0.00  0.00    +0.000 C 
ENDROOT
BRANCH   2   3
ATOM      3  C   UNL     1      46.365   5.909  12.422  0.00  0.00    +0.000 A 
ATOM      4  C   UNL     1      45.956   6.364  11.161  0.00  0.00    +0.000 A 
ATOM      5  C   UNL     1      45.153   5.557  10.347  0.00  0.00    +0.000 A 
ATOM      6  C   UNL     1      44.764   4.288  10.779  0.00  0.00    +0.000 A 
ATOM      7  C   UNL     1      45.097   3.865  12.063  0.00  0.00    +0.000 A 
ATOM      8  C   UNL     1      45.905   4.659  12.869  0.00  0.00    +0.000 A 
BRANCH   6   9
ATOM      9  O   UNL     1      44.083   3.517   9.872  0.00  0.00    +0.000 OA
BRANCH   9  10
ATOM     10  C   UNL     1      44.677   2.231   9.639  0.00  0.00    +0.000 C 
BRANCH  10  11
ATOM     11  C   UNL     1      45.611   2.246   8.455  0.00  0.00    +0.000 A 
ATOM     12  C   UNL     1      45.664   3.335   7.591  0.00  0.00    +0.000 A 
ATOM     13  C   UNL     1      46.535   3.290   6.508  0.00  0.00    +0.000 A 
ATOM     14  C   UNL     1      47.315   2.156   6.307  0.00  0.00    +0.000 A 
ATOM     15  C   UNL     1      47.187   1.106   7.197  0.00  0.00    +0.000 A 
ATOM     16  N   UNL     1      46.354   1.124   8.258  0.00  0.00    +0.000 NA
ENDBRANCH  10  11
ENDBRANCH   9  10
ENDBRANCH   6   9
ENDBRANCH   2   3
BRANCH   2  17
ATOM     17  N   UNL     1      47.416   6.056  14.585  0.00  0.00    +0.000 N 
ATOM     18  C   UNL     1      48.539   6.049  15.368  0.00  0.00    +0.000 C 
ATOM     19  O   UNL     1      49.574   6.630  15.055  0.00  0.00    +0.000 OA
ATOM     20  H   UNL     1      46.732   5.324  14.747  0.00  0.00    +0.000 HD
BRANCH  18  21
ATOM     21  C   UNL     1      48.412   5.372  16.665  0.00  0.00    +0.000 A 
ATOM     22  C   UNL     1      48.389   3.986  16.718  0.00  0.00    +0.000 A 
ATOM     23  S   UNL     1      48.281   3.365  18.303  0.00  0.00    +0.000 S 
ATOM     24  C   UNL     1      48.211   4.928  18.970  0.00  0.00    +0.000 A 
ATOM     25  N   UNL     1      48.084   5.114  20.312  0.00  0.00    +0.000 NA
ATOM     26  C   UNL     1      48.012   6.351  20.673  0.00  0.00    +0.000 A 
ATOM     27  N   UNL     1      48.065   7.421  19.817  0.00  0.00    +0.000 N 
ATOM     28  C   UNL     1      48.227   7.282  18.461  0.00  0.00    +0.000 A 
ATOM     29  O   UNL     1      48.327   8.258  17.722  0.00  0.00    +0.000 OA
ATOM     30  C   UNL     1      48.294   5.909  17.997  0.00  0.00    +0.000 A 
ATOM     31  H   UNL     1      48.015   8.368  20.166  0.00  0.00    +0.000 HD
ENDBRANCH  18  21
ENDBRANCH   2  17
TORSDOF 6
ENDMDL
MODEL 3
REMARK VINA RESULT:    -8.188      1.590      2.155
REMARK INTER + INTRA:         -11.874
REMARK INTER:                 -10.926
REMARK INTRA:                  -0.948
REMARK UNBOUND:                -0.814
REMARK  Name = 
REMARK  7 active torsions:
REMARK  status: ('A' for Active; 'I' for Inactive)
REMARK    1  A    between atoms: C_1  and  C_2
REMARK    2  A    between atoms: C_2  and  N_3
REMARK    3  A    between atoms: C_2  and  C_16
REMARK    4  A    between atoms: C_4  and  C_6
REMARK    5  A    between atoms: C_19  and  O_20
REMARK    6  A    between atoms: O_20  and  C_21
REMARK    7  A    between atoms: C_21  and  C_22
REMARK                            x       y       z     vdW  Elec       q    Type
REMARK                         _______ _______ _______ _____ _____    ______ ____
ROOT
ATOM      1  C   UNL     1      48.379   8.627  12.954  0.00  0.00    +0.000 C 
ATOM      2  C   UNL     1      48.471   7.195  13.489  0.00  0.00    +0.000 C 
ENDROOT
BRANCH   2   3
ATOM      3  C   UNL     1      47.423   6.328  12.810  0.00  0.00    +0.000 A 
ATOM      4  C   UNL     1      47.049   5.082  13.333  0.00  0.00    +0.000 A 
ATOM      5  C   UNL     1      46.004   4.357  12.747  0.00  0.00    +0.000 A 
ATOM      6  C   UNL     1      45.318   4.875  11.647  0.00  0.00    +0.000 A 
ATOM      7  C   UNL     1      45.741   6.072  11.073  0.00  0.00    +0.000 A 
ATOM      8  C   UNL     1      46.770   6.799  11.660  0.00  0.00    +0.000 A 
BRANCH   6   9
ATOM      9  O   UNL     1      44.232   4.160  11.213  0.00  0.00    +0.000 OA
BRANCH   9  10
ATOM     10  C   UNL     1      43.951   4.320   9.814  0.00  0.00    +0.000 C 
BRANCH  10  11
ATOM     11  C   UNL     1      44.921   3.552   8.950  0.00  0.00    +0.000 A 
ATOM     12  C   UNL     1      45.125   2.188   9.132  0.00  0.00    +0.000 A 
ATOM     13  C   UNL     1      46.040   1.532   8.315  0.00  0.00    +0.000 A 
ATOM     14  C   UNL     1      46.737   2.256   7.354  0.00  0.00    +0.000 A 
ATOM     15  C   UNL     1      46.494   3.614   7.252  0.00  0.00    +0.000 A 
ATOM     16  N   UNL     1      45.610   4.275   8.027  0.00  0.00    +0.000 NA
ENDBRANCH  10  11
ENDBRANCH   9  10
ENDBRANCH   6   9
ENDBRANCH   2   3
BRANCH   2  17
ATOM     17  N   UNL     1      48.259   7.112  14.929  0.00  0.00    +0.000 N 
ATOM     18  C   UNL     1      49.245   6.823  15.834  0.00  0.00    +0.000 C 
ATOM     19  O   UNL     1      50.416   6.644  15.510  0.00  0.00    +0.000 OA
ATOM     20  H   UNL     1      47.301   6.941  15.216  0.00  0.00    +0.000 HD
BRANCH  18  21
ATOM     21  C   UNL     1      48.840   6.824  17.245  0.00  0.00    +0.000 A 
ATOM     22  C   UNL     1      48.379   7.995  17.828  0.00  0.00    +0.000 A 
ATOM     23  S   UNL     1      47.911   7.809  19.458  0.00  0.00    +0.000 S 
ATOM     24  C   UNL     1      48.354   6.167  19.455  0.00  0.00    +0.000 A 
ATOM     25  N   UNL     1      48.232   5.405  20.575  0.00  0.00    +0.000 NA
ATOM     26  C   UNL     1      48.636   4.187  20.437  0.00  0.00    +0.000 A 
ATOM     27  N   UNL     1      49.143   3.657  19.278  0.00  0.00    +0.000 N 
ATOM     28  C   UNL     1      49.253   4.378  18.115  0.00  0.00    +0.000 A 
ATOM     29  O   UNL     1      49.658   3.865  17.076  0.00  0.00    +0.000 OA
ATOM     30  C   UNL     1      48.830   5.762  18.220  0.00  0.00    +0.000 A 
ATOM     31  H   UNL     1      49.431   2.690  19.232  0.00  0.00    +0.000 HD
ENDBRANCH  18  21
ENDBRANCH   2  17
TORSDOF 6
ENDMDL
MODEL 4
REMARK VINA RESULT:    -7.918      2.241      3.147
REMARK INTER + INTRA:         -11.509
REMARK INTER:                 -10.330
REMARK INTRA:                  -1.179
REMARK UNBOUND:                -0.814
REMARK  Name = 
REMARK  7 active torsions:
REMARK  status: ('A' for Active; 'I' for Inactive)
REMARK    1  A    between atoms: C_1  and  C_2
REMARK    2  A    between atoms: C_2  and  N_3
REMARK    3  A    between atoms: C_2  and  C_16
REMARK    4  A    between atoms: C_4  and  C_6
REMARK    5  A    between atoms: C_19  and  O_20
REMARK    6  A    between atoms: O_20  and  C_21
REMARK    7  A    between atoms: C_21  and  C_22
REMARK                            x       y       z     vdW  Elec       q    Type
REMARK                         _______ _______ _______ _____ _____    ______ ____
ROOT
ATOM      1  C   UNL     1      49.098   7.909  12.998  0.00  0.00    +0.000 C 
ATOM      2  C   UNL     1      48.550   6.622  13.621  0.00  0.00    +0.000 C 
ENDROOT
BRANCH   2   3
ATOM      3  C   UNL     1      47.301   6.184  12.872  0.00  0.00    +0.000 A 
ATOM      4  C   UNL     1      46.825   6.891  11.760  0.00  0.00    +0.000 A 
ATOM      5  C   UNL     1      45.738   6.401  11.027  0.00  0.00    +0.000 A 
ATOM      6  C   UNL     1      45.128   5.199  11.390  0.00  0.00    +0.000 A 
ATOM      7  C   UNL     1      45.543   4.537  12.542  0.00  0.00    +0.000 A 
ATOM      8  C   UNL     1      46.630   5.014  13.265  0.00  0.00    +0.000 A 
BRANCH   6   9
ATOM      9  O   UNL     1      44.152   4.731  10.548  0.00  0.00    +0.000 OA
BRANCH   9  10
ATOM     10  C   UNL     1      44.233   3.320  10.292  0.00  0.00    +0.000 C 
BRANCH  10  11
ATOM     11  C   UNL     1      45.154   3.005   9.140  0.00  0.00    +0.000 A 
ATOM     12  C   UNL     1      45.514   3.981   8.215  0.00  0.00    +0.000 A 
ATOM     13  C   UNL     1      46.357   3.632   7.166  0.00  0.00    +0.000 A 
ATOM     14  C   UNL     1      46.803   2.320   7.058  0.00  0.00    +0.000 A 
ATOM     15  C   UNL     1      46.382   1.404   8.003  0.00  0.00    +0.000 A 
ATOM     16  N   UNL     1      45.568   1.715   9.034  0.00  0.00    +0.000 NA
ENDBRANCH  10  11
ENDBRANCH   9  10
ENDBRANCH   6   9
ENDBRANCH   2   3
BRANCH   2  17
ATOM     17  N   UNL     1      48.200   6.777  15.028  0.00  0.00    +0.000 N 
ATOM     18  C   UNL     1      49.070   6.561  16.063  0.00  0.00    +0.000 C 
ATOM     19  O   UNL     1      50.246   6.252  15.892  0.00  0.00    +0.000 OA
ATOM     20  H   UNL     1      47.208   6.720  15.235  0.00  0.00    +0.000 HD
BRANCH  18  21
ATOM     21  C   UNL     1      48.538   6.807  17.408  0.00  0.00    +0.000 A 
ATOM     22  C   UNL     1      48.376   5.747  18.289  0.00  0.00    +0.000 A 
ATOM     23  S   UNL     1      47.789   6.215  19.821  0.00  0.00    +0.000 S 
ATOM     24  C   UNL     1      47.685   7.844  19.345  0.00  0.00    +0.000 A 
ATOM     25  N   UNL     1      47.219   8.797  20.198  0.00  0.00    +0.000 NA
ATOM     26  C   UNL     1      47.165   9.983  19.692  0.00  0.00    +0.000 A 
ATOM     27  N   UNL     1      47.542  10.308  18.415  0.00  0.00    +0.000 N 
ATOM     28  C   UNL     1      48.050   9.387  17.531  0.00  0.00    +0.000 A 
ATOM     29  O   UNL     1      48.433   9.714  16.412  0.00  0.00    +0.000 OA
ATOM     30  C   UNL     1      48.115   8.031  18.043  0.00  0.00    +0.000 A 
ATOM     31  H   UNL     1      47.487  11.260  18.083  0.00  0.00    +0.000 HD
ENDBRANCH  18  21
ENDBRANCH   2  17
TORSDOF 6
ENDMDL
MODEL 5
REMARK VINA RESULT:    -7.869      2.789      4.015
REMARK INTER + INTRA:         -11.442
REMARK INTER:                 -10.326
REMARK INTRA:                  -1.117
REMARK UNBOUND:                -0.814
REMARK  Name = 
REMARK  7 active torsions:
REMARK  status: ('A' for Active; 'I' for Inactive)
REMARK    1  A    between atoms: C_1  and  C_2
REMARK    2  A    between atoms: C_2  and  N_3
REMARK    3  A    between atoms: C_2  and  C_16
REMARK    4  A    between atoms: C_4  and  C_6
REMARK    5  A    between atoms: C_19  and  O_20
REMARK    6  A    between atoms: O_20  and  C_21
REMARK    7  A    between atoms: C_21  and  C_22
REMARK                            x       y       z     vdW  Elec       q    Type
REMARK                         _______ _______ _______ _____ _____    ______ ____
ROOT
ATOM      1  C   UNL     1      47.153   4.414  14.966  0.00  0.00    +0.000 C 
ATOM      2  C   UNL     1      46.743   5.599  14.086  0.00  0.00    +0.000 C 
ENDROOT
BRANCH   2   3
ATOM      3  C   UNL     1      45.938   5.098  12.897  0.00  0.00    +0.000 A 
ATOM      4  C   UNL     1      45.749   5.886  11.753  0.00  0.00    +0.000 A 
ATOM      5  C   UNL     1      45.097   5.356  10.633  0.00  0.00    +0.000 A 
ATOM      6  C   UNL     1      44.641   4.037  10.643  0.00  0.00    +0.000 A 
ATOM      7  C   UNL     1      44.752   3.278  11.806  0.00  0.00    +0.000 A 
ATOM      8  C   UNL     1      45.409   3.797  12.914  0.00  0.00    +0.000 A 
BRANCH   6   9
ATOM      9  O   UNL     1      44.125   3.561   9.465  0.00  0.00    +0.000 OA
BRANCH   9  10
ATOM     10  C   UNL     1      44.540   2.224   9.146  0.00  0.00    +0.000 C 
BRANCH  10  11
ATOM     11  C   UNL     1      45.674   2.205   8.151  0.00  0.00    +0.000 A 
ATOM     12  C   UNL     1      45.898   3.276   7.293  0.00  0.00    +0.000 A 
ATOM     13  C   UNL     1      46.950   3.200   6.387  0.00  0.00    +0.000 A 
ATOM     14  C   UNL     1      47.737   2.054   6.350  0.00  0.00    +0.000 A 
ATOM     15  C   UNL     1      47.434   1.023   7.220  0.00  0.00    +0.000 A 
ATOM     16  N   UNL     1      46.423   1.071   8.112  0.00  0.00    +0.000 NA
ENDBRANCH  10  11
ENDBRANCH   9  10
ENDBRANCH   6   9
ENDBRANCH   2   3
BRANCH   2  17
ATOM     17  N   UNL     1      47.885   6.346  13.573  0.00  0.00    +0.000 N 
ATOM     18  C   UNL     1      47.928   7.711  13.475  0.00  0.00    +0.000 C 
ATOM     19  O   UNL     1      47.011   8.436  13.852  0.00  0.00    +0.000 OA
ATOM     20  H   UNL     1      48.515   5.818  12.977  0.00  0.00    +0.000 HD
BRANCH  18  21
ATOM     21  C   UNL     1      49.183   8.278  12.968  0.00  0.00    +0.000 A 
ATOM     22  C   UNL     1      49.177   9.029  11.801  0.00  0.00    +0.000 A 
ATOM     23  S   UNL     1      50.710   9.648  11.379  0.00  0.00    +0.000 S 
ATOM     24  C   UNL     1      51.444   8.894  12.715  0.00  0.00    +0.000 A 
ATOM     25  N   UNL     1      52.782   9.001  12.934  0.00  0.00    +0.000 NA
ATOM     26  C   UNL     1      53.206   8.353  13.967  0.00  0.00    +0.000 A 
ATOM     27  N   UNL     1      52.413   7.613  14.806  0.00  0.00    +0.000 N 
ATOM     28  C   UNL     1      51.054   7.504  14.644  0.00  0.00    +0.000 A 
ATOM     29  O   UNL     1      50.359   6.882  15.442  0.00  0.00    +0.000 OA
ATOM     30  C   UNL     1      50.526   8.200  13.485  0.00  0.00    +0.000 A 
ATOM     31  H   UNL     1      52.806   7.138  15.607  0.00  0.00    +0.000 HD
ENDBRANCH  18  21
ENDBRANCH   2  17
TORSDOF 6
ENDMDL
MODEL 6
REMARK VINA RESULT:    -7.715      3.078      5.075
REMARK INTER + INTRA:         -11.235
REMARK INTER:                 -10.138
REMARK INTRA:                  -1.097
REMARK UNBOUND:                -0.814
REMARK  Name = 
REMARK  7 active torsions:
REMARK  status: ('A' for Active; 'I' for Inactive)
REMARK    1  A    between atoms: C_1  and  C_2
REMARK    2  A    between atoms: C_2  and  N_3
REMARK    3  A    between atoms: C_2  and  C_16
REMARK    4  A    between atoms: C_4  and  C_6
REMARK    5  A    between atoms: C_19  and  O_20
REMARK    6  A    between atoms: O_20  and  C_21
REMARK    7  A    between atoms: C_21  and  C_22
REMARK                            x       y       z     vdW  Elec       q    Type
REMARK                         _______ _______ _______ _____ _____    ______ ____
ROOT
ATOM      1  C   UNL     1      47.398   4.805  14.896  0.00  0.00    +0.000 C 
ATOM      2  C   UNL     1      46.877   5.904  13.965  0.00  0.00    +0.000 C 
ENDROOT
BRANCH   2   3
ATOM      3  C   UNL     1      46.026   5.284  12.868  0.00  0.00    +0.000 A 
ATOM      4  C   UNL     1      45.683   5.999  11.712  0.00  0.00    +0.000 A 
ATOM      5  C   UNL     1      44.992   5.366  10.672  0.00  0.00    +0.000 A 
ATOM      6  C   UNL     1      44.651   4.016  10.773  0.00  0.00    +0.000 A 
ATOM      7  C   UNL     1      44.915   3.325  11.953  0.00  0.00    +0.000 A 
ATOM      8  C   UNL     1      45.611   3.947  12.982  0.00  0.00    +0.000 A 
BRANCH   6   9
ATOM      9  O   UNL     1      44.085   3.445   9.662  0.00  0.00    +0.000 OA
BRANCH   9  10
ATOM     10  C   UNL     1      44.589   2.134   9.362  0.00  0.00    +0.000 C 
BRANCH  10  11
ATOM     11  C   UNL     1      45.667   2.169   8.307  0.00  0.00    +0.000 A 
ATOM     12  C   UNL     1      45.843   3.283   7.493  0.00  0.00    +0.000 A 
ATOM     13  C   UNL     1      46.845   3.257   6.528  0.00  0.00    +0.000 A 
ATOM     14  C   UNL     1      47.629   2.117   6.392  0.00  0.00    +0.000 A 
ATOM     15  C   UNL     1      47.376   1.042   7.224  0.00  0.00    +0.000 A 
ATOM     16  N   UNL     1      46.414   1.041   8.170  0.00  0.00    +0.000 NA
ENDBRANCH  10  11
ENDBRANCH   9  10
ENDBRANCH   6   9
ENDBRANCH   2   3
BRANCH   2  17
ATOM     17  N   UNL     1      47.947   6.663  13.330  0.00  0.00    +0.000 N 
ATOM     18  C   UNL     1      48.233   7.971  13.614  0.00  0.00    +0.000 C 
ATOM     19  O   UNL     1      47.630   8.616  14.468  0.00  0.00    +0.000 OA
ATOM     20  H   UNL     1      48.258   6.304  12.432  0.00  0.00    +0.000 HD
BRANCH  18  21
ATOM     21  C   UNL     1      49.375   8.549  12.894  0.00  0.00    +0.000 A 
ATOM     22  C   UNL     1      50.653   8.065  13.131  0.00  0.00    +0.000 A 
ATOM     23  S   UNL     1      51.855   8.816  12.181  0.00  0.00    +0.000 S 
ATOM     24  C   UNL     1      50.714   9.848  11.455  0.00  0.00    +0.000 A 
ATOM     25  N   UNL     1      51.093  10.783  10.542  0.00  0.00    +0.000 NA
ATOM     26  C   UNL     1      50.128  11.516  10.099  0.00  0.00    +0.000 A 
ATOM     27  N   UNL     1      48.816  11.396  10.478  0.00  0.00    +0.000 N 
ATOM     28  C   UNL     1      48.382  10.446  11.370  0.00  0.00    +0.000 A 
ATOM     29  O   UNL     1      47.193  10.323  11.651  0.00  0.00    +0.000 OA
ATOM     30  C   UNL     1      49.431   9.605  11.915  0.00  0.00    +0.000 A 
ATOM     31  H   UNL     1      48.104  11.994  10.083  0.00  0.00    +0.000 HD
ENDBRANCH  18  21
ENDBRANCH   2  17
TORSDOF 6
ENDMDL
MODEL 7
REMARK VINA RESULT:    -7.582      2.309      4.000
REMARK INTER + INTRA:         -11.055
REMARK INTER:                  -9.918
REMARK INTRA:                  -1.137
REMARK UNBOUND:                -0.814
REMARK  Name = 
REMARK  7 active torsions:
REMARK  status: ('A' for Active; 'I' for Inactive)
REMARK    1  A    between atoms: C_1  and  C_2
REMARK    2  A    between atoms: C_2  and  N_3
REMARK    3  A    between atoms: C_2  and  C_16
REMARK    4  A    between atoms: C_4  and  C_6
REMARK    5  A    between atoms: C_19  and  O_20
REMARK    6  A    between atoms: O_20  and  C_21
REMARK    7  A    between atoms: C_21  and  C_22
REMARK                            x       y       z     vdW  Elec       q    Type
REMARK                         _______ _______ _______ _____ _____    ______ ____
ROOT
ATOM      1  C   UNL     1      47.537   3.533  15.313  0.00  0.00    +0.000 C 
ATOM      2  C   UNL     1      46.972   4.891  14.883  0.00  0.00    +0.000 C 
ENDROOT
BRANCH   2   3
ATOM      3  C   UNL     1      46.216   4.737  13.573  0.00  0.00    +0.000 A 
ATOM      4  C   UNL     1      45.975   5.832  12.731  0.00  0.00    +0.000 A 
ATOM      5  C   UNL     1      45.373   5.640  11.482  0.00  0.00    +0.000 A 
ATOM      6  C   UNL     1      45.020   4.357  11.060  0.00  0.00    +0.000 A 
ATOM      7  C   UNL     1      45.181   3.279  11.926  0.00  0.00    +0.000 A 
ATOM      8  C   UNL     1      45.789   3.464  13.161  0.00  0.00    +0.000 A 
BRANCH   6   9
ATOM      9  O   UNL     1      44.550   4.245   9.776  0.00  0.00    +0.000 OA
BRANCH   9  10
ATOM     10  C   UNL     1      44.442   2.890   9.313  0.00  0.00    +0.000 C 
BRANCH  10  11
ATOM     11  C   UNL     1      45.541   2.535   8.342  0.00  0.00    +0.000 A 
ATOM     12  C   UNL     1      45.993   3.450   7.397  0.00  0.00    +0.000 A 
ATOM     13  C   UNL     1      47.000   3.065   6.519  0.00  0.00    +0.000 A 
ATOM     14  C   UNL     1      47.515   1.776   6.595  0.00  0.00    +0.000 A 
ATOM     15  C   UNL     1      46.996   0.918   7.547  0.00  0.00    +0.000 A 
ATOM     16  N   UNL     1      46.022   1.265   8.414  0.00  0.00    +0.000 NA
ENDBRANCH  10  11
ENDBRANCH   9  10
ENDBRANCH   6   9
ENDBRANCH   2   3
BRANCH   2  17
ATOM     17  N   UNL     1      48.007   5.899  14.690  0.00  0.00    +0.000 N 
ATOM     18  C   UNL     1      48.701   6.492  15.710  0.00  0.00    +0.000 C 
ATOM     19  O   UNL     1      48.537   6.193  16.890  0.00  0.00    +0.000 OA
ATOM     20  H   UNL     1      47.966   6.397  13.806  0.00  0.00    +0.000 HD
BRANCH  18  21
ATOM     21  C   UNL     1      49.731   7.458  15.309  0.00  0.00    +0.000 A 
ATOM     22  C   UNL     1      51.050   7.254  15.687  0.00  0.00    +0.000 A 
ATOM     23  S   UNL     1      52.121   8.446  15.101  0.00  0.00    +0.000 S 
ATOM     24  C   UNL     1      50.851   9.302  14.361  0.00  0.00    +0.000 A 
ATOM     25  N   UNL     1      51.083  10.465  13.694  0.00  0.00    +0.000 NA
ATOM     26  C   UNL     1      50.023  11.021  13.211  0.00  0.00    +0.000 A 
ATOM     27  N   UNL     1      48.753  10.518  13.325  0.00  0.00    +0.000 N 
ATOM     28  C   UNL     1      48.476   9.332  13.960  0.00  0.00    +0.000 A 
ATOM     29  O   UNL     1      47.337   8.876  14.001  0.00  0.00    +0.000 OA
ATOM     30  C   UNL     1      49.631   8.673  14.539  0.00  0.00    +0.000 A 
ATOM     31  H   UNL     1      47.966  10.998  12.912  0.00  0.00    +0.000 HD
ENDBRANCH  18  21
ENDBRANCH   2  17
TORSDOF 6
ENDMDL
MODEL 8
REMARK VINA RESULT:    -7.373      3.266      7.915
REMARK INTER + INTRA:         -10.773
REMARK INTER:                  -9.639
REMARK INTRA:                  -1.134
REMARK UNBOUND:                -0.814
REMARK  Name = 
REMARK  7 active torsions:
REMARK  status: ('A' for Active; 'I' for Inactive)
REMARK    1  A    between atoms: C_1  and  C_2
REMARK    2  A    between atoms: C_2  and  N_3
REMARK    3  A    between atoms: C_2  and  C_16
REMARK    4  A    between atoms: C_4  and  C_6
REMARK    5  A    between atoms: C_19  and  O_20
REMARK    6  A    between atoms: O_20  and  C_21
REMARK    7  A    between atoms: C_21  and  C_22
REMARK                            x       y       z     vdW  Elec       q    Type
REMARK                         _______ _______ _______ _____ _____    ______ ____
ROOT
ATOM      1  C   UNL     1      49.685   8.083  11.394  0.00  0.00    +0.000 C 
ATOM      2  C   UNL     1      48.470   7.742  12.261  0.00  0.00    +0.000 C 
ENDROOT
BRANCH   2   3
ATOM      3  C   UNL     1      48.935   7.259  13.626  0.00  0.00    +0.000 A 
ATOM      4  C   UNL     1      50.140   7.701  14.190  0.00  0.00    +0.000 A 
ATOM      5  C   UNL     1      50.487   7.324  15.493  0.00  0.00    +0.000 A 
ATOM      6  C   UNL     1      49.631   6.517  16.244  0.00  0.00    +0.000 A 
ATOM      7  C   UNL     1      48.474   6.007  15.659  0.00  0.00    +0.000 A 
ATOM      8  C   UNL     1      48.122   6.389  14.370  0.00  0.00    +0.000 A 
BRANCH   6   9
ATOM      9  O   UNL     1      49.988   6.297  17.549  0.00  0.00    +0.000 OA
BRANCH   9  10
ATOM     10  C   UNL     1      49.429   5.100  18.112  0.00  0.00    +0.000 C 
BRANCH  10  11
ATOM     11  C   UNL     1      50.321   3.903  17.898  0.00  0.00    +0.000 A 
ATOM     12  C   UNL     1      51.644   3.903  18.328  0.00  0.00    +0.000 A 
ATOM     13  C   UNL     1      52.425   2.776  18.093  0.00  0.00    +0.000 A 
ATOM     14  C   UNL     1      51.871   1.691  17.422  0.00  0.00    +0.000 A 
ATOM     15  C   UNL     1      50.556   1.778  17.006  0.00  0.00    +0.000 A 
ATOM     16  N   UNL     1      49.774   2.856  17.224  0.00  0.00    +0.000 NA
ENDBRANCH  10  11
ENDBRANCH   9  10
ENDBRANCH   6   9
ENDBRANCH   2   3
BRANCH   2  17
ATOM     17  N   UNL     1      47.631   6.702  11.678  0.00  0.00    +0.000 N 
ATOM     18  C   UNL     1      46.281   6.822  11.488  0.00  0.00    +0.000 C 
ATOM     19  O   UNL     1      45.657   7.844  11.760  0.00  0.00    +0.000 OA
ATOM     20  H   UNL     1      48.011   5.762  11.727  0.00  0.00    +0.000 HD
BRANCH  18  21
ATOM     21  C   UNL     1      45.619   5.677  10.850  0.00  0.00    +0.000 A 
ATOM     22  C   UNL     1      45.704   5.512   9.475  0.00  0.00    +0.000 A 
ATOM     23  S   UNL     1      44.916   4.109   8.906  0.00  0.00    +0.000 S 
ATOM     24  C   UNL     1      44.393   3.700  10.472  0.00  0.00    +0.000 A 
ATOM     25  N   UNL     1      43.629   2.596  10.692  0.00  0.00    +0.000 NA
ATOM     26  C   UNL     1      43.279   2.427  11.923  0.00  0.00    +0.000 A 
ATOM     27  N   UNL     1      43.631   3.255  12.957  0.00  0.00    +0.000 N 
ATOM     28  C   UNL     1      44.428   4.361  12.789  0.00  0.00    +0.000 A 
ATOM     29  O   UNL     1      44.774   5.055  13.740  0.00  0.00    +0.000 OA
ATOM     30  C   UNL     1      44.835   4.609  11.419  0.00  0.00    +0.000 A 
ATOM     31  H   UNL     1      43.334   3.060  13.903  0.00  0.00    +0.000 HD
ENDBRANCH  18  21
ENDBRANCH   2  17
TORSDOF 6
ENDMDL
MODEL 9
REMARK VINA RESULT:    -7.142      2.481      3.386
REMARK INTER + INTRA:         -10.460
REMARK INTER:                  -9.456
REMARK INTRA:                  -1.005
REMARK UNBOUND:                -0.814
REMARK  Name = 
REMARK  7 active torsions:
REMARK  status: ('A' for Active; 'I' for Inactive)
REMARK    1  A    between atoms: C_1  and  C_2
REMARK    2  A    between atoms: C_2  and  N_3
REMARK    3  A    between atoms: C_2  and  C_16
REMARK    4  A    between atoms: C_4  and  C_6
REMARK    5  A    between atoms: C_19  and  O_20
REMARK    6  A    between atoms: O_20  and  C_21
REMARK    7  A    between atoms: C_21  and  C_22
REMARK                            x       y       z     vdW  Elec       q    Type
REMARK                         _______ _______ _______ _____ _____    ______ ____
ROOT
ATOM      1  C   UNL     1      47.523   3.288  15.237  0.00  0.00    +0.000 C 
ATOM      2  C   UNL     1      47.005   4.727  15.156  0.00  0.00    +0.000 C 
ENDROOT
BRANCH   2   3
ATOM      3  C   UNL     1      46.475   5.001  13.757  0.00  0.00    +0.000 A 
ATOM      4  C   UNL     1      46.972   6.052  12.975  0.00  0.00    +0.000 A 
ATOM      5  C   UNL     1      46.542   6.211  11.653  0.00  0.00    +0.000 A 
ATOM      6  C   UNL     1      45.625   5.317  11.099  0.00  0.00    +0.000 A 
ATOM      7  C   UNL     1      45.064   4.322  11.897  0.00  0.00    +0.000 A 
ATOM      8  C   UNL     1      45.499   4.155  13.206  0.00  0.00    +0.000 A 
BRANCH   6   9
ATOM      9  O   UNL     1      45.351   5.471   9.764  0.00  0.00    +0.000 OA
BRANCH   9  10
ATOM     10  C   UNL     1      44.607   4.384   9.193  0.00  0.00    +0.000 C 
BRANCH  10  11
ATOM     11  C   UNL     1      45.490   3.440   8.416  0.00  0.00    +0.000 A 
ATOM     12  C   UNL     1      45.554   2.087   8.732  0.00  0.00    +0.000 A 
ATOM     13  C   UNL     1      46.394   1.264   7.990  0.00  0.00    +0.000 A 
ATOM     14  C   UNL     1      47.159   1.815   6.967  0.00  0.00    +0.000 A 
ATOM     15  C   UNL     1      47.057   3.174   6.731  0.00  0.00    +0.000 A 
ATOM     16  N   UNL     1      46.247   3.995   7.432  0.00  0.00    +0.000 NA
ENDBRANCH  10  11
ENDBRANCH   9  10
ENDBRANCH   6   9
ENDBRANCH   2   3
BRANCH   2  17
ATOM     17  N   UNL     1      48.034   5.717  15.449  0.00  0.00    +0.000 N 
ATOM     18  C   UNL     1      48.442   6.049  16.713  0.00  0.00    +0.000 C 
ATOM     19  O   UNL     1      47.998   5.506  17.721  0.00  0.00    +0.000 OA
ATOM     20  H   UNL     1      48.201   6.397  14.713  0.00  0.00    +0.000 HD
BRANCH  18  21
ATOM     21  C   UNL     1      49.518   7.043  16.798  0.00  0.00    +0.000 A 
ATOM     22  C   UNL     1      49.216   8.394  16.711  0.00  0.00    +0.000 A 
ATOM     23  S   UNL     1      50.576   9.411  16.873  0.00  0.00    +0.000 S 
ATOM     24  C   UNL     1      51.624   8.079  17.017  0.00  0.00    +0.000 A 
ATOM     25  N   UNL     1      52.966   8.253  17.158  0.00  0.00    +0.000 NA
ATOM     26  C   UNL     1      53.640   7.154  17.224  0.00  0.00    +0.000 A 
ATOM     27  N   UNL     1      53.097   5.897  17.171  0.00  0.00    +0.000 N 
ATOM     28  C   UNL     1      51.746   5.673  17.063  0.00  0.00    +0.000 A 
ATOM     29  O   UNL     1      51.279   4.538  17.074  0.00  0.00    +0.000 OA
ATOM     30  C   UNL     1      50.940   6.876  16.967  0.00  0.00    +0.000 A 
ATOM     31  H   UNL     1      53.680   5.076  17.241  0.00  0.00    +0.000 HD
ENDBRANCH  18  21
ENDBRANCH   2  17
TORSDOF 6
ENDMDL
