MODEL 1
REMARK VINA RESULT:    -7.251      0.000      0.000
REMARK INTER + INTRA:         -11.413
REMARK INTER:                 -10.430
REMARK INTRA:                  -0.983
REMARK UNBOUND:                -0.983
REMARK  Name = 
REMARK  8 active torsions:
REMARK  status: ('A' for Active; 'I' for Inactive)
REMARK    1  A    between atoms: C_2  and  C_21
REMARK    2  A    between atoms: N_3  and  CA_4
REMARK    3  A    between atoms: CA_4  and  C_5
REMARK    4  A    between atoms: CA_4  and  C_7
REMARK    5  A    between atoms: C_5  and  O_6
REMARK    6  A    between atoms: C_10  and  C_11
REMARK    7  A    between atoms: C_12  and  C_13
REMARK    8  A    between atoms: C_13  and  N_14
REMARK                            x       y       z     vdW  Elec       q    Type
REMARK                         _______ _______ _______ _____ _____    ______ ____
ROOT
ATOM      1  CA  UNL     1      48.133   5.351  16.765  0.00  0.00    +0.000 C 
ENDROOT
BRANCH   1   2
ATOM      2  C   UNL     1      47.625   5.365  15.323  0.00  0.00    +0.000 A 
ATOM      3  C   UNL     1      46.798   4.316  14.893  0.00  0.00    +0.000 A 
ATOM      4  C   UNL     1      46.245   4.308  13.607  0.00  0.00    +0.000 A 
ATOM      5  C   UNL     1      46.503   5.343  12.700  0.00  0.00    +0.000 A 
ATOM      6  C   UNL     1      47.368   6.366  13.104  0.00  0.00    +0.000 A 
ATOM      7  C   UNL     1      47.911   6.385  14.402  0.00  0.00    +0.000 A 
BRANCH   5   8
ATOM      8  C   UNL     1      45.950   5.327  11.331  0.00  0.00    +0.000 C 
ATOM      9  C   UNL     1      44.922   4.543  10.955  0.00  0.00    +0.000 C 
BRANCH   9  10
ATOM     10  C   UNL     1      44.399   4.397   9.554  0.00  0.00    +0.000 C 
BRANCH  10  11
ATOM     11  N   UNL     1      45.330   3.703   8.683  0.00  0.00    +0.000 N 
ATOM     12  C   UNL     1      45.555   2.363   8.607  0.00  0.00    +0.000 A 
ATOM     13  N   UNL     1      46.430   2.116   7.661  0.00  0.00    +0.000 NA
ATOM     14  C   UNL     1      46.713   3.362   7.174  0.00  0.00    +0.000 A 
ATOM     15  N   UNL     1      46.062   4.368   7.765  0.00  0.00    +0.000 NA
ENDBRANCH  10  11
ENDBRANCH   9  10
ENDBRANCH   5   8
ENDBRANCH   1   2
BRANCH   1  18
ATOM     16  O   UNL     1      50.029   5.898  18.772  0.00  0.00    +0.000 OA
ATOM     17  C   UNL     1      50.363   5.176  17.843  0.00  0.00    +0.000 C 
ATOM     18  N   UNL     1      49.515   4.876  16.798  0.00  0.00    +0.000 N 
ATOM     19  H   UNL     1      49.858   4.355  16.001  0.00  0.00    +0.000 HD
BRANCH  17  20
ATOM     20  C   UNL     1      51.653   4.482  17.835  0.00  0.00    +0.000 A 
ATOM     21  C   UNL     1      52.837   5.189  17.998  0.00  0.00    +0.000 A 
ATOM     22  S   UNL     1      54.216   4.184  18.089  0.00  0.00    +0.000 S 
ATOM     23  C   UNL     1      53.269   2.778  17.922  0.00  0.00    +0.000 A 
ATOM     24  N   UNL     1      53.815   1.536  18.021  0.00  0.00    +0.000 NA
ATOM     25  C   UNL     1      52.986   0.576  17.774  0.00  0.00    +0.000 A 
ATOM     26  N   UNL     1      51.680   0.743  17.402  0.00  0.00    +0.000 N 
ATOM     27  C   UNL     1      51.053   1.969  17.413  0.00  0.00    +0.000 A 
ATOM     28  O   UNL     1      49.848   2.072  17.253  0.00  0.00    +0.000 OA
ATOM     29  C   UNL     1      51.940   3.081  17.696  0.00  0.00    +0.000 A 
ATOM     30  H   UNL     1      51.085  -0.050  17.207  0.00  0.00    +0.000 HD
ENDBRANCH  17  20
ENDBRANCH   1  18
BRANCH   1  31
ATOM     31  C   UNL     1      47.256   4.539  17.750  0.00  0.00    +0.000 C 
BRANCH  31  32
ATOM     32  O   UNL     1      46.402   5.368  18.537  0.00  0.00    +0.000 OA
ATOM     33  H   UNL     1      46.900   6.171  18.769  0.00  0.00    +0.000 HD
ENDBRANCH  31  32
ENDBRANCH   1  31
TORSDOF 8
ENDMDL
MODEL 2
REMARK VINA RESULT:    -6.889      2.983      9.406
REMARK INTER + INTRA:         -10.893
REMARK INTER:                 -10.409
REMARK INTRA:                  -0.484
REMARK UNBOUND:                -0.983
REMARK  Name = 
REMARK  8 active torsions:
REMARK  status: ('A' for Active; 'I' for Inactive)
REMARK    1  A    between atoms: C_2  and  C_21
REMARK    2  A    between atoms: N_3  and  CA_4
REMARK    3  A    between atoms: CA_4  and  C_5
REMARK    4  A    between atoms: CA_4  and  C_7
REMARK    5  A    between atoms: C_5  and  O_6
REMARK    6  A    between atoms: C_10  and  C_11
REMARK    7  A    between atoms: C_12  and  C_13
REMARK    8  A    between atoms: C_13  and  N_14
REMARK                            x       y       z     vdW  Elec       q    Type
REMARK                         _______ _______ _______ _____ _____    ______ ____
ROOT
ATOM      1  CA  UNL     1      47.788   4.471  17.274  0.00  0.00    +0.000 C 
ENDROOT
BRANCH   1   2
ATOM      2  C   UNL     1      49.142   3.768  17.345  0.00  0.00    +0.000 A 
ATOM      3  C   UNL     1      50.273   4.522  17.694  0.00  0.00    +0.000 A 
ATOM      4  C   UNL     1      51.529   3.923  17.844  0.00  0.00    +0.000 A 
ATOM      5  C   UNL     1      51.705   2.549  17.644  0.00  0.00    +0.000 A 
ATOM      6  C   UNL     1      50.593   1.798  17.246  0.00  0.00    +0.000 A 
ATOM      7  C   UNL     1      49.327   2.396  17.110  0.00  0.00    +0.000 A 
BRANCH   5   8
ATOM      8  C   UNL     1      53.032   1.914  17.768  0.00  0.00    +0.000 C 
ATOM      9  C   UNL     1      53.228   0.583  17.699  0.00  0.00    +0.000 C 
BRANCH   9  10
ATOM     10  C   UNL     1      54.533  -0.123  17.936  0.00  0.00    +0.000 C 
BRANCH  10  11
ATOM     11  N   UNL     1      54.350  -1.485  18.403  0.00  0.00    +0.000 N 
ATOM     12  C   UNL     1      54.840  -2.626  17.847  0.00  0.00    +0.000 A 
ATOM     13  N   UNL     1      54.506  -3.657  18.588  0.00  0.00    +0.000 NA
ATOM     14  C   UNL     1      53.802  -3.083  19.610  0.00  0.00    +0.000 A 
ATOM     15  N   UNL     1      53.681  -1.753  19.543  0.00  0.00    +0.000 NA
ENDBRANCH  10  11
ENDBRANCH   9  10
ENDBRANCH   5   8
ENDBRANCH   1   2
BRANCH   1  18
ATOM     16  O   UNL     1      47.224   3.293  14.780  0.00  0.00    +0.000 OA
ATOM     17  C   UNL     1      47.354   4.508  14.829  0.00  0.00    +0.000 C 
ATOM     18  N   UNL     1      47.661   5.172  15.998  0.00  0.00    +0.000 N 
ATOM     19  H   UNL     1      47.855   6.165  15.980  0.00  0.00    +0.000 HD
BRANCH  17  20
ATOM     20  C   UNL     1      47.076   5.358  13.668  0.00  0.00    +0.000 A 
ATOM     21  C   UNL     1      47.954   6.370  13.307  0.00  0.00    +0.000 A 
ATOM     22  S   UNL     1      47.517   7.157  11.854  0.00  0.00    +0.000 S 
ATOM     23  C   UNL     1      46.147   6.162  11.665  0.00  0.00    +0.000 A 
ATOM     24  N   UNL     1      45.365   6.231  10.554  0.00  0.00    +0.000 NA
ATOM     25  C   UNL     1      44.312   5.484  10.605  0.00  0.00    +0.000 A 
ATOM     26  N   UNL     1      43.951   4.708  11.672  0.00  0.00    +0.000 N 
ATOM     27  C   UNL     1      44.772   4.509  12.760  0.00  0.00    +0.000 A 
ATOM     28  O   UNL     1      44.511   3.677  13.612  0.00  0.00    +0.000 OA
ATOM     29  C   UNL     1      45.974   5.319  12.746  0.00  0.00    +0.000 A 
ATOM     30  H   UNL     1      43.105   4.157  11.657  0.00  0.00    +0.000 HD
ENDBRANCH  17  20
ENDBRANCH   1  18
BRANCH   1  31
ATOM     31  C   UNL     1      47.496   5.432  18.453  0.00  0.00    +0.000 C 
BRANCH  31  32
ATOM     32  O   UNL     1      46.113   5.469  18.803  0.00  0.00    +0.000 OA
ATOM     33  H   UNL     1      46.043   5.871  19.687  0.00  0.00    +0.000 HD
ENDBRANCH  31  32
ENDBRANCH   1  31
TORSDOF 8
ENDMDL
MODEL 3
REMARK VINA RESULT:    -6.238      1.714      2.167
REMARK INTER + INTRA:          -9.956
REMARK INTER:                  -8.831
REMARK INTRA:                  -1.125
REMARK UNBOUND:                -0.983
REMARK  Name = 
REMARK  8 active torsions:
REMARK  status: ('A' for Active; 'I' for Inactive)
REMARK    1  A    between atoms: C_2  and  C_21
REMARK    2  A    between atoms: N_3  and  CA_4
REMARK    3  A    between atoms: CA_4  and  C_5
REMARK    4  A    between atoms: CA_4  and  C_7
REMARK    5  A    between atoms: C_5  and  O_6
REMARK    6  A    between atoms: C_10  and  C_11
REMARK    7  A    between atoms: C_12  and  C_13
REMARK    8  A    between atoms: C_13  and  N_14
REMARK                            x       y       z     vdW  Elec       q    Type
REMARK                         _______ _______ _______ _____ _____    ______ ____
ROOT
ATOM      1  CA  UNL     1      47.639   4.687  16.506  0.00  0.00    +0.000 C 
ENDROOT
BRANCH   1   2
ATOM      2  C   UNL     1      47.195   4.801  15.048  0.00  0.00    +0.000 A 
ATOM      3  C   UNL     1      46.790   3.638  14.376  0.00  0.00    +0.000 A 
ATOM      4  C   UNL     1      46.307   3.687  13.063  0.00  0.00    +0.000 A 
ATOM      5  C   UNL     1      46.217   4.900  12.369  0.00  0.00    +0.000 A 
ATOM      6  C   UNL     1      46.668   6.057  13.014  0.00  0.00    +0.000 A 
ATOM      7  C   UNL     1      47.138   6.012  14.339  0.00  0.00    +0.000 A 
BRANCH   5   8
ATOM      8  C   UNL     1      45.740   4.957  10.973  0.00  0.00    +0.000 C 
ATOM      9  C   UNL     1      44.922   4.036  10.429  0.00  0.00    +0.000 C 
BRANCH   9  10
ATOM     10  C   UNL     1      44.503   3.980   8.988  0.00  0.00    +0.000 C 
BRANCH  10  11
ATOM     11  N   UNL     1      45.513   3.374   8.139  0.00  0.00    +0.000 N 
ATOM     12  C   UNL     1      45.937   2.080   8.147  0.00  0.00    +0.000 A 
ATOM     13  N   UNL     1      46.823   1.901   7.195  0.00  0.00    +0.000 NA
ATOM     14  C   UNL     1      46.906   3.138   6.618  0.00  0.00    +0.000 A 
ATOM     15  N   UNL     1      46.120   4.074   7.160  0.00  0.00    +0.000 NA
ENDBRANCH  10  11
ENDBRANCH   9  10
ENDBRANCH   5   8
ENDBRANCH   1   2
BRANCH   1  18
ATOM     16  O   UNL     1      48.466   6.110  18.788  0.00  0.00    +0.000 OA
ATOM     17  C   UNL     1      49.251   6.007  17.856  0.00  0.00    +0.000 C 
ATOM     18  N   UNL     1      48.926   5.355  16.685  0.00  0.00    +0.000 N 
ATOM     19  H   UNL     1      49.566   5.373  15.902  0.00  0.00    +0.000 HD
BRANCH  17  20
ATOM     20  C   UNL     1      50.638   6.468  17.964  0.00  0.00    +0.000 A 
ATOM     21  C   UNL     1      50.925   7.817  18.116  0.00  0.00    +0.000 A 
ATOM     22  S   UNL     1      52.587   8.132  18.354  0.00  0.00    +0.000 S 
ATOM     23  C   UNL     1      52.968   6.474  18.270  0.00  0.00    +0.000 A 
ATOM     24  N   UNL     1      54.230   6.020  18.501  0.00  0.00    +0.000 NA
ATOM     25  C   UNL     1      54.377   4.752  18.303  0.00  0.00    +0.000 A 
ATOM     26  N   UNL     1      53.395   3.907  17.861  0.00  0.00    +0.000 N 
ATOM     27  C   UNL     1      52.079   4.294  17.738  0.00  0.00    +0.000 A 
ATOM     28  O   UNL     1      51.194   3.484  17.519  0.00  0.00    +0.000 OA
ATOM     29  C   UNL     1      51.859   5.710  17.961  0.00  0.00    +0.000 A 
ATOM     30  H   UNL     1      53.578   2.925  17.711  0.00  0.00    +0.000 HD
ENDBRANCH  17  20
ENDBRANCH   1  18
BRANCH   1  31
ATOM     31  C   UNL     1      47.698   3.238  17.051  0.00  0.00    +0.000 C 
BRANCH  31  32
ATOM     32  O   UNL     1      46.500   2.853  17.723  0.00  0.00    +0.000 OA
ATOM     33  H   UNL     1      46.650   1.975  18.115  0.00  0.00    +0.000 HD
ENDBRANCH  31  32
ENDBRANCH   1  31
TORSDOF 8
ENDMDL
MODEL 4
REMARK VINA RESULT:    -6.194      2.030      2.550
REMARK INTER + INTRA:          -9.892
REMARK INTER:                  -8.880
REMARK INTRA:                  -1.012
REMARK UNBOUND:                -0.983
REMARK  Name = 
REMARK  8 active torsions:
REMARK  status: ('A' for Active; 'I' for Inactive)
REMARK    1  A    between atoms: C_2  and  C_21
REMARK    2  A    between atoms: N_3  and  CA_4
REMARK    3  A    between atoms: CA_4  and  C_5
REMARK    4  A    between atoms: CA_4  and  C_7
REMARK    5  A    between atoms: C_5  and  O_6
REMARK    6  A    between atoms: C_10  and  C_11
REMARK    7  A    between atoms: C_12  and  C_13
REMARK    8  A    between atoms: C_13  and  N_14
REMARK                            x       y       z     vdW  Elec       q    Type
REMARK                         _______ _______ _______ _____ _____    ______ ____
ROOT
ATOM      1  CA  UNL     1      49.351   8.032  15.138  0.00  0.00    +0.000 C 
ENDROOT
BRANCH   1   2
ATOM      2  C   UNL     1      48.527   7.504  13.965  0.00  0.00    +0.000 A 
ATOM      3  C   UNL     1      47.868   6.273  14.109  0.00  0.00    +0.000 A 
ATOM      4  C   UNL     1      47.042   5.768  13.098  0.00  0.00    +0.000 A 
ATOM      5  C   UNL     1      46.848   6.470  11.902  0.00  0.00    +0.000 A 
ATOM      6  C   UNL     1      47.543   7.673  11.730  0.00  0.00    +0.000 A 
ATOM      7  C   UNL     1      48.360   8.190  12.751  0.00  0.00    +0.000 A 
BRANCH   5   8
ATOM      8  C   UNL     1      46.005   5.930  10.817  0.00  0.00    +0.000 C 
ATOM      9  C   UNL     1      44.977   5.086  11.026  0.00  0.00    +0.000 C 
BRANCH   9  10
ATOM     10  C   UNL     1      44.165   4.414   9.955  0.00  0.00    +0.000 C 
BRANCH  10  11
ATOM     11  N   UNL     1      44.979   3.612   9.061  0.00  0.00    +0.000 N 
ATOM     12  C   UNL     1      45.263   2.285   9.162  0.00  0.00    +0.000 A 
ATOM     13  N   UNL     1      45.986   1.909   8.133  0.00  0.00    +0.000 NA
ATOM     14  C   UNL     1      46.116   3.064   7.413  0.00  0.00    +0.000 A 
ATOM     15  N   UNL     1      45.514   4.135   7.939  0.00  0.00    +0.000 NA
ENDBRANCH  10  11
ENDBRANCH   9  10
ENDBRANCH   5   8
ENDBRANCH   1   2
BRANCH   1  18
ATOM     16  O   UNL     1      51.829   8.767  16.253  0.00  0.00    +0.000 OA
ATOM     17  C   UNL     1      51.650   7.592  15.969  0.00  0.00    +0.000 C 
ATOM     18  N   UNL     1      50.481   7.141  15.391  0.00  0.00    +0.000 N 
ATOM     19  H   UNL     1      50.407   6.180  15.081  0.00  0.00    +0.000 HD
BRANCH  17  20
ATOM     20  C   UNL     1      52.621   6.556  16.331  0.00  0.00    +0.000 A 
ATOM     21  C   UNL     1      53.910   6.585  15.818  0.00  0.00    +0.000 A 
ATOM     22  S   UNL     1      54.922   5.368  16.464  0.00  0.00    +0.000 S 
ATOM     23  C   UNL     1      53.667   4.775  17.451  0.00  0.00    +0.000 A 
ATOM     24  N   UNL     1      53.883   3.782  18.356  0.00  0.00    +0.000 NA
ATOM     25  C   UNL     1      52.814   3.377  18.958  0.00  0.00    +0.000 A 
ATOM     26  N   UNL     1      51.551   3.844  18.712  0.00  0.00    +0.000 N 
ATOM     27  C   UNL     1      51.302   4.930  17.903  0.00  0.00    +0.000 A 
ATOM     28  O   UNL     1      50.196   5.439  17.841  0.00  0.00    +0.000 OA
ATOM     29  C   UNL     1      52.475   5.430  17.212  0.00  0.00    +0.000 A 
ATOM     30  H   UNL     1      50.751   3.475  19.206  0.00  0.00    +0.000 HD
ENDBRANCH  17  20
ENDBRANCH   1  18
BRANCH   1  31
ATOM     31  C   UNL     1      48.546   8.270  16.439  0.00  0.00    +0.000 C 
BRANCH  31  32
ATOM     32  O   UNL     1      47.561   9.292  16.299  0.00  0.00    +0.000 OA
ATOM     33  H   UNL     1      46.704   8.917  16.568  0.00  0.00    +0.000 HD
ENDBRANCH  31  32
ENDBRANCH   1  31
TORSDOF 8
ENDMDL
MODEL 5
REMARK VINA RESULT:    -6.168      2.789      3.531
REMARK INTER + INTRA:          -9.856
REMARK INTER:                  -8.615
REMARK INTRA:                  -1.241
REMARK UNBOUND:                -0.983
REMARK  Name = 
REMARK  8 active torsions:
REMARK  status: ('A' for Active; 'I' for Inactive)
REMARK    1  A    between atoms: C_2  and  C_21
REMARK    2  A    between atoms: N_3  and  CA_4
REMARK    3  A    between atoms: CA_4  and  C_5
REMARK    4  A    between atoms: CA_4  and  C_7
REMARK    5  A    between atoms: C_5  and  O_6
REMARK    6  A    between atoms: C_10  and  C_11
REMARK    7  A    between atoms: C_12  and  C_13
REMARK    8  A    between atoms: C_13  and  N_14
REMARK                            x       y       z     vdW  Elec       q    Type
REMARK                         _______ _______ _______ _____ _____    ______ ____
ROOT
ATOM      1  CA  UNL     1      49.146   9.060  14.483  0.00  0.00    +0.000 C 
ENDROOT
BRANCH   1   2
ATOM      2  C   UNL     1      48.113   8.418  13.558  0.00  0.00    +0.000 A 
ATOM      3  C   UNL     1      48.507   7.331  12.763  0.00  0.00    +0.000 A 
ATOM      4  C   UNL     1      47.591   6.656  11.947  0.00  0.00    +0.000 A 
ATOM      5  C   UNL     1      46.247   7.046  11.891  0.00  0.00    +0.000 A 
ATOM      6  C   UNL     1      45.857   8.161  12.641  0.00  0.00    +0.000 A 
ATOM      7  C   UNL     1      46.773   8.830  13.473  0.00  0.00    +0.000 A 
BRANCH   5   8
ATOM      8  C   UNL     1      45.281   6.361  11.009  0.00  0.00    +0.000 C 
ATOM      9  C   UNL     1      45.226   5.024  10.865  0.00  0.00    +0.000 C 
BRANCH   9  10
ATOM     10  C   UNL     1      44.348   4.283   9.897  0.00  0.00    +0.000 C 
BRANCH  10  11
ATOM     11  N   UNL     1      45.111   3.499   8.943  0.00  0.00    +0.000 N 
ATOM     12  C   UNL     1      45.364   2.162   8.980  0.00  0.00    +0.000 A 
ATOM     13  N   UNL     1      46.042   1.812   7.912  0.00  0.00    +0.000 NA
ATOM     14  C   UNL     1      46.178   2.992   7.236  0.00  0.00    +0.000 A 
ATOM     15  N   UNL     1      45.621   4.055   7.826  0.00  0.00    +0.000 NA
ENDBRANCH  10  11
ENDBRANCH   9  10
ENDBRANCH   5   8
ENDBRANCH   1   2
BRANCH   1  18
ATOM     16  O   UNL     1      51.517   7.677  15.106  0.00  0.00    +0.000 OA
ATOM     17  C   UNL     1      50.576   7.590  15.883  0.00  0.00    +0.000 C 
ATOM     18  N   UNL     1      49.365   8.207  15.649  0.00  0.00    +0.000 N 
ATOM     19  H   UNL     1      48.581   8.033  16.264  0.00  0.00    +0.000 HD
BRANCH  17  20
ATOM     20  C   UNL     1      50.709   6.920  17.179  0.00  0.00    +0.000 A 
ATOM     21  C   UNL     1      51.663   7.338  18.097  0.00  0.00    +0.000 A 
ATOM     22  S   UNL     1      51.568   6.516  19.592  0.00  0.00    +0.000 S 
ATOM     23  C   UNL     1      50.246   5.586  19.057  0.00  0.00    +0.000 A 
ATOM     24  N   UNL     1      49.591   4.733  19.891  0.00  0.00    +0.000 NA
ATOM     25  C   UNL     1      48.675   4.029  19.312  0.00  0.00    +0.000 A 
ATOM     26  N   UNL     1      48.381   4.071  17.976  0.00  0.00    +0.000 N 
ATOM     27  C   UNL     1      48.926   5.004  17.122  0.00  0.00    +0.000 A 
ATOM     28  O   UNL     1      48.518   5.139  15.981  0.00  0.00    +0.000 OA
ATOM     29  C   UNL     1      49.954   5.827  17.728  0.00  0.00    +0.000 A 
ATOM     30  H   UNL     1      47.663   3.483  17.580  0.00  0.00    +0.000 HD
ENDBRANCH  17  20
ENDBRANCH   1  18
BRANCH   1  31
ATOM     31  C   UNL     1      48.808  10.506  14.924  0.00  0.00    +0.000 C 
BRANCH  31  32
ATOM     32  O   UNL     1      48.259  10.566  16.239  0.00  0.00    +0.000 OA
ATOM     33  H   UNL     1      47.619  11.299  16.259  0.00  0.00    +0.000 HD
ENDBRANCH  31  32
ENDBRANCH   1  31
TORSDOF 8
ENDMDL
MODEL 6
REMARK VINA RESULT:    -6.113      6.389      8.807
REMARK INTER + INTRA:          -9.776
REMARK INTER:                  -9.743
REMARK INTRA:                  -0.034
REMARK UNBOUND:                -0.983
REMARK  Name = 
REMARK  8 active torsions:
REMARK  status: ('A' for Active; 'I' for Inactive)
REMARK    1  A    between atoms: C_2  and  C_21
REMARK    2  A    between atoms: N_3  and  CA_4
REMARK    3  A    between atoms: CA_4  and  C_5
REMARK    4  A    between atoms: CA_4  and  C_7
REMARK    5  A    between atoms: C_5  and  O_6
REMARK    6  A    between atoms: C_10  and  C_11
REMARK    7  A    between atoms: C_12  and  C_13
REMARK    8  A    between atoms: C_13  and  N_14
REMARK                            x       y       z     vdW  Elec       q    Type
REMARK                         _______ _______ _______ _____ _____    ______ ____
ROOT
ATOM      1  CA  UNL     1      46.185   8.459  12.721  0.00  0.00    +0.000 C 
ENDROOT
BRANCH   1   2
ATOM      2  C   UNL     1      47.638   8.519  12.253  0.00  0.00    +0.000 A 
ATOM      3  C   UNL     1      48.350   7.317  12.118  0.00  0.00    +0.000 A 
ATOM      4  C   UNL     1      49.661   7.300  11.627  0.00  0.00    +0.000 A 
ATOM      5  C   UNL     1      50.313   8.483  11.260  0.00  0.00    +0.000 A 
ATOM      6  C   UNL     1      49.628   9.691  11.440  0.00  0.00    +0.000 A 
ATOM      7  C   UNL     1      48.305   9.708  11.917  0.00  0.00    +0.000 A 
BRANCH   5   8
ATOM      8  C   UNL     1      51.707   8.478  10.772  0.00  0.00    +0.000 C 
ATOM      9  C   UNL     1      52.245   7.462  10.072  0.00  0.00    +0.000 C 
BRANCH   9  10
ATOM     10  C   UNL     1      53.684   7.351   9.656  0.00  0.00    +0.000 C 
BRANCH  10  11
ATOM     11  N   UNL     1      53.836   7.176   8.223  0.00  0.00    +0.000 N 
ATOM     12  C   UNL     1      52.871   6.855   7.319  0.00  0.00    +0.000 A 
ATOM     13  N   UNL     1      53.385   6.843   6.111  0.00  0.00    +0.000 NA
ATOM     14  C   UNL     1      54.693   7.175   6.333  0.00  0.00    +0.000 A 
ATOM     15  N   UNL     1      55.018   7.392   7.611  0.00  0.00    +0.000 NA
ENDBRANCH  10  11
ENDBRANCH   9  10
ENDBRANCH   5   8
ENDBRANCH   1   2
BRANCH   1  18
ATOM     16  O   UNL     1      44.144   7.574  10.996  0.00  0.00    +0.000 OA
ATOM     17  C   UNL     1      44.695   6.748  11.709  0.00  0.00    +0.000 C 
ATOM     18  N   UNL     1      45.684   7.090  12.607  0.00  0.00    +0.000 N 
ATOM     19  H   UNL     1      46.048   6.396  13.247  0.00  0.00    +0.000 HD
BRANCH  17  20
ATOM     20  C   UNL     1      44.426   5.314  11.575  0.00  0.00    +0.000 A 
ATOM     21  C   UNL     1      43.762   4.623  12.579  0.00  0.00    +0.000 A 
ATOM     22  S   UNL     1      43.431   2.996  12.173  0.00  0.00    +0.000 S 
ATOM     23  C   UNL     1      44.158   3.174  10.643  0.00  0.00    +0.000 A 
ATOM     24  N   UNL     1      44.131   2.174   9.721  0.00  0.00    +0.000 NA
ATOM     25  C   UNL     1      44.809   2.426   8.650  0.00  0.00    +0.000 A 
ATOM     26  N   UNL     1      45.538   3.564   8.433  0.00  0.00    +0.000 N 
ATOM     27  C   UNL     1      45.492   4.651   9.277  0.00  0.00    +0.000 A 
ATOM     28  O   UNL     1      46.003   5.716   8.975  0.00  0.00    +0.000 OA
ATOM     29  C   UNL     1      44.733   4.421  10.492  0.00  0.00    +0.000 A 
ATOM     30  H   UNL     1      46.060   3.696   7.579  0.00  0.00    +0.000 HD
ENDBRANCH  17  20
ENDBRANCH   1  18
BRANCH   1  31
ATOM     31  C   UNL     1      45.233   9.446  12.001  0.00  0.00    +0.000 C 
BRANCH  31  32
ATOM     32  O   UNL     1      44.233   9.978  12.868  0.00  0.00    +0.000 OA
ATOM     33  H   UNL     1      43.708  10.619  12.357  0.00  0.00    +0.000 HD
ENDBRANCH  31  32
ENDBRANCH   1  31
TORSDOF 8
ENDMDL
MODEL 7
REMARK VINA RESULT:    -6.076      3.874      5.036
REMARK INTER + INTRA:          -9.723
REMARK INTER:                  -8.782
REMARK INTRA:                  -0.941
REMARK UNBOUND:                -0.983
REMARK  Name = 
REMARK  8 active torsions:
REMARK  status: ('A' for Active; 'I' for Inactive)
REMARK    1  A    between atoms: C_2  and  C_21
REMARK    2  A    between atoms: N_3  and  CA_4
REMARK    3  A    between atoms: CA_4  and  C_5
REMARK    4  A    between atoms: CA_4  and  C_7
REMARK    5  A    between atoms: C_5  and  O_6
REMARK    6  A    between atoms: C_10  and  C_11
REMARK    7  A    between atoms: C_12  and  C_13
REMARK    8  A    between atoms: C_13  and  N_14
REMARK                            x       y       z     vdW  Elec       q    Type
REMARK                         _______ _______ _______ _____ _____    ______ ____
ROOT
ATOM      1  CA  UNL     1      48.394   9.596  13.876  0.00  0.00    +0.000 C 
ENDROOT
BRANCH   1   2
ATOM      2  C   UNL     1      47.501   8.641  13.086  0.00  0.00    +0.000 A 
ATOM      3  C   UNL     1      48.107   7.696  12.244  0.00  0.00    +0.000 A 
ATOM      4  C   UNL     1      47.347   6.749  11.548  0.00  0.00    +0.000 A 
ATOM      5  C   UNL     1      45.952   6.714  11.661  0.00  0.00    +0.000 A 
ATOM      6  C   UNL     1      45.336   7.685  12.458  0.00  0.00    +0.000 A 
ATOM      7  C   UNL     1      46.099   8.627  13.171  0.00  0.00    +0.000 A 
BRANCH   5   8
ATOM      8  C   UNL     1      45.140   5.739  10.905  0.00  0.00    +0.000 C 
ATOM      9  C   UNL     1      45.608   5.038   9.855  0.00  0.00    +0.000 C 
BRANCH   9  10
ATOM     10  C   UNL     1      44.796   4.127   8.979  0.00  0.00    +0.000 C 
BRANCH  10  11
ATOM     11  N   UNL     1      45.580   3.028   8.444  0.00  0.00    +0.000 N 
ATOM     12  C   UNL     1      45.537   1.720   8.817  0.00  0.00    +0.000 A 
ATOM     13  N   UNL     1      46.354   1.020   8.065  0.00  0.00    +0.000 NA
ATOM     14  C   UNL     1      46.880   1.963   7.227  0.00  0.00    +0.000 A 
ATOM     15  N   UNL     1      46.435   3.209   7.418  0.00  0.00    +0.000 NA
ENDBRANCH  10  11
ENDBRANCH   9  10
ENDBRANCH   5   8
ENDBRANCH   1   2
BRANCH   1  18
ATOM     16  O   UNL     1      49.857   7.920  15.600  0.00  0.00    +0.000 OA
ATOM     17  C   UNL     1      48.954   8.592  16.077  0.00  0.00    +0.000 C 
ATOM     18  N   UNL     1      48.163   9.420  15.308  0.00  0.00    +0.000 N 
ATOM     19  H   UNL     1      47.365   9.885  15.722  0.00  0.00    +0.000 HD
BRANCH  17  20
ATOM     20  C   UNL     1      48.725   8.657  17.523  0.00  0.00    +0.000 A 
ATOM     21  C   UNL     1      48.852   9.858  18.206  0.00  0.00    +0.000 A 
ATOM     22  S   UNL     1      48.416   9.747  19.855  0.00  0.00    +0.000 S 
ATOM     23  C   UNL     1      48.040   8.093  19.699  0.00  0.00    +0.000 A 
ATOM     24  N   UNL     1      47.498   7.387  20.728  0.00  0.00    +0.000 NA
ATOM     25  C   UNL     1      47.361   6.125  20.485  0.00  0.00    +0.000 A 
ATOM     26  N   UNL     1      47.750   5.501  19.330  0.00  0.00    +0.000 N 
ATOM     27  C   UNL     1      48.183   6.192  18.220  0.00  0.00    +0.000 A 
ATOM     28  O   UNL     1      48.351   5.635  17.148  0.00  0.00    +0.000 OA
ATOM     29  C   UNL     1      48.342   7.617  18.438  0.00  0.00    +0.000 A 
ATOM     30  H   UNL     1      47.630   4.507  19.206  0.00  0.00    +0.000 HD
ENDBRANCH  17  20
ENDBRANCH   1  18
BRANCH   1  31
ATOM     31  C   UNL     1      48.252  11.087  13.483  0.00  0.00    +0.000 C 
BRANCH  31  32
ATOM     32  O   UNL     1      48.526  11.322  12.103  0.00  0.00    +0.000 OA
ATOM     33  H   UNL     1      49.272  11.944  12.050  0.00  0.00    +0.000 HD
ENDBRANCH  31  32
ENDBRANCH   1  31
TORSDOF 8
ENDMDL
MODEL 8
REMARK VINA RESULT:    -5.877      3.588      5.310
REMARK INTER + INTRA:          -9.437
REMARK INTER:                  -8.303
REMARK INTRA:                  -1.134
REMARK UNBOUND:                -0.983
REMARK  Name = 
REMARK  8 active torsions:
REMARK  status: ('A' for Active; 'I' for Inactive)
REMARK    1  A    between atoms: C_2  and  C_21
REMARK    2  A    between atoms: N_3  and  CA_4
REMARK    3  A    between atoms: CA_4  and  C_5
REMARK    4  A    between atoms: CA_4  and  C_7
REMARK    5  A    between atoms: C_5  and  O_6
REMARK    6  A    between atoms: C_10  and  C_11
REMARK    7  A    between atoms: C_12  and  C_13
REMARK    8  A    between atoms: C_13  and  N_14
REMARK                            x       y       z     vdW  Elec       q    Type
REMARK                         _______ _______ _______ _____ _____    ______ ____
ROOT
ATOM      1  CA  UNL     1      45.982   9.081  12.508  0.00  0.00    +0.000 C 
ENDROOT
BRANCH   1   2
ATOM      2  C   UNL     1      45.499   7.805  11.819  0.00  0.00    +0.000 A 
ATOM      3  C   UNL     1      46.456   6.881  11.372  0.00  0.00    +0.000 A 
ATOM      4  C   UNL     1      46.076   5.662  10.796  0.00  0.00    +0.000 A 
ATOM      5  C   UNL     1      44.726   5.324  10.640  0.00  0.00    +0.000 A 
ATOM      6  C   UNL     1      43.767   6.263  11.035  0.00  0.00    +0.000 A 
ATOM      7  C   UNL     1      44.146   7.480  11.629  0.00  0.00    +0.000 A 
BRANCH   5   8
ATOM      8  C   UNL     1      44.316   4.056  10.004  0.00  0.00    +0.000 C 
ATOM      9  C   UNL     1      45.118   2.978   9.914  0.00  0.00    +0.000 C 
BRANCH   9  10
ATOM     10  C   UNL     1      44.798   1.709   9.176  0.00  0.00    +0.000 C 
BRANCH  10  11
ATOM     11  N   UNL     1      45.845   1.328   8.245  0.00  0.00    +0.000 N 
ATOM     12  C   UNL     1      46.576   2.146   7.439  0.00  0.00    +0.000 A 
ATOM     13  N   UNL     1      47.464   1.437   6.782  0.00  0.00    +0.000 NA
ATOM     14  C   UNL     1      47.235   0.167   7.232  0.00  0.00    +0.000 A 
ATOM     15  N   UNL     1      46.254   0.049   8.133  0.00  0.00    +0.000 NA
ENDBRANCH  10  11
ENDBRANCH   9  10
ENDBRANCH   5   8
ENDBRANCH   1   2
BRANCH   1  18
ATOM     16  O   UNL     1      48.620   9.640  13.313  0.00  0.00    +0.000 OA
ATOM     17  C   UNL     1      47.876   9.091  14.113  0.00  0.00    +0.000 C 
ATOM     18  N   UNL     1      46.577   8.750  13.801  0.00  0.00    +0.000 N 
ATOM     19  H   UNL     1      46.024   8.212  14.455  0.00  0.00    +0.000 HD
BRANCH  17  20
ATOM     20  C   UNL     1      48.277   8.864  15.504  0.00  0.00    +0.000 A 
ATOM     21  C   UNL     1      48.456   9.933  16.372  0.00  0.00    +0.000 A 
ATOM     22  S   UNL     1      48.793   9.451  17.976  0.00  0.00    +0.000 S 
ATOM     23  C   UNL     1      48.702   7.803  17.557  0.00  0.00    +0.000 A 
ATOM     24  N   UNL     1      48.792   6.823  18.497  0.00  0.00    +0.000 NA
ATOM     25  C   UNL     1      48.803   5.627  18.010  0.00  0.00    +0.000 A 
ATOM     26  N   UNL     1      48.771   5.321  16.676  0.00  0.00    +0.000 N 
ATOM     27  C   UNL     1      48.553   6.268  15.700  0.00  0.00    +0.000 A 
ATOM     28  O   UNL     1      48.349   5.954  14.540  0.00  0.00    +0.000 OA
ATOM     29  C   UNL     1      48.522   7.630  16.198  0.00  0.00    +0.000 A 
ATOM     30  H   UNL     1      48.798   4.364  16.357  0.00  0.00    +0.000 HD
ENDBRANCH  17  20
ENDBRANCH   1  18
BRANCH   1  31
ATOM     31  C   UNL     1      44.898  10.175  12.672  0.00  0.00    +0.000 C 
BRANCH  31  32
ATOM     32  O   UNL     1      45.327  11.450  12.197  0.00  0.00    +0.000 OA
ATOM     33  H   UNL     1      45.389  11.399  11.227  0.00  0.00    +0.000 HD
ENDBRANCH  31  32
ENDBRANCH   1  31
TORSDOF 8
ENDMDL
MODEL 9
REMARK VINA RESULT:    -5.853      3.907      9.339
REMARK INTER + INTRA:          -9.402
REMARK INTER:                  -8.219
REMARK INTRA:                  -1.182
REMARK UNBOUND:                -0.983
REMARK  Name = 
REMARK  8 active torsions:
REMARK  status: ('A' for Active; 'I' for Inactive)
REMARK    1  A    between atoms: C_2  and  C_21
REMARK    2  A    between atoms: N_3  and  CA_4
REMARK    3  A    between atoms: CA_4  and  C_5
REMARK    4  A    between atoms: CA_4  and  C_7
REMARK    5  A    between atoms: C_5  and  O_6
REMARK    6  A    between atoms: C_10  and  C_11
REMARK    7  A    between atoms: C_12  and  C_13
REMARK    8  A    between atoms: C_13  and  N_14
REMARK                            x       y       z     vdW  Elec       q    Type
REMARK                         _______ _______ _______ _____ _____    ______ ____
ROOT
ATOM      1  CA  UNL     1      47.677   3.583  16.914  0.00  0.00    +0.000 C 
ENDROOT
BRANCH   1   2
ATOM      2  C   UNL     1      49.158   3.342  17.198  0.00  0.00    +0.000 A 
ATOM      3  C   UNL     1      49.673   2.048  17.028  0.00  0.00    +0.000 A 
ATOM      4  C   UNL     1      51.035   1.778  17.206  0.00  0.00    +0.000 A 
ATOM      5  C   UNL     1      51.933   2.789  17.566  0.00  0.00    +0.000 A 
ATOM      6  C   UNL     1      51.420   4.072  17.788  0.00  0.00    +0.000 A 
ATOM      7  C   UNL     1      50.054   4.348  17.594  0.00  0.00    +0.000 A 
BRANCH   5   8
ATOM      8  C   UNL     1      53.366   2.508  17.787  0.00  0.00    +0.000 C 
ATOM      9  C   UNL     1      53.880   1.264  17.829  0.00  0.00    +0.000 C 
BRANCH   9  10
ATOM     10  C   UNL     1      55.301   0.915  18.168  0.00  0.00    +0.000 C 
BRANCH  10  11
ATOM     11  N   UNL     1      55.474  -0.498  18.452  0.00  0.00    +0.000 N 
ATOM     12  C   UNL     1      55.745  -1.076  19.654  0.00  0.00    +0.000 A 
ATOM     13  N   UNL     1      55.774  -2.381  19.519  0.00  0.00    +0.000 NA
ATOM     14  C   UNL     1      55.505  -2.557  18.189  0.00  0.00    +0.000 A 
ATOM     15  N   UNL     1      55.311  -1.432  17.493  0.00  0.00    +0.000 NA
ENDBRANCH  10  11
ENDBRANCH   9  10
ENDBRANCH   5   8
ENDBRANCH   1   2
BRANCH   1  18
ATOM     16  O   UNL     1      47.252   3.261  14.150  0.00  0.00    +0.000 OA
ATOM     17  C   UNL     1      47.295   4.397  14.599  0.00  0.00    +0.000 C 
ATOM     18  N   UNL     1      47.529   4.656  15.933  0.00  0.00    +0.000 N 
ATOM     19  H   UNL     1      47.654   5.609  16.249  0.00  0.00    +0.000 HD
BRANCH  17  20
ATOM     20  C   UNL     1      46.984   5.564  13.769  0.00  0.00    +0.000 A 
ATOM     21  C   UNL     1      45.855   5.576  12.961  0.00  0.00    +0.000 A 
ATOM     22  S   UNL     1      45.602   7.073  12.177  0.00  0.00    +0.000 S 
ATOM     23  C   UNL     1      46.988   7.748  12.901  0.00  0.00    +0.000 A 
ATOM     24  N   UNL     1      47.309   9.060  12.739  0.00  0.00    +0.000 NA
ATOM     25  C   UNL     1      48.439   9.395  13.268  0.00  0.00    +0.000 A 
ATOM     26  N   UNL     1      49.291   8.536  13.909  0.00  0.00    +0.000 N 
ATOM     27  C   UNL     1      48.952   7.235  14.207  0.00  0.00    +0.000 A 
ATOM     28  O   UNL     1      49.647   6.544  14.932  0.00  0.00    +0.000 OA
ATOM     29  C   UNL     1      47.684   6.813  13.642  0.00  0.00    +0.000 A 
ATOM     30  H   UNL     1      50.169   8.856  14.289  0.00  0.00    +0.000 HD
ENDBRANCH  17  20
ENDBRANCH   1  18
BRANCH   1  31
ATOM     31  C   UNL     1      46.816   3.872  18.169  0.00  0.00    +0.000 C 
BRANCH  31  32
ATOM     32  O   UNL     1      46.478   5.251  18.299  0.00  0.00    +0.000 OA
ATOM     33  H   UNL     1      45.656   5.307  18.817  0.00  0.00    +0.000 HD
ENDBRANCH  31  32
ENDBRANCH   1  31
TORSDOF 8
ENDMDL
