MODEL 1
REMARK VINA RESULT:    -8.108      0.000      0.000
REMARK INTER + INTRA:         -13.978
REMARK INTER:                 -12.611
REMARK INTRA:                  -1.367
REMARK UNBOUND:                -1.367
REMARK  Name = 
REMARK  11 active torsions:
REMARK  status: ('A' for Active; 'I' for Inactive)
REMARK    1  A    between atoms: C_1  and  O_2
REMARK    2  A    between atoms: O_2  and  C_3
REMARK    3  A    between atoms: C_10  and  C_11
REMARK    4  A    between atoms: N_13  and  C_14
REMARK    5  A    between atoms: C_14  and  C_15
REMARK    6  A    between atoms: C_18  and  C_19
REMARK    7  A    between atoms: C_19  and  N_20
REMARK    8  A    between atoms: N_20  and  CA_21
REMARK    9  A    between atoms: CA_21  and  C_22
REMARK   10  A    between atoms: CA_21  and  C_24
REMARK   11  A    between atoms: C_22  and  O_23
REMARK                            x       y       z     vdW  Elec       q    Type
REMARK                         _______ _______ _______ _____ _____    ______ ____
ROOT
ATOM      1  C   UNL     1      46.499   7.685  12.755  0.00  0.00    +0.000 A 
ATOM      2  C   UNL     1      46.857   6.421  12.269  0.00  0.00    +0.000 A 
ATOM      3  C   UNL     1      45.978   5.694  11.457  0.00  0.00    +0.000 A 
ATOM      4  C   UNL     1      44.728   6.220  11.106  0.00  0.00    +0.000 A 
ATOM      5  C   UNL     1      44.385   7.499  11.572  0.00  0.00    +0.000 A 
ATOM      6  C   UNL     1      45.262   8.225  12.381  0.00  0.00    +0.000 A 
ENDROOT
BRANCH   1   7
ATOM      7  C   UNL     1      47.439   8.466  13.635  0.00  0.00    +0.000 C 
BRANCH   7  10
ATOM      8  C   UNL     1      48.889   7.000  14.959  0.00  0.00    +0.000 C 
ATOM      9  O   UNL     1      49.707   6.929  14.047  0.00  0.00    +0.000 OA
ATOM     10  N   UNL     1      47.744   7.746  14.844  0.00  0.00    +0.000 N 
ATOM     11  H   UNL     1      47.072   7.769  15.600  0.00  0.00    +0.000 HD
BRANCH   8  19
ATOM     12  C   UNL     1      47.399   4.244  16.475  0.00  0.00    +0.000 A 
ATOM     13  N   UNL     1      47.109   3.207  17.295  0.00  0.00    +0.000 NA
ATOM     14  C   UNL     1      47.826   3.077  18.421  0.00  0.00    +0.000 A 
ATOM     15  N   UNL     1      48.811   3.876  18.865  0.00  0.00    +0.000 NA
ATOM     16  C   UNL     1      49.063   4.874  18.008  0.00  0.00    +0.000 A 
ATOM     17  N   UNL     1      50.010   5.832  18.218  0.00  0.00    +0.000 N 
ATOM     18  C   UNL     1      50.034   6.687  17.154  0.00  0.00    +0.000 A 
ATOM     19  C   UNL     1      49.079   6.285  16.221  0.00  0.00    +0.000 A 
ATOM     20  C   UNL     1      48.437   5.128  16.793  0.00  0.00    +0.000 A 
ATOM     21  H   UNL     1      50.591   5.879  19.041  0.00  0.00    +0.000 HD
BRANCH  12  23
ATOM     22  C   UNL     1      47.113   3.499  14.288  0.00  0.00    +0.000 C 
ATOM     23  O   UNL     1      46.674   4.392  15.309  0.00  0.00    +0.000 OA
ENDBRANCH  12  23
ENDBRANCH   8  19
ENDBRANCH   7  10
ENDBRANCH   1   7
BRANCH   4  24
ATOM     24  C   UNL     1      43.773   5.452  10.211  0.00  0.00    +0.000 C 
BRANCH  24  25
ATOM     25  N   UNL     1      44.462   4.860   9.067  0.00  0.00    +0.000 NA
ATOM     26  H   UNL     1      45.443   5.141   9.104  0.00  0.00    +0.000 HD
BRANCH  25  27
ATOM     27  CA  UNL     1      44.431   3.373   9.011  0.00  0.00    +0.000 C 
BRANCH  27  28
ATOM     28  C   UNL     1      45.576   2.713   8.240  0.00  0.00    +0.000 A 
ATOM     29  C   UNL     1      46.367   3.415   7.327  0.00  0.00    +0.000 A 
ATOM     30  C   UNL     1      47.370   2.747   6.627  0.00  0.00    +0.000 A 
ATOM     31  C   UNL     1      47.583   1.398   6.870  0.00  0.00    +0.000 A 
ATOM     32  C   UNL     1      46.775   0.771   7.801  0.00  0.00    +0.000 A 
ATOM     33  N   UNL     1      45.779   1.389   8.475  0.00  0.00    +0.000 NA
ENDBRANCH  27  28
BRANCH  27  34
ATOM     34  C   UNL     1      44.078   2.676  10.350  0.00  0.00    +0.000 C 
BRANCH  34  35
ATOM     35  O   UNL     1      45.171   2.570  11.261  0.00  0.00    +0.000 OA
ATOM     36  H   UNL     1      45.460   1.641  11.236  0.00  0.00    +0.000 HD
ENDBRANCH  34  35
ENDBRANCH  27  34
ENDBRANCH  25  27
ENDBRANCH  24  25
ENDBRANCH   4  24
TORSDOF 10
ENDMDL
MODEL 2
REMARK VINA RESULT:    -7.627      1.636      2.042
REMARK INTER + INTRA:         -13.230
REMARK INTER:                 -11.709
REMARK INTRA:                  -1.520
REMARK UNBOUND:                -1.367
REMARK  Name = 
REMARK  11 active torsions:
REMARK  status: ('A' for Active; 'I' for Inactive)
REMARK    1  A    between atoms: C_1  and  O_2
REMARK    2  A    between atoms: O_2  and  C_3
REMARK    3  A    between atoms: C_10  and  C_11
REMARK    4  A    between atoms: N_13  and  C_14
REMARK    5  A    between atoms: C_14  and  C_15
REMARK    6  A    between atoms: C_18  and  C_19
REMARK    7  A    between atoms: C_19  and  N_20
REMARK    8  A    between atoms: N_20  and  CA_21
REMARK    9  A    between atoms: CA_21  and  C_22
REMARK   10  A    between atoms: CA_21  and  C_24
REMARK   11  A    between atoms: C_22  and  O_23
REMARK                            x       y       z     vdW  Elec       q    Type
REMARK                         _______ _______ _______ _____ _____    ______ ____
ROOT
ATOM      1  C   UNL     1      47.599   7.643  13.859  0.00  0.00    +0.000 A 
ATOM      2  C   UNL     1      46.575   8.476  13.389  0.00  0.00    +0.000 A 
ATOM      3  C   UNL     1      45.628   7.998  12.476  0.00  0.00    +0.000 A 
ATOM      4  C   UNL     1      45.678   6.673  12.023  0.00  0.00    +0.000 A 
ATOM      5  C   UNL     1      46.688   5.833  12.518  0.00  0.00    +0.000 A 
ATOM      6  C   UNL     1      47.633   6.311  13.430  0.00  0.00    +0.000 A 
ENDROOT
BRANCH   1   7
ATOM      7  C   UNL     1      48.624   8.158  14.835  0.00  0.00    +0.000 C 
BRANCH   7  10
ATOM      8  C   UNL     1      49.498   6.904  16.751  0.00  0.00    +0.000 C 
ATOM      9  O   UNL     1      48.918   7.642  17.541  0.00  0.00    +0.000 OA
ATOM     10  N   UNL     1      49.401   7.081  15.394  0.00  0.00    +0.000 N 
ATOM     11  H   UNL     1      49.908   6.476  14.763  0.00  0.00    +0.000 HD
BRANCH   8  19
ATOM     12  C   UNL     1      49.291   3.433  16.602  0.00  0.00    +0.000 A 
ATOM     13  N   UNL     1      49.563   2.109  16.659  0.00  0.00    +0.000 NA
ATOM     14  C   UNL     1      50.717   1.729  17.227  0.00  0.00    +0.000 A 
ATOM     15  N   UNL     1      51.659   2.512  17.781  0.00  0.00    +0.000 NA
ATOM     16  C   UNL     1      51.342   3.810  17.683  0.00  0.00    +0.000 A 
ATOM     17  N   UNL     1      52.120   4.818  18.168  0.00  0.00    +0.000 N 
ATOM     18  C   UNL     1      51.534   6.019  17.889  0.00  0.00    +0.000 A 
ATOM     19  C   UNL     1      50.340   5.797  17.206  0.00  0.00    +0.000 A 
ATOM     20  C   UNL     1      50.210   4.365  17.099  0.00  0.00    +0.000 A 
ATOM     21  H   UNL     1      52.993   4.673  18.655  0.00  0.00    +0.000 HD
BRANCH  12  23
ATOM     22  C   UNL     1      47.070   4.023  16.979  0.00  0.00    +0.000 C 
ATOM     23  O   UNL     1      48.109   3.844  16.018  0.00  0.00    +0.000 OA
ENDBRANCH  12  23
ENDBRANCH   8  19
ENDBRANCH   7  10
ENDBRANCH   1   7
BRANCH   4  24
ATOM     24  C   UNL     1      44.647   6.135  11.049  0.00  0.00    +0.000 C 
BRANCH  24  25
ATOM     25  N   UNL     1      45.274   5.481   9.904  0.00  0.00    +0.000 NA
ATOM     26  H   UNL     1      46.269   5.371  10.104  0.00  0.00    +0.000 HD
BRANCH  25  27
ATOM     27  CA  UNL     1      44.740   4.130   9.576  0.00  0.00    +0.000 C 
BRANCH  27  28
ATOM     28  C   UNL     1      45.602   3.284   8.637  0.00  0.00    +0.000 A 
ATOM     29  C   UNL     1      46.360   3.846   7.606  0.00  0.00    +0.000 A 
ATOM     30  C   UNL     1      47.094   3.017   6.760  0.00  0.00    +0.000 A 
ATOM     31  C   UNL     1      47.078   1.647   6.973  0.00  0.00    +0.000 A 
ATOM     32  C   UNL     1      46.321   1.161   8.022  0.00  0.00    +0.000 A 
ATOM     33  N   UNL     1      45.580   1.940   8.843  0.00  0.00    +0.000 NA
ENDBRANCH  27  28
BRANCH  27  34
ATOM     34  C   UNL     1      44.154   3.350  10.781  0.00  0.00    +0.000 C 
BRANCH  34  35
ATOM     35  O   UNL     1      45.134   2.712  11.598  0.00  0.00    +0.000 OA
ATOM     36  H   UNL     1      45.953   3.228  11.499  0.00  0.00    +0.000 HD
ENDBRANCH  34  35
ENDBRANCH  27  34
ENDBRANCH  25  27
ENDBRANCH  24  25
ENDBRANCH   4  24
TORSDOF 10
ENDMDL
MODEL 3
REMARK VINA RESULT:    -7.609      1.574      2.116
REMARK INTER + INTRA:         -13.203
REMARK INTER:                 -11.746
REMARK INTRA:                  -1.456
REMARK UNBOUND:                -1.367
REMARK  Name = 
REMARK  11 active torsions:
REMARK  status: ('A' for Active; 'I' for Inactive)
REMARK    1  A    between atoms: C_1  and  O_2
REMARK    2  A    between atoms: O_2  and  C_3
REMARK    3  A    between atoms: C_10  and  C_11
REMARK    4  A    between atoms: N_13  and  C_14
REMARK    5  A    between atoms: C_14  and  C_15
REMARK    6  A    between atoms: C_18  and  C_19
REMARK    7  A    between atoms: C_19  and  N_20
REMARK    8  A    between atoms: N_20  and  CA_21
REMARK    9  A    between atoms: CA_21  and  C_22
REMARK   10  A    between atoms: CA_21  and  C_24
REMARK   11  A    between atoms: C_22  and  O_23
REMARK                            x       y       z     vdW  Elec       q    Type
REMARK                         _______ _______ _______ _____ _____    ______ ____
ROOT
ATOM      1  C   UNL     1      47.507   8.040  12.688  0.00  0.00    +0.000 A 
ATOM      2  C   UNL     1      46.261   8.676  12.766  0.00  0.00    +0.000 A 
ATOM      3  C   UNL     1      45.089   7.994  12.418  0.00  0.00    +0.000 A 
ATOM      4  C   UNL     1      45.137   6.659  11.996  0.00  0.00    +0.000 A 
ATOM      5  C   UNL     1      46.385   6.017  11.947  0.00  0.00    +0.000 A 
ATOM      6  C   UNL     1      47.555   6.697  12.295  0.00  0.00    +0.000 A 
ENDROOT
BRANCH   1   7
ATOM      7  C   UNL     1      48.770   8.775  13.053  0.00  0.00    +0.000 C 
BRANCH   7  10
ATOM      8  C   UNL     1      49.597   7.920  15.196  0.00  0.00    +0.000 C 
ATOM      9  O   UNL     1      48.783   8.594  15.819  0.00  0.00    +0.000 OA
ATOM     10  N   UNL     1      49.655   7.941  13.826  0.00  0.00    +0.000 N 
ATOM     11  H   UNL     1      50.352   7.396  13.336  0.00  0.00    +0.000 HD
BRANCH   8  19
ATOM     12  C   UNL     1      49.389   5.078  17.195  0.00  0.00    +0.000 A 
ATOM     13  N   UNL     1      49.675   3.969  17.916  0.00  0.00    +0.000 NA
ATOM     14  C   UNL     1      50.966   3.683  18.141  0.00  0.00    +0.000 A 
ATOM     15  N   UNL     1      52.044   4.383  17.752  0.00  0.00    +0.000 NA
ATOM     16  C   UNL     1      51.700   5.460  17.032  0.00  0.00    +0.000 A 
ATOM     17  N   UNL     1      52.600   6.346  16.519  0.00  0.00    +0.000 N 
ATOM     18  C   UNL     1      51.936   7.313  15.821  0.00  0.00    +0.000 A 
ATOM     19  C   UNL     1      50.566   7.060  15.877  0.00  0.00    +0.000 A 
ATOM     20  C   UNL     1      50.420   5.875  16.684  0.00  0.00    +0.000 A 
ATOM     21  H   UNL     1      53.598   6.276  16.648  0.00  0.00    +0.000 HD
BRANCH  12  23
ATOM     22  C   UNL     1      47.343   4.274  16.426  0.00  0.00    +0.000 C 
ATOM     23  O   UNL     1      48.066   5.387  16.949  0.00  0.00    +0.000 OA
ENDBRANCH  12  23
ENDBRANCH   8  19
ENDBRANCH   7  10
ENDBRANCH   1   7
BRANCH   4  24
ATOM     24  C   UNL     1      43.874   5.900  11.635  0.00  0.00    +0.000 C 
BRANCH  24  25
ATOM     25  N   UNL     1      43.922   5.389  10.268  0.00  0.00    +0.000 NA
ATOM     26  H   UNL     1      44.761   5.758   9.818  0.00  0.00    +0.000 HD
BRANCH  25  27
ATOM     27  CA  UNL     1      43.975   3.906  10.149  0.00  0.00    +0.000 C 
BRANCH  27  28
ATOM     28  C   UNL     1      44.989   3.355   9.144  0.00  0.00    +0.000 A 
ATOM     29  C   UNL     1      45.675   4.177   8.246  0.00  0.00    +0.000 A 
ATOM     30  C   UNL     1      46.558   3.609   7.329  0.00  0.00    +0.000 A 
ATOM     31  C   UNL     1      46.759   2.237   7.342  0.00  0.00    +0.000 A 
ATOM     32  C   UNL     1      46.061   1.488   8.271  0.00  0.00    +0.000 A 
ATOM     33  N   UNL     1      45.180   2.010   9.155  0.00  0.00    +0.000 NA
ENDBRANCH  27  28
BRANCH  27  34
ATOM     34  C   UNL     1      43.932   3.141  11.496  0.00  0.00    +0.000 C 
BRANCH  34  35
ATOM     35  O   UNL     1      43.003   2.059  11.527  0.00  0.00    +0.000 OA
ATOM     36  H   UNL     1      43.414   1.330  11.032  0.00  0.00    +0.000 HD
ENDBRANCH  34  35
ENDBRANCH  27  34
ENDBRANCH  25  27
ENDBRANCH  24  25
ENDBRANCH   4  24
TORSDOF 10
ENDMDL
MODEL 4
REMARK VINA RESULT:    -7.042      3.506      4.921
REMARK INTER + INTRA:         -12.320
REMARK INTER:                 -11.375
REMARK INTRA:                  -0.945
REMARK UNBOUND:                -1.367
REMARK  Name = 
REMARK  11 active torsions:
REMARK  status: ('A' for Active; 'I' for Inactive)
REMARK    1  A    between atoms: C_1  and  O_2
REMARK    2  A    between atoms: O_2  and  C_3
REMARK    3  A    between atoms: C_10  and  C_11
REMARK    4  A    between atoms: N_13  and  C_14
REMARK    5  A    between atoms: C_14  and  C_15
REMARK    6  A    between atoms: C_18  and  C_19
REMARK    7  A    between atoms: C_19  and  N_20
REMARK    8  A    between atoms: N_20  and  CA_21
REMARK    9  A    between atoms: CA_21  and  C_22
REMARK   10  A    between atoms: CA_21  and  C_24
REMARK   11  A    between atoms: C_22  and  O_23
REMARK                            x       y       z     vdW  Elec       q    Type
REMARK                         _______ _______ _______ _____ _____    ______ ____
ROOT
ATOM      1  C   UNL     1      48.313   5.621  16.207  0.00  0.00    +0.000 A 
ATOM      2  C   UNL     1      47.387   4.658  15.786  0.00  0.00    +0.000 A 
ATOM      3  C   UNL     1      46.797   4.741  14.520  0.00  0.00    +0.000 A 
ATOM      4  C   UNL     1      47.128   5.783  13.644  0.00  0.00    +0.000 A 
ATOM      5  C   UNL     1      48.078   6.730  14.059  0.00  0.00    +0.000 A 
ATOM      6  C   UNL     1      48.667   6.647  15.323  0.00  0.00    +0.000 A 
ENDROOT
BRANCH   1   7
ATOM      7  C   UNL     1      48.943   5.538  17.573  0.00  0.00    +0.000 C 
BRANCH   7  10
ATOM      8  C   UNL     1      50.941   4.128  17.413  0.00  0.00    +0.000 C 
ATOM      9  O   UNL     1      51.598   5.053  16.946  0.00  0.00    +0.000 OA
ATOM     10  N   UNL     1      49.624   4.283  17.760  0.00  0.00    +0.000 N 
ATOM     11  H   UNL     1      49.095   3.499  18.121  0.00  0.00    +0.000 HD
BRANCH   8  19
ATOM     12  C   UNL     1      54.041   2.924  18.443  0.00  0.00    +0.000 A 
ATOM     13  N   UNL     1      55.058   2.135  18.860  0.00  0.00    +0.000 NA
ATOM     14  C   UNL     1      54.859   0.809  18.873  0.00  0.00    +0.000 A 
ATOM     15  N   UNL     1      53.757   0.138  18.498  0.00  0.00    +0.000 NA
ATOM     16  C   UNL     1      52.781   0.970  18.109  0.00  0.00    +0.000 A 
ATOM     17  N   UNL     1      51.560   0.552  17.672  0.00  0.00    +0.000 N 
ATOM     18  C   UNL     1      50.788   1.638  17.375  0.00  0.00    +0.000 A 
ATOM     19  C   UNL     1      51.519   2.800  17.619  0.00  0.00    +0.000 A 
ATOM     20  C   UNL     1      52.816   2.358  18.068  0.00  0.00    +0.000 A 
ATOM     21  H   UNL     1      51.291  -0.417  17.591  0.00  0.00    +0.000 HD
BRANCH  12  23
ATOM     22  C   UNL     1      55.097   4.703  17.376  0.00  0.00    +0.000 C 
ATOM     23  O   UNL     1      54.225   4.292  18.426  0.00  0.00    +0.000 OA
ENDBRANCH  12  23
ENDBRANCH   8  19
ENDBRANCH   7  10
ENDBRANCH   1   7
BRANCH   4  24
ATOM     24  C   UNL     1      46.512   5.876  12.261  0.00  0.00    +0.000 C 
BRANCH  24  25
ATOM     25  N   UNL     1      45.353   4.998  12.125  0.00  0.00    +0.000 NA
ATOM     26  H   UNL     1      44.692   5.224  12.869  0.00  0.00    +0.000 HD
BRANCH  25  27
ATOM     27  CA  UNL     1      44.619   5.114  10.835  0.00  0.00    +0.000 C 
BRANCH  27  28
ATOM     28  C   UNL     1      45.100   4.193   9.711  0.00  0.00    +0.000 A 
ATOM     29  C   UNL     1      44.938   2.806   9.758  0.00  0.00    +0.000 A 
ATOM     30  C   UNL     1      45.433   2.019   8.721  0.00  0.00    +0.000 A 
ATOM     31  C   UNL     1      46.058   2.631   7.644  0.00  0.00    +0.000 A 
ATOM     32  C   UNL     1      46.167   4.009   7.655  0.00  0.00    +0.000 A 
ATOM     33  N   UNL     1      45.718   4.795   8.660  0.00  0.00    +0.000 NA
ENDBRANCH  27  28
BRANCH  27  34
ATOM     34  C   UNL     1      43.077   5.207  10.966  0.00  0.00    +0.000 C 
BRANCH  34  35
ATOM     35  O   UNL     1      42.629   5.942  12.104  0.00  0.00    +0.000 OA
ATOM     36  H   UNL     1      42.855   6.873  11.936  0.00  0.00    +0.000 HD
ENDBRANCH  34  35
ENDBRANCH  27  34
ENDBRANCH  25  27
ENDBRANCH  24  25
ENDBRANCH   4  24
TORSDOF 10
ENDMDL
MODEL 5
REMARK VINA RESULT:    -6.959      2.367      3.740
REMARK INTER + INTRA:         -12.191
REMARK INTER:                 -10.922
REMARK INTRA:                  -1.269
REMARK UNBOUND:                -1.367
REMARK  Name = 
REMARK  11 active torsions:
REMARK  status: ('A' for Active; 'I' for Inactive)
REMARK    1  A    between atoms: C_1  and  O_2
REMARK    2  A    between atoms: O_2  and  C_3
REMARK    3  A    between atoms: C_10  and  C_11
REMARK    4  A    between atoms: N_13  and  C_14
REMARK    5  A    between atoms: C_14  and  C_15
REMARK    6  A    between atoms: C_18  and  C_19
REMARK    7  A    between atoms: C_19  and  N_20
REMARK    8  A    between atoms: N_20  and  CA_21
REMARK    9  A    between atoms: CA_21  and  C_22
REMARK   10  A    between atoms: CA_21  and  C_24
REMARK   11  A    between atoms: C_22  and  O_23
REMARK                            x       y       z     vdW  Elec       q    Type
REMARK                         _______ _______ _______ _____ _____    ______ ____
ROOT
ATOM      1  C   UNL     1      47.183   8.161  12.242  0.00  0.00    +0.000 A 
ATOM      2  C   UNL     1      47.357   6.789  12.020  0.00  0.00    +0.000 A 
ATOM      3  C   UNL     1      46.269   5.977  11.680  0.00  0.00    +0.000 A 
ATOM      4  C   UNL     1      44.986   6.522  11.544  0.00  0.00    +0.000 A 
ATOM      5  C   UNL     1      44.820   7.903  11.739  0.00  0.00    +0.000 A 
ATOM      6  C   UNL     1      45.907   8.713  12.079  0.00  0.00    +0.000 A 
ENDROOT
BRANCH   1   7
ATOM      7  C   UNL     1      48.351   9.035  12.618  0.00  0.00    +0.000 C 
BRANCH   7  10
ATOM      8  C   UNL     1      49.270   8.227  14.741  0.00  0.00    +0.000 C 
ATOM      9  O   UNL     1      48.370   8.768  15.376  0.00  0.00    +0.000 OA
ATOM     10  N   UNL     1      49.333   8.300  13.373  0.00  0.00    +0.000 N 
ATOM     11  H   UNL     1      50.098   7.867  12.873  0.00  0.00    +0.000 HD
BRANCH   8  19
ATOM     12  C   UNL     1      52.743   8.169  14.508  0.00  0.00    +0.000 A 
ATOM     13  N   UNL     1      54.059   7.942  14.727  0.00  0.00    +0.000 NA
ATOM     14  C   UNL     1      54.394   7.056  15.676  0.00  0.00    +0.000 A 
ATOM     15  N   UNL     1      53.571   6.327  16.449  0.00  0.00    +0.000 NA
ATOM     16  C   UNL     1      52.284   6.604  16.198  0.00  0.00    +0.000 A 
ATOM     17  N   UNL     1      51.242   6.001  16.837  0.00  0.00    +0.000 N 
ATOM     18  C   UNL     1      50.066   6.517  16.374  0.00  0.00    +0.000 A 
ATOM     19  C   UNL     1      50.339   7.481  15.405  0.00  0.00    +0.000 A 
ATOM     20  C   UNL     1      51.775   7.512  15.278  0.00  0.00    +0.000 A 
ATOM     21  H   UNL     1      51.349   5.287  17.542  0.00  0.00    +0.000 HD
BRANCH  12  23
ATOM     22  C   UNL     1      52.944   8.766  12.267  0.00  0.00    +0.000 C 
ATOM     23  O   UNL     1      52.378   9.081  13.538  0.00  0.00    +0.000 OA
ENDBRANCH  12  23
ENDBRANCH   8  19
ENDBRANCH   7  10
ENDBRANCH   1   7
BRANCH   4  24
ATOM     24  C   UNL     1      43.800   5.659  11.156  0.00  0.00    +0.000 C 
BRANCH  24  25
ATOM     25  N   UNL     1      43.952   5.101   9.815  0.00  0.00    +0.000 NA
ATOM     26  H   UNL     1      44.776   5.524   9.385  0.00  0.00    +0.000 HD
BRANCH  25  27
ATOM     27  CA  UNL     1      44.136   3.625   9.761  0.00  0.00    +0.000 C 
BRANCH  27  28
ATOM     28  C   UNL     1      45.198   3.122   8.781  0.00  0.00    +0.000 A 
ATOM     29  C   UNL     1      45.616   1.789   8.750  0.00  0.00    +0.000 A 
ATOM     30  C   UNL     1      46.616   1.401   7.859  0.00  0.00    +0.000 A 
ATOM     31  C   UNL     1      47.161   2.344   7.000  0.00  0.00    +0.000 A 
ATOM     32  C   UNL     1      46.686   3.640   7.072  0.00  0.00    +0.000 A 
ATOM     33  N   UNL     1      45.735   4.048   7.943  0.00  0.00    +0.000 NA
ENDBRANCH  27  28
BRANCH  27  34
ATOM     34  C   UNL     1      44.156   2.919  11.141  0.00  0.00    +0.000 C 
BRANCH  34  35
ATOM     35  O   UNL     1      42.883   2.445  11.576  0.00  0.00    +0.000 OA
ATOM     36  H   UNL     1      42.486   3.163  12.097  0.00  0.00    +0.000 HD
ENDBRANCH  34  35
ENDBRANCH  27  34
ENDBRANCH  25  27
ENDBRANCH  24  25
ENDBRANCH   4  24
TORSDOF 10
ENDMDL
MODEL 6
REMARK VINA RESULT:    -6.944      2.469      7.900
REMARK INTER + INTRA:         -12.167
REMARK INTER:                 -10.258
REMARK INTRA:                  -1.909
REMARK UNBOUND:                -1.367
REMARK  Name = 
REMARK  11 active torsions:
REMARK  status: ('A' for Active; 'I' for Inactive)
REMARK    1  A    between atoms: C_1  and  O_2
REMARK    2  A    between atoms: O_2  and  C_3
REMARK    3  A    between atoms: C_10  and  C_11
REMARK    4  A    between atoms: N_13  and  C_14
REMARK    5  A    between atoms: C_14  and  C_15
REMARK    6  A    between atoms: C_18  and  C_19
REMARK    7  A    between atoms: C_19  and  N_20
REMARK    8  A    between atoms: N_20  and  CA_21
REMARK    9  A    between atoms: CA_21  and  C_22
REMARK   10  A    between atoms: CA_21  and  C_24
REMARK   11  A    between atoms: C_22  and  O_23
REMARK                            x       y       z     vdW  Elec       q    Type
REMARK                         _______ _______ _______ _____ _____    ______ ____
ROOT
ATOM      1  C   UNL     1      48.544   7.940  13.578  0.00  0.00    +0.000 A 
ATOM      2  C   UNL     1      48.167   8.976  14.442  0.00  0.00    +0.000 A 
ATOM      3  C   UNL     1      48.255   8.816  15.829  0.00  0.00    +0.000 A 
ATOM      4  C   UNL     1      48.734   7.621  16.382  0.00  0.00    +0.000 A 
ATOM      5  C   UNL     1      49.137   6.595  15.512  0.00  0.00    +0.000 A 
ATOM      6  C   UNL     1      49.049   6.755  14.127  0.00  0.00    +0.000 A 
ENDROOT
BRANCH   1   7
ATOM      7  C   UNL     1      48.441   8.106  12.084  0.00  0.00    +0.000 C 
BRANCH   7  10
ATOM      8  C   UNL     1      46.328   7.006  11.506  0.00  0.00    +0.000 C 
ATOM      9  O   UNL     1      45.677   7.913  12.016  0.00  0.00    +0.000 OA
ATOM     10  N   UNL     1      47.699   7.025  11.487  0.00  0.00    +0.000 N 
ATOM     11  H   UNL     1      48.215   6.254  11.084  0.00  0.00    +0.000 HD
BRANCH   8  19
ATOM     12  C   UNL     1      44.527   4.280  12.709  0.00  0.00    +0.000 A 
ATOM     13  N   UNL     1      43.756   3.174  12.815  0.00  0.00    +0.000 NA
ATOM     14  C   UNL     1      43.419   2.533  11.686  0.00  0.00    +0.000 A 
ATOM     15  N   UNL     1      43.773   2.843  10.427  0.00  0.00    +0.000 NA
ATOM     16  C   UNL     1      44.523   3.953  10.383  0.00  0.00    +0.000 A 
ATOM     17  N   UNL     1      45.021   4.484   9.232  0.00  0.00    +0.000 N 
ATOM     18  C   UNL     1      45.720   5.621   9.522  0.00  0.00    +0.000 A 
ATOM     19  C   UNL     1      45.683   5.842  10.898  0.00  0.00    +0.000 A 
ATOM     20  C   UNL     1      44.929   4.744  11.450  0.00  0.00    +0.000 A 
ATOM     21  H   UNL     1      44.881   4.082   8.317  0.00  0.00    +0.000 HD
BRANCH  12  23
ATOM     22  C   UNL     1      46.213   4.653  14.271  0.00  0.00    +0.000 C 
ATOM     23  O   UNL     1      44.882   4.956  13.860  0.00  0.00    +0.000 OA
ENDBRANCH  12  23
ENDBRANCH   8  19
ENDBRANCH   7  10
ENDBRANCH   1   7
BRANCH   4  24
ATOM     24  C   UNL     1      48.854   7.440  17.884  0.00  0.00    +0.000 C 
BRANCH  24  25
ATOM     25  N   UNL     1      47.702   6.734  18.438  0.00  0.00    +0.000 NA
ATOM     26  H   UNL     1      47.068   6.507  17.671  0.00  0.00    +0.000 HD
BRANCH  25  27
ATOM     27  CA  UNL     1      48.019   5.460  19.140  0.00  0.00    +0.000 C 
BRANCH  27  28
ATOM     28  C   UNL     1      48.552   4.329  18.258  0.00  0.00    +0.000 A 
ATOM     29  C   UNL     1      47.722   3.580  17.418  0.00  0.00    +0.000 A 
ATOM     30  C   UNL     1      48.262   2.537  16.669  0.00  0.00    +0.000 A 
ATOM     31  C   UNL     1      49.622   2.277  16.750  0.00  0.00    +0.000 A 
ATOM     32  C   UNL     1      50.386   3.070  17.587  0.00  0.00    +0.000 A 
ATOM     33  N   UNL     1      49.884   4.072  18.344  0.00  0.00    +0.000 NA
ENDBRANCH  27  28
BRANCH  27  34
ATOM     34  C   UNL     1      48.769   5.626  20.487  0.00  0.00    +0.000 C 
BRANCH  34  35
ATOM     35  O   UNL     1      49.112   4.396  21.122  0.00  0.00    +0.000 OA
ATOM     36  H   UNL     1      49.042   4.552  22.079  0.00  0.00    +0.000 HD
ENDBRANCH  34  35
ENDBRANCH  27  34
ENDBRANCH  25  27
ENDBRANCH  24  25
ENDBRANCH   4  24
TORSDOF 10
ENDMDL
MODEL 7
REMARK VINA RESULT:    -6.863      4.538      6.416
REMARK INTER + INTRA:         -12.042
REMARK INTER:                 -10.588
REMARK INTRA:                  -1.453
REMARK UNBOUND:                -1.367
REMARK  Name = 
REMARK  11 active torsions:
REMARK  status: ('A' for Active; 'I' for Inactive)
REMARK    1  A    between atoms: C_1  and  O_2
REMARK    2  A    between atoms: O_2  and  C_3
REMARK    3  A    between atoms: C_10  and  C_11
REMARK    4  A    between atoms: N_13  and  C_14
REMARK    5  A    between atoms: C_14  and  C_15
REMARK    6  A    between atoms: C_18  and  C_19
REMARK    7  A    between atoms: C_19  and  N_20
REMARK    8  A    between atoms: N_20  and  CA_21
REMARK    9  A    between atoms: CA_21  and  C_22
REMARK   10  A    between atoms: CA_21  and  C_24
REMARK   11  A    between atoms: C_22  and  O_23
REMARK                            x       y       z     vdW  Elec       q    Type
REMARK                         _______ _______ _______ _____ _____    ______ ____
ROOT
ATOM      1  C   UNL     1      47.965   6.879  12.800  0.00  0.00    +0.000 A 
ATOM      2  C   UNL     1      47.335   5.935  13.620  0.00  0.00    +0.000 A 
ATOM      3  C   UNL     1      46.007   5.560  13.388  0.00  0.00    +0.000 A 
ATOM      4  C   UNL     1      45.284   6.114  12.323  0.00  0.00    +0.000 A 
ATOM      5  C   UNL     1      45.928   7.039  11.486  0.00  0.00    +0.000 A 
ATOM      6  C   UNL     1      47.254   7.412  11.717  0.00  0.00    +0.000 A 
ENDROOT
BRANCH   1   7
ATOM      7  C   UNL     1      49.392   7.291  13.053  0.00  0.00    +0.000 C 
BRANCH   7  10
ATOM      8  C   UNL     1      51.189   8.570  11.985  0.00  0.00    +0.000 C 
ATOM      9  O   UNL     1      51.986   8.246  12.859  0.00  0.00    +0.000 OA
ATOM     10  N   UNL     1      49.888   8.136  11.997  0.00  0.00    +0.000 N 
ATOM     11  H   UNL     1      49.242   8.437  11.279  0.00  0.00    +0.000 HD
BRANCH   8  19
ATOM     12  C   UNL     1      53.683   8.528   9.557  0.00  0.00    +0.000 A 
ATOM     13  N   UNL     1      54.448   8.789   8.472  0.00  0.00    +0.000 NA
ATOM     14  C   UNL     1      54.165   9.885   7.752  0.00  0.00    +0.000 A 
ATOM     15  N   UNL     1      53.206  10.796   7.984  0.00  0.00    +0.000 NA
ATOM     16  C   UNL     1      52.473  10.479   9.060  0.00  0.00    +0.000 A 
ATOM     17  N   UNL     1      51.438  11.236   9.521  0.00  0.00    +0.000 N 
ATOM     18  C   UNL     1      50.885  10.632  10.614  0.00  0.00    +0.000 A 
ATOM     19  C   UNL     1      51.573   9.450  10.880  0.00  0.00    +0.000 A 
ATOM     20  C   UNL     1      52.615   9.371   9.887  0.00  0.00    +0.000 A 
ATOM     21  H   UNL     1      51.144  12.106   9.102  0.00  0.00    +0.000 HD
BRANCH  12  23
ATOM     22  C   UNL     1      53.269   6.252   9.821  0.00  0.00    +0.000 C 
ATOM     23  O   UNL     1      53.957   7.403  10.308  0.00  0.00    +0.000 OA
ENDBRANCH  12  23
ENDBRANCH   8  19
ENDBRANCH   7  10
ENDBRANCH   1   7
BRANCH   4  24
ATOM     24  C   UNL     1      43.850   5.703  12.046  0.00  0.00    +0.000 C 
BRANCH  24  25
ATOM     25  N   UNL     1      43.662   5.298  10.656  0.00  0.00    +0.000 NA
ATOM     26  H   UNL     1      44.395   5.733  10.094  0.00  0.00    +0.000 HD
BRANCH  25  27
ATOM     27  CA  UNL     1      43.732   3.831  10.410  0.00  0.00    +0.000 C 
BRANCH  27  28
ATOM     28  C   UNL     1      44.760   3.379   9.372  0.00  0.00    +0.000 A 
ATOM     29  C   UNL     1      45.404   4.277   8.515  0.00  0.00    +0.000 A 
ATOM     30  C   UNL     1      46.302   3.797   7.563  0.00  0.00    +0.000 A 
ATOM     31  C   UNL     1      46.562   2.436   7.501  0.00  0.00    +0.000 A 
ATOM     32  C   UNL     1      45.904   1.609   8.392  0.00  0.00    +0.000 A 
ATOM     33  N   UNL     1      45.009   2.044   9.308  0.00  0.00    +0.000 NA
ENDBRANCH  27  28
BRANCH  27  34
ATOM     34  C   UNL     1      43.686   2.952  11.686  0.00  0.00    +0.000 C 
BRANCH  34  35
ATOM     35  O   UNL     1      42.988   1.719  11.524  0.00  0.00    +0.000 OA
ATOM     36  H   UNL     1      43.328   1.119  12.209  0.00  0.00    +0.000 HD
ENDBRANCH  34  35
ENDBRANCH  27  34
ENDBRANCH  25  27
ENDBRANCH  24  25
ENDBRANCH   4  24
TORSDOF 10
ENDMDL
MODEL 8
REMARK VINA RESULT:    -6.796      5.232      7.160
REMARK INTER + INTRA:         -11.938
REMARK INTER:                 -10.509
REMARK INTRA:                  -1.429
REMARK UNBOUND:                -1.367
REMARK  Name = 
REMARK  11 active torsions:
REMARK  status: ('A' for Active; 'I' for Inactive)
REMARK    1  A    between atoms: C_1  and  O_2
REMARK    2  A    between atoms: O_2  and  C_3
REMARK    3  A    between atoms: C_10  and  C_11
REMARK    4  A    between atoms: N_13  and  C_14
REMARK    5  A    between atoms: C_14  and  C_15
REMARK    6  A    between atoms: C_18  and  C_19
REMARK    7  A    between atoms: C_19  and  N_20
REMARK    8  A    between atoms: N_20  and  CA_21
REMARK    9  A    between atoms: CA_21  and  C_22
REMARK   10  A    between atoms: CA_21  and  C_24
REMARK   11  A    between atoms: C_22  and  O_23
REMARK                            x       y       z     vdW  Elec       q    Type
REMARK                         _______ _______ _______ _____ _____    ______ ____
ROOT
ATOM      1  C   UNL     1      49.697   8.357  11.879  0.00  0.00    +0.000 A 
ATOM      2  C   UNL     1      49.333   7.027  12.127  0.00  0.00    +0.000 A 
ATOM      3  C   UNL     1      47.996   6.685  12.362  0.00  0.00    +0.000 A 
ATOM      4  C   UNL     1      46.994   7.664  12.344  0.00  0.00    +0.000 A 
ATOM      5  C   UNL     1      47.359   8.992  12.068  0.00  0.00    +0.000 A 
ATOM      6  C   UNL     1      48.694   9.333  11.832  0.00  0.00    +0.000 A 
ENDROOT
BRANCH   1   7
ATOM      7  C   UNL     1      51.136   8.729  11.635  0.00  0.00    +0.000 C 
BRANCH   7  10
ATOM      8  C   UNL     1      52.728   7.777  10.033  0.00  0.00    +0.000 C 
ATOM      9  O   UNL     1      52.901   8.870   9.503  0.00  0.00    +0.000 OA
ATOM     10  N   UNL     1      51.880   7.619  11.099  0.00  0.00    +0.000 N 
ATOM     11  H   UNL     1      51.734   6.703  11.503  0.00  0.00    +0.000 HD
BRANCH   8  19
ATOM     12  C   UNL     1      53.118   6.239   6.935  0.00  0.00    +0.000 A 
ATOM     13  N   UNL     1      53.519   5.441   5.919  0.00  0.00    +0.000 NA
ATOM     14  C   UNL     1      54.312   4.400   6.214  0.00  0.00    +0.000 A 
ATOM     15  N   UNL     1      54.758   4.023   7.424  0.00  0.00    +0.000 NA
ATOM     16  C   UNL     1      54.342   4.857   8.386  0.00  0.00    +0.000 A 
ATOM     17  N   UNL     1      54.646   4.702   9.706  0.00  0.00    +0.000 N 
ATOM     18  C   UNL     1      54.093   5.725  10.422  0.00  0.00    +0.000 A 
ATOM     19  C   UNL     1      53.407   6.573   9.554  0.00  0.00    +0.000 A 
ATOM     20  C   UNL     1      53.550   5.990   8.243  0.00  0.00    +0.000 A 
ATOM     21  H   UNL     1      55.197   3.941  10.073  0.00  0.00    +0.000 HD
BRANCH  12  23
ATOM     22  C   UNL     1      53.013   8.364   5.988  0.00  0.00    +0.000 C 
ATOM     23  O   UNL     1      52.305   7.318   6.650  0.00  0.00    +0.000 OA
ENDBRANCH  12  23
ENDBRANCH   8  19
ENDBRANCH   7  10
ENDBRANCH   1   7
BRANCH   4  24
ATOM     24  C   UNL     1      45.538   7.306  12.578  0.00  0.00    +0.000 C 
BRANCH  24  25
ATOM     25  N   UNL     1      45.338   5.860  12.620  0.00  0.00    +0.000 NA
ATOM     26  H   UNL     1      45.122   5.595  13.582  0.00  0.00    +0.000 HD
BRANCH  25  27
ATOM     27  CA  UNL     1      44.231   5.351  11.764  0.00  0.00    +0.000 C 
BRANCH  27  28
ATOM     28  C   UNL     1      44.657   4.566  10.522  0.00  0.00    +0.000 A 
ATOM     29  C   UNL     1      45.487   5.113   9.539  0.00  0.00    +0.000 A 
ATOM     30  C   UNL     1      45.808   4.360   8.411  0.00  0.00    +0.000 A 
ATOM     31  C   UNL     1      45.317   3.068   8.297  0.00  0.00    +0.000 A 
ATOM     32  C   UNL     1      44.517   2.585   9.316  0.00  0.00    +0.000 A 
ATOM     33  N   UNL     1      44.170   3.302  10.409  0.00  0.00    +0.000 NA
ENDBRANCH  27  28
BRANCH  27  34
ATOM     34  C   UNL     1      43.043   4.723  12.538  0.00  0.00    +0.000 C 
BRANCH  34  35
ATOM     35  O   UNL     1      43.407   3.639  13.391  0.00  0.00    +0.000 OA
ATOM     36  H   UNL     1      43.935   4.021  14.112  0.00  0.00    +0.000 HD
ENDBRANCH  34  35
ENDBRANCH  27  34
ENDBRANCH  25  27
ENDBRANCH  24  25
ENDBRANCH   4  24
TORSDOF 10
ENDMDL
MODEL 9
REMARK VINA RESULT:    -6.613      2.856      4.625
REMARK INTER + INTRA:         -11.653
REMARK INTER:                 -10.336
REMARK INTRA:                  -1.317
REMARK UNBOUND:                -1.367
REMARK  Name = 
REMARK  11 active torsions:
REMARK  status: ('A' for Active; 'I' for Inactive)
REMARK    1  A    between atoms: C_1  and  O_2
REMARK    2  A    between atoms: O_2  and  C_3
REMARK    3  A    between atoms: C_10  and  C_11
REMARK    4  A    between atoms: N_13  and  C_14
REMARK    5  A    between atoms: C_14  and  C_15
REMARK    6  A    between atoms: C_18  and  C_19
REMARK    7  A    between atoms: C_19  and  N_20
REMARK    8  A    between atoms: N_20  and  CA_21
REMARK    9  A    between atoms: CA_21  and  C_22
REMARK   10  A    between atoms: CA_21  and  C_24
REMARK   11  A    between atoms: C_22  and  O_23
REMARK                            x       y       z     vdW  Elec       q    Type
REMARK                         _______ _______ _______ _____ _____    ______ ____
ROOT
ATOM      1  C   UNL     1      47.487   4.434  15.852  0.00  0.00    +0.000 A 
ATOM      2  C   UNL     1      46.782   3.726  14.871  0.00  0.00    +0.000 A 
ATOM      3  C   UNL     1      46.586   4.274  13.598  0.00  0.00    +0.000 A 
ATOM      4  C   UNL     1      47.100   5.537  13.276  0.00  0.00    +0.000 A 
ATOM      5  C   UNL     1      47.831   6.231  14.253  0.00  0.00    +0.000 A 
ATOM      6  C   UNL     1      48.028   5.684  15.524  0.00  0.00    +0.000 A 
ENDROOT
BRANCH   1   7
ATOM      7  C   UNL     1      47.692   3.851  17.226  0.00  0.00    +0.000 C 
BRANCH   7  10
ATOM      8  C   UNL     1      49.759   2.555  16.991  0.00  0.00    +0.000 C 
ATOM      9  O   UNL     1      49.202   1.733  16.269  0.00  0.00    +0.000 OA
ATOM     10  N   UNL     1      49.090   3.638  17.501  0.00  0.00    +0.000 N 
ATOM     11  H   UNL     1      49.563   4.289  18.114  0.00  0.00    +0.000 HD
BRANCH   8  19
ATOM     12  C   UNL     1      52.330   4.785  17.720  0.00  0.00    +0.000 A 
ATOM     13  N   UNL     1      53.499   5.341  18.115  0.00  0.00    +0.000 NA
ATOM     14  C   UNL     1      54.511   4.518  18.428  0.00  0.00    +0.000 A 
ATOM     15  N   UNL     1      54.524   3.176  18.381  0.00  0.00    +0.000 NA
ATOM     16  C   UNL     1      53.339   2.683  17.998  0.00  0.00    +0.000 A 
ATOM     17  N   UNL     1      53.081   1.351  17.861  0.00  0.00    +0.000 N 
ATOM     18  C   UNL     1      51.781   1.178  17.482  0.00  0.00    +0.000 A 
ATOM     19  C   UNL     1      51.168   2.424  17.363  0.00  0.00    +0.000 A 
ATOM     20  C   UNL     1      52.190   3.393  17.673  0.00  0.00    +0.000 A 
ATOM     21  H   UNL     1      53.762   0.625  18.022  0.00  0.00    +0.000 HD
BRANCH  12  23
ATOM     22  C   UNL     1      51.352   6.868  18.076  0.00  0.00    +0.000 C 
ATOM     23  O   UNL     1      51.275   5.616  17.397  0.00  0.00    +0.000 OA
ENDBRANCH  12  23
ENDBRANCH   8  19
ENDBRANCH   7  10
ENDBRANCH   1   7
BRANCH   4  24
ATOM     24  C   UNL     1      46.913   6.135  11.894  0.00  0.00    +0.000 C 
BRANCH  24  25
ATOM     25  N   UNL     1      45.642   6.846  11.780  0.00  0.00    +0.000 NA
ATOM     26  H   UNL     1      45.767   7.623  11.131  0.00  0.00    +0.000 HD
BRANCH  25  27
ATOM     27  CA  UNL     1      44.504   6.029  11.275  0.00  0.00    +0.000 C 
BRANCH  27  28
ATOM     28  C   UNL     1      44.873   4.901  10.309  0.00  0.00    +0.000 A 
ATOM     29  C   UNL     1      45.548   5.135   9.108  0.00  0.00    +0.000 A 
ATOM     30  C   UNL     1      45.820   4.069   8.252  0.00  0.00    +0.000 A 
ATOM     31  C   UNL     1      45.437   2.788   8.622  0.00  0.00    +0.000 A 
ATOM     32  C   UNL     1      44.790   2.628   9.833  0.00  0.00    +0.000 A 
ATOM     33  N   UNL     1      44.491   3.647  10.670  0.00  0.00    +0.000 NA
ENDBRANCH  27  28
BRANCH  27  34
ATOM     34  C   UNL     1      43.457   5.633  12.348  0.00  0.00    +0.000 C 
BRANCH  34  35
ATOM     35  O   UNL     1      42.249   5.094  11.816  0.00  0.00    +0.000 OA
ATOM     36  H   UNL     1      41.848   5.796  11.276  0.00  0.00    +0.000 HD
ENDBRANCH  34  35
ENDBRANCH  27  34
ENDBRANCH  25  27
ENDBRANCH  24  25
ENDBRANCH   4  24
TORSDOF 10
ENDMDL
