MODEL 1
REMARK VINA RESULT:    -7.283      0.000      0.000
REMARK INTER + INTRA:          -9.442
REMARK INTER:                  -8.987
REMARK INTRA:                  -0.455
REMARK UNBOUND:                -0.455
REMARK  Name = 
REMARK  6 active torsions:
REMARK  status: ('A' for Active; 'I' for Inactive)
REMARK    1  A    between atoms: C_1  and  C_2
REMARK    2  A    between atoms: C_4  and  C_5
REMARK    3  A    between atoms: C_5  and  O_6
REMARK    4  A    between atoms: O_6  and  C_7
REMARK    5  A    between atoms: C_10  and  C_11
REMARK    6  A    between atoms: C_15  and  C_16
REMARK                            x       y       z     vdW  Elec       q    Type
REMARK                         _______ _______ _______ _____ _____    ______ ____
ROOT
ATOM      1  C   UNL     1      45.015   4.820  11.747  0.00  0.00    +0.000 A 
ATOM      2  N   UNL     1      44.345   5.820  11.119  0.00  0.00    +0.000 NA
ATOM      3  C   UNL     1      44.600   7.087  11.535  0.00  0.00    +0.000 A 
ATOM      4  C   UNL     1      45.502   7.356  12.543  0.00  0.00    +0.000 A 
ATOM      5  N   UNL     1      46.184   6.372  13.188  0.00  0.00    +0.000 NA
ATOM      6  C   UNL     1      45.919   5.097  12.790  0.00  0.00    +0.000 A 
ATOM      7  C   UNL     1      46.647   4.065  13.591  0.00  0.00    +0.000 C 
ENDROOT
BRANCH   4   8
ATOM      8  C   UNL     1      45.762   8.749  12.994  0.00  0.00    +0.000 C 
ATOM      9  N   UNL     1      46.686   8.872  13.999  0.00  0.00    +0.000 N 
ATOM     10  O   UNL     1      45.189   9.715  12.510  0.00  0.00    +0.000 OA
ATOM     11  H   UNL     1      47.129   8.039  14.384  0.00  0.00    +0.000 HD
ATOM     12  H   UNL     1      46.904   9.785  14.371  0.00  0.00    +0.000 HD
ENDBRANCH   4   8
BRANCH   1  13
ATOM     13  O   UNL     1      44.646   3.593  11.277  0.00  0.00    +0.000 OA
BRANCH  13  14
ATOM     14  C   UNL     1      44.158   3.559   9.943  0.00  0.00    +0.000 C 
BRANCH  14  18
ATOM     15  C   UNL     1      46.830  -0.001   7.579  0.00  0.00    +0.000 C 
ATOM     16  C   UNL     1      46.447   1.431   7.789  0.00  0.00    +0.000 A 
ATOM     17  C   UNL     1      45.541   1.778   8.785  0.00  0.00    +0.000 A 
ATOM     18  C   UNL     1      45.200   3.120   8.949  0.00  0.00    +0.000 A 
ATOM     19  C   UNL     1      45.772   4.067   8.092  0.00  0.00    +0.000 A 
ATOM     20  C   UNL     1      46.664   3.634   7.128  0.00  0.00    +0.000 A 
ATOM     21  N   UNL     1      47.011   2.343   6.960  0.00  0.00    +0.000 NA
ENDBRANCH  14  18
ENDBRANCH  13  14
ENDBRANCH   1  13
TORSDOF 4
ENDMDL
MODEL 2
REMARK VINA RESULT:    -7.240      1.698      2.936
REMARK INTER + INTRA:          -9.388
REMARK INTER:                  -9.157
REMARK INTRA:                  -0.231
REMARK UNBOUND:                -0.455
REMARK  Name = 
REMARK  6 active torsions:
REMARK  status: ('A' for Active; 'I' for Inactive)
REMARK    1  A    between atoms: C_1  and  C_2
REMARK    2  A    between atoms: C_4  and  C_5
REMARK    3  A    between atoms: C_5  and  O_6
REMARK    4  A    between atoms: O_6  and  C_7
REMARK    5  A    between atoms: C_10  and  C_11
REMARK    6  A    between atoms: C_15  and  C_16
REMARK                            x       y       z     vdW  Elec       q    Type
REMARK                         _______ _______ _______ _____ _____    ______ ____
ROOT
ATOM      1  C   UNL     1      45.157   4.872  11.568  0.00  0.00    +0.000 A 
ATOM      2  N   UNL     1      45.244   3.576  11.963  0.00  0.00    +0.000 NA
ATOM      3  C   UNL     1      45.949   3.323  13.095  0.00  0.00    +0.000 A 
ATOM      4  C   UNL     1      46.546   4.332  13.822  0.00  0.00    +0.000 A 
ATOM      5  N   UNL     1      46.474   5.637  13.448  0.00  0.00    +0.000 NA
ATOM      6  C   UNL     1      45.786   5.897  12.302  0.00  0.00    +0.000 A 
ATOM      7  C   UNL     1      45.811   7.340  11.911  0.00  0.00    +0.000 C 
ENDROOT
BRANCH   4   8
ATOM      8  C   UNL     1      47.324   4.038  15.055  0.00  0.00    +0.000 C 
ATOM      9  N   UNL     1      47.438   5.083  15.934  0.00  0.00    +0.000 N 
ATOM     10  O   UNL     1      47.829   2.945  15.268  0.00  0.00    +0.000 OA
ATOM     11  H   UNL     1      47.013   5.982  15.710  0.00  0.00    +0.000 HD
ATOM     12  H   UNL     1      47.966   4.967  16.787  0.00  0.00    +0.000 HD
ENDBRANCH   4   8
BRANCH   1  13
ATOM     13  O   UNL     1      44.466   4.998  10.398  0.00  0.00    +0.000 OA
BRANCH  13  14
ATOM     14  C   UNL     1      44.130   3.784   9.740  0.00  0.00    +0.000 C 
BRANCH  14  18
ATOM     15  C   UNL     1      46.816   0.080   7.627  0.00  0.00    +0.000 C 
ATOM     16  C   UNL     1      46.482   1.530   7.792  0.00  0.00    +0.000 A 
ATOM     17  C   UNL     1      45.518   1.930   8.711  0.00  0.00    +0.000 A 
ATOM     18  C   UNL     1      45.225   3.287   8.834  0.00  0.00    +0.000 A 
ATOM     19  C   UNL     1      45.901   4.196   8.014  0.00  0.00    +0.000 A 
ATOM     20  C   UNL     1      46.845   3.712   7.126  0.00  0.00    +0.000 A 
ATOM     21  N   UNL     1      47.146   2.405   6.999  0.00  0.00    +0.000 NA
ENDBRANCH  14  18
ENDBRANCH  13  14
ENDBRANCH   1  13
TORSDOF 4
ENDMDL
MODEL 3
REMARK VINA RESULT:    -7.144      1.458      2.069
REMARK INTER + INTRA:          -9.270
REMARK INTER:                  -8.897
REMARK INTRA:                  -0.373
REMARK UNBOUND:                -0.455
REMARK  Name = 
REMARK  6 active torsions:
REMARK  status: ('A' for Active; 'I' for Inactive)
REMARK    1  A    between atoms: C_1  and  C_2
REMARK    2  A    between atoms: C_4  and  C_5
REMARK    3  A    between atoms: C_5  and  O_6
REMARK    4  A    between atoms: O_6  and  C_7
REMARK    5  A    between atoms: C_10  and  C_11
REMARK    6  A    between atoms: C_15  and  C_16
REMARK                            x       y       z     vdW  Elec       q    Type
REMARK                         _______ _______ _______ _____ _____    ______ ____
ROOT
ATOM      1  C   UNL     1      44.900   4.940  10.953  0.00  0.00    +0.000 A 
ATOM      2  N   UNL     1      45.917   5.695  10.463  0.00  0.00    +0.000 NA
ATOM      3  C   UNL     1      46.221   6.832  11.139  0.00  0.00    +0.000 A 
ATOM      4  C   UNL     1      45.539   7.207  12.278  0.00  0.00    +0.000 A 
ATOM      5  N   UNL     1      44.516   6.470  12.788  0.00  0.00    +0.000 NA
ATOM      6  C   UNL     1      44.192   5.338  12.104  0.00  0.00    +0.000 A 
ATOM      7  C   UNL     1      43.013   4.618  12.677  0.00  0.00    +0.000 C 
ENDROOT
BRANCH   4   8
ATOM      8  C   UNL     1      45.878   8.461  13.002  0.00  0.00    +0.000 C 
ATOM      9  N   UNL     1      44.930   9.448  12.929  0.00  0.00    +0.000 N 
ATOM     10  O   UNL     1      46.927   8.605  13.612  0.00  0.00    +0.000 OA
ATOM     11  H   UNL     1      44.075   9.291  12.397  0.00  0.00    +0.000 HD
ATOM     12  H   UNL     1      45.094  10.337  13.380  0.00  0.00    +0.000 HD
ENDBRANCH   4   8
BRANCH   1  13
ATOM     13  O   UNL     1      44.657   3.850  10.169  0.00  0.00    +0.000 OA
BRANCH  13  14
ATOM     14  C   UNL     1      44.731   4.064   8.766  0.00  0.00    +0.000 C 
BRANCH  14  18
ATOM     15  C   UNL     1      47.878   2.593   5.116  0.00  0.00    +0.000 C 
ATOM     16  C   UNL     1      47.072   2.314   6.347  0.00  0.00    +0.000 A 
ATOM     17  C   UNL     1      46.274   3.305   6.904  0.00  0.00    +0.000 A 
ATOM     18  C   UNL     1      45.543   3.015   8.055  0.00  0.00    +0.000 A 
ATOM     19  C   UNL     1      45.655   1.738   8.616  0.00  0.00    +0.000 A 
ATOM     20  C   UNL     1      46.473   0.812   7.996  0.00  0.00    +0.000 A 
ATOM     21  N   UNL     1      47.181   1.072   6.880  0.00  0.00    +0.000 NA
ENDBRANCH  14  18
ENDBRANCH  13  14
ENDBRANCH   1  13
TORSDOF 4
ENDMDL
MODEL 4
REMARK VINA RESULT:    -7.073      2.267      6.619
REMARK INTER + INTRA:          -9.182
REMARK INTER:                  -8.743
REMARK INTRA:                  -0.439
REMARK UNBOUND:                -0.455
REMARK  Name = 
REMARK  6 active torsions:
REMARK  status: ('A' for Active; 'I' for Inactive)
REMARK    1  A    between atoms: C_1  and  C_2
REMARK    2  A    between atoms: C_4  and  C_5
REMARK    3  A    between atoms: C_5  and  O_6
REMARK    4  A    between atoms: O_6  and  C_7
REMARK    5  A    between atoms: C_10  and  C_11
REMARK    6  A    between atoms: C_15  and  C_16
REMARK                            x       y       z     vdW  Elec       q    Type
REMARK                         _______ _______ _______ _____ _____    ______ ____
ROOT
ATOM      1  C   UNL     1      45.153   4.284   9.263  0.00  0.00    +0.000 A 
ATOM      2  N   UNL     1      45.992   4.878   8.377  0.00  0.00    +0.000 NA
ATOM      3  C   UNL     1      46.710   4.059   7.566  0.00  0.00    +0.000 A 
ATOM      4  C   UNL     1      46.592   2.686   7.627  0.00  0.00    +0.000 A 
ATOM      5  N   UNL     1      45.759   2.068   8.507  0.00  0.00    +0.000 NA
ATOM      6  C   UNL     1      45.050   2.881   9.337  0.00  0.00    +0.000 A 
ATOM      7  C   UNL     1      44.214   2.134  10.326  0.00  0.00    +0.000 C 
ENDROOT
BRANCH   4   8
ATOM      8  C   UNL     1      47.393   1.802   6.739  0.00  0.00    +0.000 C 
ATOM      9  N   UNL     1      48.444   2.413   6.106  0.00  0.00    +0.000 N 
ATOM     10  O   UNL     1      47.131   0.619   6.579  0.00  0.00    +0.000 OA
ATOM     11  H   UNL     1      48.618   3.406   6.257  0.00  0.00    +0.000 HD
ATOM     12  H   UNL     1      49.025   1.884   5.472  0.00  0.00    +0.000 HD
ENDBRANCH   4   8
BRANCH   1  13
ATOM     13  O   UNL     1      44.521   5.201  10.052  0.00  0.00    +0.000 OA
BRANCH  13  14
ATOM     14  C   UNL     1      45.323   6.276  10.521  0.00  0.00    +0.000 C 
BRANCH  14  18
ATOM     15  C   UNL     1      49.145   7.076  13.706  0.00  0.00    +0.000 C 
ATOM     16  C   UNL     1      47.937   6.306  13.272  0.00  0.00    +0.000 A 
ATOM     17  C   UNL     1      47.272   6.643  12.098  0.00  0.00    +0.000 A 
ATOM     18  C   UNL     1      46.146   5.910  11.727  0.00  0.00    +0.000 A 
ATOM     19  C   UNL     1      45.718   4.871  12.560  0.00  0.00    +0.000 A 
ATOM     20  C   UNL     1      46.438   4.604  13.709  0.00  0.00    +0.000 A 
ATOM     21  N   UNL     1      47.533   5.296  14.080  0.00  0.00    +0.000 NA
ENDBRANCH  14  18
ENDBRANCH  13  14
ENDBRANCH   1  13
TORSDOF 4
ENDMDL
MODEL 5
REMARK VINA RESULT:    -7.027      2.045      3.079
REMARK INTER + INTRA:          -9.126
REMARK INTER:                  -8.975
REMARK INTRA:                  -0.151
REMARK UNBOUND:                -0.455
REMARK  Name = 
REMARK  6 active torsions:
REMARK  status: ('A' for Active; 'I' for Inactive)
REMARK    1  A    between atoms: C_1  and  C_2
REMARK    2  A    between atoms: C_4  and  C_5
REMARK    3  A    between atoms: C_5  and  O_6
REMARK    4  A    between atoms: O_6  and  C_7
REMARK    5  A    between atoms: C_10  and  C_11
REMARK    6  A    between atoms: C_15  and  C_16
REMARK                            x       y       z     vdW  Elec       q    Type
REMARK                         _______ _______ _______ _____ _____    ______ ____
ROOT
ATOM      1  C   UNL     1      44.862   4.243  11.315  0.00  0.00    +0.000 A 
ATOM      2  N   UNL     1      45.421   3.137  11.869  0.00  0.00    +0.000 NA
ATOM      3  C   UNL     1      46.077   3.303  13.046  0.00  0.00    +0.000 A 
ATOM      4  C   UNL     1      46.169   4.535  13.661  0.00  0.00    +0.000 A 
ATOM      5  N   UNL     1      45.618   5.657  13.126  0.00  0.00    +0.000 NA
ATOM      6  C   UNL     1      44.976   5.501  11.935  0.00  0.00    +0.000 A 
ATOM      7  C   UNL     1      44.461   6.786  11.369  0.00  0.00    +0.000 C 
ENDROOT
BRANCH   4   8
ATOM      8  C   UNL     1      46.900   4.702  14.946  0.00  0.00    +0.000 C 
ATOM      9  N   UNL     1      47.609   5.869  15.063  0.00  0.00    +0.000 N 
ATOM     10  O   UNL     1      46.875   3.859  15.831  0.00  0.00    +0.000 OA
ATOM     11  H   UNL     1      47.614   6.539  14.294  0.00  0.00    +0.000 HD
ATOM     12  H   UNL     1      48.146   6.049  15.899  0.00  0.00    +0.000 HD
ENDBRANCH   4   8
BRANCH   1  13
ATOM     13  O   UNL     1      44.271   3.963  10.117  0.00  0.00    +0.000 OA
BRANCH  13  14
ATOM     14  C   UNL     1      44.984   4.378   8.959  0.00  0.00    +0.000 C 
BRANCH  14  18
ATOM     15  C   UNL     1      47.908   2.523   5.298  0.00  0.00    +0.000 C 
ATOM     16  C   UNL     1      47.053   2.343   6.513  0.00  0.00    +0.000 A 
ATOM     17  C   UNL     1      46.412   3.434   7.091  0.00  0.00    +0.000 A 
ATOM     18  C   UNL     1      45.630   3.232   8.227  0.00  0.00    +0.000 A 
ATOM     19  C   UNL     1      45.533   1.940   8.754  0.00  0.00    +0.000 A 
ATOM     20  C   UNL     1      46.204   0.913   8.116  0.00  0.00    +0.000 A 
ATOM     21  N   UNL     1      46.958   1.087   7.014  0.00  0.00    +0.000 NA
ENDBRANCH  14  18
ENDBRANCH  13  14
ENDBRANCH   1  13
TORSDOF 4
ENDMDL
MODEL 6
REMARK VINA RESULT:    -6.700      1.972      6.697
REMARK INTER + INTRA:          -8.722
REMARK INTER:                  -8.083
REMARK INTRA:                  -0.639
REMARK UNBOUND:                -0.455
REMARK  Name = 
REMARK  6 active torsions:
REMARK  status: ('A' for Active; 'I' for Inactive)
REMARK    1  A    between atoms: C_1  and  C_2
REMARK    2  A    between atoms: C_4  and  C_5
REMARK    3  A    between atoms: C_5  and  O_6
REMARK    4  A    between atoms: O_6  and  C_7
REMARK    5  A    between atoms: C_10  and  C_11
REMARK    6  A    between atoms: C_15  and  C_16
REMARK                            x       y       z     vdW  Elec       q    Type
REMARK                         _______ _______ _______ _____ _____    ______ ____
ROOT
ATOM      1  C   UNL     1      44.443   3.460   9.590  0.00  0.00    +0.000 A 
ATOM      2  N   UNL     1      44.168   2.132   9.510  0.00  0.00    +0.000 NA
ATOM      3  C   UNL     1      45.022   1.370   8.780  0.00  0.00    +0.000 A 
ATOM      4  C   UNL     1      46.126   1.910   8.152  0.00  0.00    +0.000 A 
ATOM      5  N   UNL     1      46.422   3.235   8.216  0.00  0.00    +0.000 NA
ATOM      6  C   UNL     1      45.558   4.010   8.930  0.00  0.00    +0.000 A 
ATOM      7  C   UNL     1      45.903   5.465   8.896  0.00  0.00    +0.000 C 
ENDROOT
BRANCH   4   8
ATOM      8  C   UNL     1      47.046   1.062   7.348  0.00  0.00    +0.000 C 
ATOM      9  N   UNL     1      48.128   1.717   6.822  0.00  0.00    +0.000 N 
ATOM     10  O   UNL     1      46.849  -0.130   7.164  0.00  0.00    +0.000 OA
ATOM     11  H   UNL     1      48.246   2.716   6.988  0.00  0.00    +0.000 HD
ATOM     12  H   UNL     1      48.791   1.214   6.249  0.00  0.00    +0.000 HD
ENDBRANCH   4   8
BRANCH   1  13
ATOM     13  O   UNL     1      43.495   4.129  10.309  0.00  0.00    +0.000 OA
BRANCH  13  14
ATOM     14  C   UNL     1      43.599   4.025  11.722  0.00  0.00    +0.000 C 
BRANCH  14  18
ATOM     15  C   UNL     1      45.670   8.466  12.897  0.00  0.00    +0.000 C 
ATOM     16  C   UNL     1      45.689   6.969  12.891  0.00  0.00    +0.000 A 
ATOM     17  C   UNL     1      44.669   6.255  12.271  0.00  0.00    +0.000 A 
ATOM     18  C   UNL     1      44.713   4.862  12.291  0.00  0.00    +0.000 A 
ATOM     19  C   UNL     1      45.775   4.234  12.950  0.00  0.00    +0.000 A 
ATOM     20  C   UNL     1      46.746   5.021  13.541  0.00  0.00    +0.000 A 
ATOM     21  N   UNL     1      46.725   6.368  13.526  0.00  0.00    +0.000 NA
ENDBRANCH  14  18
ENDBRANCH  13  14
ENDBRANCH   1  13
TORSDOF 4
ENDMDL
MODEL 7
REMARK VINA RESULT:    -6.581      1.925      3.206
REMARK INTER + INTRA:          -8.575
REMARK INTER:                  -8.266
REMARK INTRA:                  -0.309
REMARK UNBOUND:                -0.455
REMARK  Name = 
REMARK  6 active torsions:
REMARK  status: ('A' for Active; 'I' for Inactive)
REMARK    1  A    between atoms: C_1  and  C_2
REMARK    2  A    between atoms: C_4  and  C_5
REMARK    3  A    between atoms: C_5  and  O_6
REMARK    4  A    between atoms: O_6  and  C_7
REMARK    5  A    between atoms: C_10  and  C_11
REMARK    6  A    between atoms: C_15  and  C_16
REMARK                            x       y       z     vdW  Elec       q    Type
REMARK                         _______ _______ _______ _____ _____    ______ ____
ROOT
ATOM      1  C   UNL     1      45.911   5.351  11.551  0.00  0.00    +0.000 A 
ATOM      2  N   UNL     1      45.423   4.218  12.120  0.00  0.00    +0.000 NA
ATOM      3  C   UNL     1      45.843   3.932  13.379  0.00  0.00    +0.000 A 
ATOM      4  C   UNL     1      46.719   4.752  14.059  0.00  0.00    +0.000 A 
ATOM      5  N   UNL     1      47.222   5.891  13.512  0.00  0.00    +0.000 NA
ATOM      6  C   UNL     1      46.821   6.174  12.242  0.00  0.00    +0.000 A 
ATOM      7  C   UNL     1      47.470   7.397  11.676  0.00  0.00    +0.000 C 
ENDROOT
BRANCH   4   8
ATOM      8  C   UNL     1      47.177   4.419  15.434  0.00  0.00    +0.000 C 
ATOM      9  N   UNL     1      47.641   5.480  16.166  0.00  0.00    +0.000 N 
ATOM     10  O   UNL     1      47.149   3.280  15.879  0.00  0.00    +0.000 OA
ATOM     11  H   UNL     1      47.661   6.412  15.751  0.00  0.00    +0.000 HD
ATOM     12  H   UNL     1      47.986   5.332  17.103  0.00  0.00    +0.000 HD
ENDBRANCH   4   8
BRANCH   1  13
ATOM     13  O   UNL     1      45.456   5.511  10.274  0.00  0.00    +0.000 OA
BRANCH  13  14
ATOM     14  C   UNL     1      44.527   4.536   9.818  0.00  0.00    +0.000 C 
BRANCH  14  18
ATOM     15  C   UNL     1      47.109   3.332   5.661  0.00  0.00    +0.000 C 
ATOM     16  C   UNL     1      46.408   2.951   6.928  0.00  0.00    +0.000 A 
ATOM     17  C   UNL     1      45.782   3.920   7.704  0.00  0.00    +0.000 A 
ATOM     18  C   UNL     1      45.145   3.532   8.882  0.00  0.00    +0.000 A 
ATOM     19  C   UNL     1      45.174   2.182   9.247  0.00  0.00    +0.000 A 
ATOM     20  C   UNL     1      45.821   1.285   8.416  0.00  0.00    +0.000 A 
ATOM     21  N   UNL     1      46.435   1.640   7.271  0.00  0.00    +0.000 NA
ENDBRANCH  14  18
ENDBRANCH  13  14
ENDBRANCH   1  13
TORSDOF 4
ENDMDL
MODEL 8
REMARK VINA RESULT:    -6.275      3.763      7.062
REMARK INTER + INTRA:          -8.197
REMARK INTER:                  -7.887
REMARK INTRA:                  -0.310
REMARK UNBOUND:                -0.455
REMARK  Name = 
REMARK  6 active torsions:
REMARK  status: ('A' for Active; 'I' for Inactive)
REMARK    1  A    between atoms: C_1  and  C_2
REMARK    2  A    between atoms: C_4  and  C_5
REMARK    3  A    between atoms: C_5  and  O_6
REMARK    4  A    between atoms: O_6  and  C_7
REMARK    5  A    between atoms: C_10  and  C_11
REMARK    6  A    between atoms: C_15  and  C_16
REMARK                            x       y       z     vdW  Elec       q    Type
REMARK                         _______ _______ _______ _____ _____    ______ ____
ROOT
ATOM      1  C   UNL     1      46.626   3.858  13.444  0.00  0.00    +0.000 A 
ATOM      2  N   UNL     1      45.741   2.928  13.002  0.00  0.00    +0.000 NA
ATOM      3  C   UNL     1      44.810   3.342  12.105  0.00  0.00    +0.000 A 
ATOM      4  C   UNL     1      44.762   4.644  11.652  0.00  0.00    +0.000 A 
ATOM      5  N   UNL     1      45.636   5.594  12.079  0.00  0.00    +0.000 NA
ATOM      6  C   UNL     1      46.561   5.191  12.994  0.00  0.00    +0.000 A 
ATOM      7  C   UNL     1      47.439   6.302  13.475  0.00  0.00    +0.000 C 
ENDROOT
BRANCH   4   8
ATOM      8  C   UNL     1      43.729   5.084  10.677  0.00  0.00    +0.000 C 
ATOM      9  N   UNL     1      43.965   4.720   9.376  0.00  0.00    +0.000 N 
ATOM     10  O   UNL     1      42.744   5.728  11.008  0.00  0.00    +0.000 OA
ATOM     11  H   UNL     1      44.807   4.196   9.142  0.00  0.00    +0.000 HD
ATOM     12  H   UNL     1      43.317   4.997   8.652  0.00  0.00    +0.000 HD
ENDBRANCH   4   8
BRANCH   1  13
ATOM     13  O   UNL     1      47.482   3.340  14.371  0.00  0.00    +0.000 OA
BRANCH  13  14
ATOM     14  C   UNL     1      47.194   3.653  15.727  0.00  0.00    +0.000 C 
BRANCH  14  18
ATOM     15  C   UNL     1      51.368   1.410  17.443  0.00  0.00    +0.000 C 
ATOM     16  C   UNL     1      50.423   2.571  17.403  0.00  0.00    +0.000 A 
ATOM     17  C   UNL     1      49.267   2.510  16.631  0.00  0.00    +0.000 A 
ATOM     18  C   UNL     1      48.412   3.611  16.610  0.00  0.00    +0.000 A 
ATOM     19  C   UNL     1      48.759   4.744  17.354  0.00  0.00    +0.000 A 
ATOM     20  C   UNL     1      49.928   4.719  18.093  0.00  0.00    +0.000 A 
ATOM     21  N   UNL     1      50.762   3.662  18.132  0.00  0.00    +0.000 NA
ENDBRANCH  14  18
ENDBRANCH  13  14
ENDBRANCH   1  13
TORSDOF 4
ENDMDL
MODEL 9
REMARK VINA RESULT:    -6.194      3.227      5.067
REMARK INTER + INTRA:          -8.098
REMARK INTER:                  -7.527
REMARK INTRA:                  -0.570
REMARK UNBOUND:                -0.455
REMARK  Name = 
REMARK  6 active torsions:
REMARK  status: ('A' for Active; 'I' for Inactive)
REMARK    1  A    between atoms: C_1  and  C_2
REMARK    2  A    between atoms: C_4  and  C_5
REMARK    3  A    between atoms: C_5  and  O_6
REMARK    4  A    between atoms: O_6  and  C_7
REMARK    5  A    between atoms: C_10  and  C_11
REMARK    6  A    between atoms: C_15  and  C_16
REMARK                            x       y       z     vdW  Elec       q    Type
REMARK                         _______ _______ _______ _____ _____    ______ ____
ROOT
ATOM      1  C   UNL     1      47.629   5.443  13.765  0.00  0.00    +0.000 A 
ATOM      2  N   UNL     1      48.245   6.219  14.694  0.00  0.00    +0.000 NA
ATOM      3  C   UNL     1      48.253   5.761  15.971  0.00  0.00    +0.000 A 
ATOM      4  C   UNL     1      47.672   4.559  16.318  0.00  0.00    +0.000 A 
ATOM      5  N   UNL     1      47.048   3.765  15.408  0.00  0.00    +0.000 NA
ATOM      6  C   UNL     1      47.018   4.227  14.128  0.00  0.00    +0.000 A 
ATOM      7  C   UNL     1      46.253   3.341  13.197  0.00  0.00    +0.000 C 
ENDROOT
BRANCH   4   8
ATOM      8  C   UNL     1      47.680   4.076  17.725  0.00  0.00    +0.000 C 
ATOM      9  N   UNL     1      47.070   2.866  17.928  0.00  0.00    +0.000 N 
ATOM     10  O   UNL     1      48.189   4.714  18.636  0.00  0.00    +0.000 OA
ATOM     11  H   UNL     1      46.645   2.375  17.142  0.00  0.00    +0.000 HD
ATOM     12  H   UNL     1      47.019   2.479  18.859  0.00  0.00    +0.000 HD
ENDBRANCH   4   8
BRANCH   1  13
ATOM     13  O   UNL     1      47.645   6.024  12.531  0.00  0.00    +0.000 OA
BRANCH  13  14
ATOM     14  C   UNL     1      46.564   6.901  12.242  0.00  0.00    +0.000 C 
BRANCH  14  18
ATOM     15  C   UNL     1      44.811   4.025   8.493  0.00  0.00    +0.000 C 
ATOM     16  C   UNL     1      44.604   4.824   9.743  0.00  0.00    +0.000 A 
ATOM     17  C   UNL     1      45.669   5.497  10.332  0.00  0.00    +0.000 A 
ATOM     18  C   UNL     1      45.443   6.225  11.499  0.00  0.00    +0.000 A 
ATOM     19  C   UNL     1      44.155   6.236  12.044  0.00  0.00    +0.000 A 
ATOM     20  C   UNL     1      43.155   5.537  11.393  0.00  0.00    +0.000 A 
ATOM     21  N   UNL     1      43.352   4.835  10.261  0.00  0.00    +0.000 NA
ENDBRANCH  14  18
ENDBRANCH  13  14
ENDBRANCH   1  13
TORSDOF 4
ENDMDL
