MODEL 1
REMARK VINA RESULT:    -7.844      0.000      0.000
REMARK INTER + INTRA:         -11.424
REMARK INTER:                 -10.824
REMARK INTRA:                  -0.600
REMARK UNBOUND:                -0.600
REMARK  Name = 
REMARK  7 active torsions:
REMARK  status: ('A' for Active; 'I' for Inactive)
REMARK    1  A    between atoms: N_1  and  C_2
REMARK    2  A    between atoms: C_2  and  C_3
REMARK    3  A    between atoms: C_6  and  C_7
REMARK    4  A    between atoms: C_7  and  C_8
REMARK    5  A    between atoms: C_8  and  C_9
REMARK    6  A    between atoms: C_9  and  C_10
REMARK    7  A    between atoms: C_14  and  C_15
REMARK                            x       y       z     vdW  Elec       q    Type
REMARK                         _______ _______ _______ _____ _____    ______ ____
ROOT
ATOM      1  C   UNL     1      43.261   4.209  11.242  0.00  0.00    +0.000 C 
ENDROOT
BRANCH   1   2
ATOM      2  C   UNL     1      43.435   4.309  12.758  0.00  0.00    +0.000 C 
BRANCH   2   6
ATOM      3  C   UNL     1      47.169   6.064  13.665  0.00  0.00    +0.000 A 
ATOM      4  C   UNL     1      46.212   6.703  12.902  0.00  0.00    +0.000 A 
ATOM      5  N   UNL     1      45.008   6.172  12.601  0.00  0.00    +0.000 NA
ATOM      6  C   UNL     1      44.754   4.948  13.101  0.00  0.00    +0.000 A 
ATOM      7  N   UNL     1      45.617   4.232  13.847  0.00  0.00    +0.000 NA
ATOM      8  C   UNL     1      46.805   4.810  14.110  0.00  0.00    +0.000 A 
BRANCH   3   9
ATOM      9  C   UNL     1      48.500   6.671  13.966  0.00  0.00    +0.000 C 
BRANCH   9  10
ATOM     10  N   UNL     1      49.377   6.654  12.802  0.00  0.00    +0.000 NA
ATOM     11  H   UNL     1      50.347   6.596  13.111  0.00  0.00    +0.000 HD
ATOM     12  H   UNL     1      49.293   7.539  12.302  0.00  0.00    +0.000 HD
ENDBRANCH   9  10
ENDBRANCH   3   9
ENDBRANCH   2   6
ENDBRANCH   1   2
BRANCH   1  13
ATOM     13  C   UNL     1      43.796   2.883  10.698  0.00  0.00    +0.000 C 
BRANCH  13  14
ATOM     14  C   UNL     1      44.753   3.088   9.554  0.00  0.00    +0.000 A 
ATOM     15  C   UNL     1      44.981   4.358   9.036  0.00  0.00    +0.000 A 
ATOM     16  N   UNL     1      45.824   4.620   8.012  0.00  0.00    +0.000 NA
ATOM     17  C   UNL     1      46.481   3.561   7.475  0.00  0.00    +0.000 A 
ATOM     18  C   UNL     1      46.345   2.254   7.917  0.00  0.00    +0.000 A 
ATOM     19  C   UNL     1      45.462   2.023   8.981  0.00  0.00    +0.000 A 
BRANCH  18  20
ATOM     20  C   UNL     1      47.077   1.110   7.318  0.00  0.00    +0.000 C 
ATOM     21  N   UNL     1      46.738  -0.166   7.676  0.00  0.00    +0.000 N 
ATOM     22  O   UNL     1      47.981   1.292   6.508  0.00  0.00    +0.000 OA
ATOM     23  H   UNL     1      46.015  -0.430   8.327  0.00  0.00    +0.000 HD
ATOM     24  H   UNL     1      47.267  -0.911   7.241  0.00  0.00    +0.000 HD
ENDBRANCH  18  20
ENDBRANCH  13  14
ENDBRANCH   1  13
TORSDOF 7
ENDMDL
MODEL 2
REMARK VINA RESULT:    -7.350      2.616      6.441
REMARK INTER + INTRA:         -10.743
REMARK INTER:                 -10.137
REMARK INTRA:                  -0.605
REMARK UNBOUND:                -0.600
REMARK  Name = 
REMARK  7 active torsions:
REMARK  status: ('A' for Active; 'I' for Inactive)
REMARK    1  A    between atoms: N_1  and  C_2
REMARK    2  A    between atoms: C_2  and  C_3
REMARK    3  A    between atoms: C_6  and  C_7
REMARK    4  A    between atoms: C_7  and  C_8
REMARK    5  A    between atoms: C_8  and  C_9
REMARK    6  A    between atoms: C_9  and  C_10
REMARK    7  A    between atoms: C_14  and  C_15
REMARK                            x       y       z     vdW  Elec       q    Type
REMARK                         _______ _______ _______ _____ _____    ______ ____
ROOT
ATOM      1  C   UNL     1      43.441   3.572  11.329  0.00  0.00    +0.000 C 
ENDROOT
BRANCH   1   2
ATOM      2  C   UNL     1      43.776   4.408  10.093  0.00  0.00    +0.000 C 
BRANCH   2   6
ATOM      3  C   UNL     1      46.560   2.408   7.624  0.00  0.00    +0.000 A 
ATOM      4  C   UNL     1      46.364   3.773   7.571  0.00  0.00    +0.000 A 
ATOM      5  N   UNL     1      45.488   4.442   8.351  0.00  0.00    +0.000 NA
ATOM      6  C   UNL     1      44.788   3.702   9.230  0.00  0.00    +0.000 A 
ATOM      7  N   UNL     1      44.892   2.366   9.361  0.00  0.00    +0.000 NA
ATOM      8  C   UNL     1      45.777   1.752   8.551  0.00  0.00    +0.000 A 
BRANCH   3   9
ATOM      9  C   UNL     1      47.524   1.695   6.735  0.00  0.00    +0.000 C 
BRANCH   9  10
ATOM     10  N   UNL     1      48.622   2.561   6.324  0.00  0.00    +0.000 NA
ATOM     11  H   UNL     1      48.697   2.551   5.307  0.00  0.00    +0.000 HD
ATOM     12  H   UNL     1      49.502   2.183   6.675  0.00  0.00    +0.000 HD
ENDBRANCH   9  10
ENDBRANCH   3   9
ENDBRANCH   2   6
ENDBRANCH   1   2
BRANCH   1  13
ATOM     13  C   UNL     1      43.471   4.413  12.606  0.00  0.00    +0.000 C 
BRANCH  13  14
ATOM     14  C   UNL     1      44.850   4.940  12.902  0.00  0.00    +0.000 A 
ATOM     15  C   UNL     1      45.897   4.070  13.187  0.00  0.00    +0.000 A 
ATOM     16  N   UNL     1      47.159   4.468  13.463  0.00  0.00    +0.000 NA
ATOM     17  C   UNL     1      47.396   5.803  13.449  0.00  0.00    +0.000 A 
ATOM     18  C   UNL     1      46.436   6.763  13.165  0.00  0.00    +0.000 A 
ATOM     19  C   UNL     1      45.139   6.311  12.884  0.00  0.00    +0.000 A 
BRANCH  18  20
ATOM     20  C   UNL     1      46.718   8.220  13.151  0.00  0.00    +0.000 C 
ATOM     21  N   UNL     1      46.971   8.866  14.330  0.00  0.00    +0.000 N 
ATOM     22  O   UNL     1      46.727   8.852  12.099  0.00  0.00    +0.000 OA
ATOM     23  H   UNL     1      46.990   8.448  15.247  0.00  0.00    +0.000 HD
ATOM     24  H   UNL     1      47.156   9.859  14.267  0.00  0.00    +0.000 HD
ENDBRANCH  18  20
ENDBRANCH  13  14
ENDBRANCH   1  13
TORSDOF 7
ENDMDL
MODEL 3
REMARK VINA RESULT:    -7.211      2.499      6.257
REMARK INTER + INTRA:         -10.551
REMARK INTER:                  -9.896
REMARK INTRA:                  -0.655
REMARK UNBOUND:                -0.600
REMARK  Name = 
REMARK  7 active torsions:
REMARK  status: ('A' for Active; 'I' for Inactive)
REMARK    1  A    between atoms: N_1  and  C_2
REMARK    2  A    between atoms: C_2  and  C_3
REMARK    3  A    between atoms: C_6  and  C_7
REMARK    4  A    between atoms: C_7  and  C_8
REMARK    5  A    between atoms: C_8  and  C_9
REMARK    6  A    between atoms: C_9  and  C_10
REMARK    7  A    between atoms: C_14  and  C_15
REMARK                            x       y       z     vdW  Elec       q    Type
REMARK                         _______ _______ _______ _____ _____    ______ ____
ROOT
ATOM      1  C   UNL     1      43.388   4.544  10.612  0.00  0.00    +0.000 C 
ENDROOT
BRANCH   1   2
ATOM      2  C   UNL     1      43.979   3.134  10.546  0.00  0.00    +0.000 C 
BRANCH   2   6
ATOM      3  C   UNL     1      46.446   2.710   7.145  0.00  0.00    +0.000 A 
ATOM      4  C   UNL     1      45.948   3.930   7.555  0.00  0.00    +0.000 A 
ATOM      5  N   UNL     1      45.164   4.099   8.641  0.00  0.00    +0.000 NA
ATOM      6  C   UNL     1      44.879   2.990   9.349  0.00  0.00    +0.000 A 
ATOM      7  N   UNL     1      45.303   1.751   9.034  0.00  0.00    +0.000 NA
ATOM      8  C   UNL     1      46.077   1.644   7.937  0.00  0.00    +0.000 A 
BRANCH   3   9
ATOM      9  C   UNL     1      47.298   2.553   5.928  0.00  0.00    +0.000 C 
BRANCH   9  10
ATOM     10  N   UNL     1      48.547   1.863   6.228  0.00  0.00    +0.000 NA
ATOM     11  H   UNL     1      49.025   1.637   5.356  0.00  0.00    +0.000 HD
ATOM     12  H   UNL     1      48.341   0.971   6.676  0.00  0.00    +0.000 HD
ENDBRANCH   9  10
ENDBRANCH   3   9
ENDBRANCH   2   6
ENDBRANCH   1   2
BRANCH   1  13
ATOM     13  C   UNL     1      43.465   5.123  12.026  0.00  0.00    +0.000 C 
BRANCH  13  14
ATOM     14  C   UNL     1      44.887   5.367  12.458  0.00  0.00    +0.000 A 
ATOM     15  C   UNL     1      45.712   6.225  11.740  0.00  0.00    +0.000 A 
ATOM     16  N   UNL     1      46.996   6.493  12.066  0.00  0.00    +0.000 NA
ATOM     17  C   UNL     1      47.487   5.879  13.171  0.00  0.00    +0.000 A 
ATOM     18  C   UNL     1      46.756   5.014  13.972  0.00  0.00    +0.000 A 
ATOM     19  C   UNL     1      45.428   4.761  13.601  0.00  0.00    +0.000 A 
BRANCH  18  20
ATOM     20  C   UNL     1      47.312   4.355  15.180  0.00  0.00    +0.000 C 
ATOM     21  N   UNL     1      47.549   5.100  16.302  0.00  0.00    +0.000 N 
ATOM     22  O   UNL     1      47.561   3.153  15.186  0.00  0.00    +0.000 OA
ATOM     23  H   UNL     1      47.381   6.088  16.408  0.00  0.00    +0.000 HD
ATOM     24  H   UNL     1      47.929   4.604  17.099  0.00  0.00    +0.000 HD
ENDBRANCH  18  20
ENDBRANCH  13  14
ENDBRANCH   1  13
TORSDOF 7
ENDMDL
MODEL 4
REMARK VINA RESULT:    -6.664      2.819      6.443
REMARK INTER + INTRA:          -9.796
REMARK INTER:                  -9.304
REMARK INTRA:                  -0.491
REMARK UNBOUND:                -0.600
REMARK  Name = 
REMARK  7 active torsions:
REMARK  status: ('A' for Active; 'I' for Inactive)
REMARK    1  A    between atoms: N_1  and  C_2
REMARK    2  A    between atoms: C_2  and  C_3
REMARK    3  A    between atoms: C_6  and  C_7
REMARK    4  A    between atoms: C_7  and  C_8
REMARK    5  A    between atoms: C_8  and  C_9
REMARK    6  A    between atoms: C_9  and  C_10
REMARK    7  A    between atoms: C_14  and  C_15
REMARK                            x       y       z     vdW  Elec       q    Type
REMARK                         _______ _______ _______ _____ _____    ______ ____
ROOT
ATOM      1  C   UNL     1      44.651   4.653  11.491  0.00  0.00    +0.000 C 
ENDROOT
BRANCH   1   2
ATOM      2  C   UNL     1      43.979   4.370  10.147  0.00  0.00    +0.000 C 
BRANCH   2   6
ATOM      3  C   UNL     1      46.593   2.395   7.481  0.00  0.00    +0.000 A 
ATOM      4  C   UNL     1      46.372   3.757   7.434  0.00  0.00    +0.000 A 
ATOM      5  N   UNL     1      45.549   4.418   8.276  0.00  0.00    +0.000 NA
ATOM      6  C   UNL     1      44.931   3.673   9.212  0.00  0.00    +0.000 A 
ATOM      7  N   UNL     1      45.067   2.340   9.342  0.00  0.00    +0.000 NA
ATOM      8  C   UNL     1      45.896   1.734   8.470  0.00  0.00    +0.000 A 
BRANCH   3   9
ATOM      9  C   UNL     1      47.497   1.690   6.523  0.00  0.00    +0.000 C 
BRANCH   9  10
ATOM     10  N   UNL     1      48.669   2.493   6.195  0.00  0.00    +0.000 NA
ATOM     11  H   UNL     1      49.495   1.896   6.186  0.00  0.00    +0.000 HD
ATOM     12  H   UNL     1      48.826   3.180   6.933  0.00  0.00    +0.000 HD
ENDBRANCH   9  10
ENDBRANCH   3   9
ENDBRANCH   2   6
ENDBRANCH   1   2
BRANCH   1  13
ATOM     13  C   UNL     1      44.195   5.989  12.080  0.00  0.00    +0.000 C 
BRANCH  13  14
ATOM     14  C   UNL     1      45.336   6.961  12.223  0.00  0.00    +0.000 A 
ATOM     15  C   UNL     1      45.145   8.320  12.001  0.00  0.00    +0.000 A 
ATOM     16  N   UNL     1      46.119   9.251  12.109  0.00  0.00    +0.000 NA
ATOM     17  C   UNL     1      47.351   8.808  12.463  0.00  0.00    +0.000 A 
ATOM     18  C   UNL     1      47.658   7.481  12.723  0.00  0.00    +0.000 A 
ATOM     19  C   UNL     1      46.621   6.545  12.600  0.00  0.00    +0.000 A 
BRANCH  18  20
ATOM     20  C   UNL     1      49.013   7.017  13.113  0.00  0.00    +0.000 C 
ATOM     21  N   UNL     1      50.029   7.069  12.199  0.00  0.00    +0.000 N 
ATOM     22  O   UNL     1      49.234   6.589  14.242  0.00  0.00    +0.000 OA
ATOM     23  H   UNL     1      49.961   7.401  11.250  0.00  0.00    +0.000 HD
ATOM     24  H   UNL     1      50.934   6.740  12.513  0.00  0.00    +0.000 HD
ENDBRANCH  18  20
ENDBRANCH  13  14
ENDBRANCH   1  13
TORSDOF 7
ENDMDL
MODEL 5
REMARK VINA RESULT:    -6.562      1.849      2.911
REMARK INTER + INTRA:          -9.655
REMARK INTER:                  -9.190
REMARK INTRA:                  -0.465
REMARK UNBOUND:                -0.600
REMARK  Name = 
REMARK  7 active torsions:
REMARK  status: ('A' for Active; 'I' for Inactive)
REMARK    1  A    between atoms: N_1  and  C_2
REMARK    2  A    between atoms: C_2  and  C_3
REMARK    3  A    between atoms: C_6  and  C_7
REMARK    4  A    between atoms: C_7  and  C_8
REMARK    5  A    between atoms: C_8  and  C_9
REMARK    6  A    between atoms: C_9  and  C_10
REMARK    7  A    between atoms: C_14  and  C_15
REMARK                            x       y       z     vdW  Elec       q    Type
REMARK                         _______ _______ _______ _____ _____    ______ ____
ROOT
ATOM      1  C   UNL     1      45.318   5.740  11.161  0.00  0.00    +0.000 C 
ENDROOT
BRANCH   1   2
ATOM      2  C   UNL     1      46.610   6.342  11.716  0.00  0.00    +0.000 C 
BRANCH   2   6
ATOM      3  C   UNL     1      47.492   4.707  15.509  0.00  0.00    +0.000 A 
ATOM      4  C   UNL     1      46.657   4.082  14.605  0.00  0.00    +0.000 A 
ATOM      5  N   UNL     1      46.361   4.575  13.384  0.00  0.00    +0.000 NA
ATOM      6  C   UNL     1      46.943   5.744  13.056  0.00  0.00    +0.000 A 
ATOM      7  N   UNL     1      47.766   6.442  13.862  0.00  0.00    +0.000 NA
ATOM      8  C   UNL     1      48.019   5.904  15.071  0.00  0.00    +0.000 A 
BRANCH   3   9
ATOM      9  C   UNL     1      47.786   4.144  16.861  0.00  0.00    +0.000 C 
BRANCH   9  10
ATOM     10  N   UNL     1      46.661   3.379  17.383  0.00  0.00    +0.000 NA
ATOM     11  H   UNL     1      46.760   3.281  18.393  0.00  0.00    +0.000 HD
ATOM     12  H   UNL     1      46.690   2.433  17.004  0.00  0.00    +0.000 HD
ENDBRANCH   9  10
ENDBRANCH   3   9
ENDBRANCH   2   6
ENDBRANCH   1   2
BRANCH   1  13
ATOM     13  C   UNL     1      45.332   5.683   9.633  0.00  0.00    +0.000 C 
BRANCH  13  14
ATOM     14  C   UNL     1      45.498   4.276   9.123  0.00  0.00    +0.000 A 
ATOM     15  C   UNL     1      44.818   3.219   9.718  0.00  0.00    +0.000 A 
ATOM     16  N   UNL     1      44.916   1.932   9.316  0.00  0.00    +0.000 NA
ATOM     17  C   UNL     1      45.731   1.681   8.261  0.00  0.00    +0.000 A 
ATOM     18  C   UNL     1      46.447   2.655   7.580  0.00  0.00    +0.000 A 
ATOM     19  C   UNL     1      46.319   3.977   8.026  0.00  0.00    +0.000 A 
BRANCH  18  20
ATOM     20  C   UNL     1      47.330   2.359   6.424  0.00  0.00    +0.000 C 
ATOM     21  N   UNL     1      47.153   3.044   5.253  0.00  0.00    +0.000 N 
ATOM     22  O   UNL     1      48.214   1.512   6.504  0.00  0.00    +0.000 OA
ATOM     23  H   UNL     1      46.463   3.757   5.078  0.00  0.00    +0.000 HD
ATOM     24  H   UNL     1      47.779   2.805   4.494  0.00  0.00    +0.000 HD
ENDBRANCH  18  20
ENDBRANCH  13  14
ENDBRANCH   1  13
TORSDOF 7
ENDMDL
MODEL 6
REMARK VINA RESULT:    -6.387      2.255      4.299
REMARK INTER + INTRA:          -9.414
REMARK INTER:                  -8.694
REMARK INTRA:                  -0.720
REMARK UNBOUND:                -0.600
REMARK  Name = 
REMARK  7 active torsions:
REMARK  status: ('A' for Active; 'I' for Inactive)
REMARK    1  A    between atoms: N_1  and  C_2
REMARK    2  A    between atoms: C_2  and  C_3
REMARK    3  A    between atoms: C_6  and  C_7
REMARK    4  A    between atoms: C_7  and  C_8
REMARK    5  A    between atoms: C_8  and  C_9
REMARK    6  A    between atoms: C_9  and  C_10
REMARK    7  A    between atoms: C_14  and  C_15
REMARK                            x       y       z     vdW  Elec       q    Type
REMARK                         _______ _______ _______ _____ _____    ______ ____
ROOT
ATOM      1  C   UNL     1      46.356   7.507  12.867  0.00  0.00    +0.000 C 
ENDROOT
BRANCH   1   2
ATOM      2  C   UNL     1      47.548   6.556  12.761  0.00  0.00    +0.000 C 
BRANCH   2   6
ATOM      3  C   UNL     1      47.834   4.233  16.278  0.00  0.00    +0.000 A 
ATOM      4  C   UNL     1      47.171   3.796  15.149  0.00  0.00    +0.000 A 
ATOM      5  N   UNL     1      47.069   4.511  14.008  0.00  0.00    +0.000 NA
ATOM      6  C   UNL     1      47.671   5.715  14.004  0.00  0.00    +0.000 A 
ATOM      7  N   UNL     1      48.334   6.243  15.049  0.00  0.00    +0.000 NA
ATOM      8  C   UNL     1      48.398   5.486  16.162  0.00  0.00    +0.000 A 
BRANCH   3   9
ATOM      9  C   UNL     1      47.915   3.426  17.531  0.00  0.00    +0.000 C 
BRANCH   9  10
ATOM     10  N   UNL     1      46.664   2.729  17.806  0.00  0.00    +0.000 NA
ATOM     11  H   UNL     1      46.528   2.666  18.815  0.00  0.00    +0.000 HD
ATOM     12  H   UNL     1      46.731   1.768  17.470  0.00  0.00    +0.000 HD
ENDBRANCH   9  10
ENDBRANCH   3   9
ENDBRANCH   2   6
ENDBRANCH   1   2
BRANCH   1  13
ATOM     13  C   UNL     1      45.423   7.381  11.661  0.00  0.00    +0.000 C 
BRANCH  13  14
ATOM     14  C   UNL     1      44.745   6.038  11.611  0.00  0.00    +0.000 A 
ATOM     15  C   UNL     1      43.938   5.609  12.660  0.00  0.00    +0.000 A 
ATOM     16  N   UNL     1      43.298   4.419  12.686  0.00  0.00    +0.000 NA
ATOM     17  C   UNL     1      43.464   3.612  11.609  0.00  0.00    +0.000 A 
ATOM     18  C   UNL     1      44.231   3.938  10.501  0.00  0.00    +0.000 A 
ATOM     19  C   UNL     1      44.879   5.180  10.511  0.00  0.00    +0.000 A 
BRANCH  18  20
ATOM     20  C   UNL     1      44.396   3.041   9.329  0.00  0.00    +0.000 C 
ATOM     21  N   UNL     1      44.411   3.577   8.071  0.00  0.00    +0.000 N 
ATOM     22  O   UNL     1      44.518   1.828   9.473  0.00  0.00    +0.000 OA
ATOM     23  H   UNL     1      44.320   4.553   7.838  0.00  0.00    +0.000 HD
ATOM     24  H   UNL     1      44.524   2.924   7.306  0.00  0.00    +0.000 HD
ENDBRANCH  18  20
ENDBRANCH  13  14
ENDBRANCH   1  13
TORSDOF 7
ENDMDL
MODEL 7
REMARK VINA RESULT:    -6.372      3.112      4.732
REMARK INTER + INTRA:          -9.393
REMARK INTER:                  -8.992
REMARK INTRA:                  -0.401
REMARK UNBOUND:                -0.600
REMARK  Name = 
REMARK  7 active torsions:
REMARK  status: ('A' for Active; 'I' for Inactive)
REMARK    1  A    between atoms: N_1  and  C_2
REMARK    2  A    between atoms: C_2  and  C_3
REMARK    3  A    between atoms: C_6  and  C_7
REMARK    4  A    between atoms: C_7  and  C_8
REMARK    5  A    between atoms: C_8  and  C_9
REMARK    6  A    between atoms: C_9  and  C_10
REMARK    7  A    between atoms: C_14  and  C_15
REMARK                            x       y       z     vdW  Elec       q    Type
REMARK                         _______ _______ _______ _____ _____    ______ ____
ROOT
ATOM      1  C   UNL     1      47.338   5.881  13.473  0.00  0.00    +0.000 C 
ENDROOT
BRANCH   1   2
ATOM      2  C   UNL     1      46.817   4.650  14.216  0.00  0.00    +0.000 C 
BRANCH   2   6
ATOM      3  C   UNL     1      48.607   4.352  18.030  0.00  0.00    +0.000 A 
ATOM      4  C   UNL     1      47.665   3.449  17.578  0.00  0.00    +0.000 A 
ATOM      5  N   UNL     1      47.081   3.514  16.362  0.00  0.00    +0.000 NA
ATOM      6  C   UNL     1      47.472   4.526  15.566  0.00  0.00    +0.000 A 
ATOM      7  N   UNL     1      48.373   5.466  15.909  0.00  0.00    +0.000 NA
ATOM      8  C   UNL     1      48.918   5.354  17.136  0.00  0.00    +0.000 A 
BRANCH   3   9
ATOM      9  C   UNL     1      49.222   4.264  19.388  0.00  0.00    +0.000 C 
BRANCH   9  10
ATOM     10  N   UNL     1      48.312   3.664  20.356  0.00  0.00    +0.000 NA
ATOM     11  H   UNL     1      47.450   4.206  20.389  0.00  0.00    +0.000 HD
ATOM     12  H   UNL     1      48.720   3.727  21.289  0.00  0.00    +0.000 HD
ENDBRANCH   9  10
ENDBRANCH   3   9
ENDBRANCH   2   6
ENDBRANCH   1   2
BRANCH   1  13
ATOM     13  C   UNL     1      46.194   6.748  12.944  0.00  0.00    +0.000 C 
BRANCH  13  14
ATOM     14  C   UNL     1      45.204   5.947  12.141  0.00  0.00    +0.000 A 
ATOM     15  C   UNL     1      43.917   5.723  12.616  0.00  0.00    +0.000 A 
ATOM     16  N   UNL     1      42.975   5.015  11.953  0.00  0.00    +0.000 NA
ATOM     17  C   UNL     1      43.330   4.505  10.748  0.00  0.00    +0.000 A 
ATOM     18  C   UNL     1      44.578   4.673  10.167  0.00  0.00    +0.000 A 
ATOM     19  C   UNL     1      45.528   5.413  10.885  0.00  0.00    +0.000 A 
BRANCH  18  20
ATOM     20  C   UNL     1      44.946   4.109   8.844  0.00  0.00    +0.000 C 
ATOM     21  N   UNL     1      44.370   2.939   8.430  0.00  0.00    +0.000 N 
ATOM     22  O   UNL     1      45.756   4.676   8.117  0.00  0.00    +0.000 OA
ATOM     23  H   UNL     1      43.696   2.393   8.942  0.00  0.00    +0.000 HD
ATOM     24  H   UNL     1      44.654   2.595   7.521  0.00  0.00    +0.000 HD
ENDBRANCH  18  20
ENDBRANCH  13  14
ENDBRANCH   1  13
TORSDOF 7
ENDMDL
MODEL 8
REMARK VINA RESULT:    -6.156      3.777      5.326
REMARK INTER + INTRA:          -9.095
REMARK INTER:                  -8.742
REMARK INTRA:                  -0.353
REMARK UNBOUND:                -0.600
REMARK  Name = 
REMARK  7 active torsions:
REMARK  status: ('A' for Active; 'I' for Inactive)
REMARK    1  A    between atoms: N_1  and  C_2
REMARK    2  A    between atoms: C_2  and  C_3
REMARK    3  A    between atoms: C_6  and  C_7
REMARK    4  A    between atoms: C_7  and  C_8
REMARK    5  A    between atoms: C_8  and  C_9
REMARK    6  A    between atoms: C_9  and  C_10
REMARK    7  A    between atoms: C_14  and  C_15
REMARK                            x       y       z     vdW  Elec       q    Type
REMARK                         _______ _______ _______ _____ _____    ______ ____
ROOT
ATOM      1  C   UNL     1      47.072   4.157  14.325  0.00  0.00    +0.000 C 
ENDROOT
BRANCH   1   2
ATOM      2  C   UNL     1      47.184   4.365  15.836  0.00  0.00    +0.000 C 
BRANCH   2   6
ATOM      3  C   UNL     1      50.673   2.480  17.288  0.00  0.00    +0.000 A 
ATOM      4  C   UNL     1      50.389   3.808  17.532  0.00  0.00    +0.000 A 
ATOM      5  N   UNL     1      49.280   4.437  17.088  0.00  0.00    +0.000 NA
ATOM      6  C   UNL     1      48.415   3.689  16.377  0.00  0.00    +0.000 A 
ATOM      7  N   UNL     1      48.597   2.390  16.072  0.00  0.00    +0.000 NA
ATOM      8  C   UNL     1      49.724   1.818  16.537  0.00  0.00    +0.000 A 
BRANCH   3   9
ATOM      9  C   UNL     1      51.918   1.817  17.778  0.00  0.00    +0.000 C 
BRANCH   9  10
ATOM     10  N   UNL     1      51.710   0.397  18.035  0.00  0.00    +0.000 NA
ATOM     11  H   UNL     1      51.721   0.231  19.041  0.00  0.00    +0.000 HD
ATOM     12  H   UNL     1      52.491  -0.135  17.652  0.00  0.00    +0.000 HD
ENDBRANCH   9  10
ENDBRANCH   3   9
ENDBRANCH   2   6
ENDBRANCH   1   2
BRANCH   1  13
ATOM     13  C   UNL     1      46.481   5.384  13.628  0.00  0.00    +0.000 C 
BRANCH  13  14
ATOM     14  C   UNL     1      45.275   5.034  12.797  0.00  0.00    +0.000 A 
ATOM     15  C   UNL     1      43.994   5.355  13.232  0.00  0.00    +0.000 A 
ATOM     16  N   UNL     1      42.866   5.074  12.542  0.00  0.00    +0.000 NA
ATOM     17  C   UNL     1      43.019   4.442  11.352  0.00  0.00    +0.000 A 
ATOM     18  C   UNL     1      44.245   4.084  10.810  0.00  0.00    +0.000 A 
ATOM     19  C   UNL     1      45.391   4.393  11.555  0.00  0.00    +0.000 A 
BRANCH  18  20
ATOM     20  C   UNL     1      44.390   3.397   9.503  0.00  0.00    +0.000 C 
ATOM     21  N   UNL     1      44.251   4.117   8.347  0.00  0.00    +0.000 N 
ATOM     22  O   UNL     1      44.632   2.195   9.443  0.00  0.00    +0.000 OA
ATOM     23  H   UNL     1      44.054   5.103   8.279  0.00  0.00    +0.000 HD
ATOM     24  H   UNL     1      44.358   3.602   7.482  0.00  0.00    +0.000 HD
ENDBRANCH  18  20
ENDBRANCH  13  14
ENDBRANCH   1  13
TORSDOF 7
ENDMDL
MODEL 9
REMARK VINA RESULT:    -5.897      4.305      5.898
REMARK INTER + INTRA:          -8.738
REMARK INTER:                  -8.423
REMARK INTRA:                  -0.315
REMARK UNBOUND:                -0.600
REMARK  Name = 
REMARK  7 active torsions:
REMARK  status: ('A' for Active; 'I' for Inactive)
REMARK    1  A    between atoms: N_1  and  C_2
REMARK    2  A    between atoms: C_2  and  C_3
REMARK    3  A    between atoms: C_6  and  C_7
REMARK    4  A    between atoms: C_7  and  C_8
REMARK    5  A    between atoms: C_8  and  C_9
REMARK    6  A    between atoms: C_9  and  C_10
REMARK    7  A    between atoms: C_14  and  C_15
REMARK                            x       y       z     vdW  Elec       q    Type
REMARK                         _______ _______ _______ _____ _____    ______ ____
ROOT
ATOM      1  C   UNL     1      47.752   5.170  15.318  0.00  0.00    +0.000 C 
ENDROOT
BRANCH   1   2
ATOM      2  C   UNL     1      47.900   4.784  16.791  0.00  0.00    +0.000 C 
BRANCH   2   6
ATOM      3  C   UNL     1      51.216   2.244  17.416  0.00  0.00    +0.000 A 
ATOM      4  C   UNL     1      50.049   1.811  16.819  0.00  0.00    +0.000 A 
ATOM      5  N   UNL     1      48.976   2.599  16.599  0.00  0.00    +0.000 NA
ATOM      6  C   UNL     1      49.089   3.883  16.988  0.00  0.00    +0.000 A 
ATOM      7  N   UNL     1      50.175   4.409  17.587  0.00  0.00    +0.000 NA
ATOM      8  C   UNL     1      51.212   3.573  17.786  0.00  0.00    +0.000 A 
BRANCH   3   9
ATOM      9  C   UNL     1      52.381   1.342  17.661  0.00  0.00    +0.000 C 
BRANCH   9  10
ATOM     10  N   UNL     1      51.977   0.105  18.317  0.00  0.00    +0.000 NA
ATOM     11  H   UNL     1      51.698  -0.576  17.611  0.00  0.00    +0.000 HD
ATOM     12  H   UNL     1      51.149   0.277  18.885  0.00  0.00    +0.000 HD
ENDBRANCH   9  10
ENDBRANCH   3   9
ENDBRANCH   2   6
ENDBRANCH   1   2
BRANCH   1  13
ATOM     13  C   UNL     1      46.686   4.326  14.617  0.00  0.00    +0.000 C 
BRANCH  13  14
ATOM     14  C   UNL     1      46.337   4.874  13.259  0.00  0.00    +0.000 A 
ATOM     15  C   UNL     1      46.957   6.020  12.773  0.00  0.00    +0.000 A 
ATOM     16  N   UNL     1      46.697   6.570  11.566  0.00  0.00    +0.000 NA
ATOM     17  C   UNL     1      45.771   5.945  10.796  0.00  0.00    +0.000 A 
ATOM     18  C   UNL     1      45.098   4.791  11.169  0.00  0.00    +0.000 A 
ATOM     19  C   UNL     1      45.396   4.250  12.427  0.00  0.00    +0.000 A 
BRANCH  18  20
ATOM     20  C   UNL     1      44.092   4.119  10.309  0.00  0.00    +0.000 C 
ATOM     21  N   UNL     1      44.061   4.397   8.969  0.00  0.00    +0.000 N 
ATOM     22  O   UNL     1      43.288   3.320  10.781  0.00  0.00    +0.000 OA
ATOM     23  H   UNL     1      44.671   5.031   8.478  0.00  0.00    +0.000 HD
ATOM     24  H   UNL     1      43.356   3.915   8.427  0.00  0.00    +0.000 HD
ENDBRANCH  18  20
ENDBRANCH  13  14
ENDBRANCH   1  13
TORSDOF 7
ENDMDL
