MODEL 1
REMARK VINA RESULT:    -8.039      0.000      0.000
REMARK INTER + INTRA:         -11.386
REMARK INTER:                 -10.389
REMARK INTRA:                  -0.997
REMARK UNBOUND:                -0.997
REMARK  Name = 
REMARK  6 active torsions:
REMARK  status: ('A' for Active; 'I' for Inactive)
REMARK    1  A    between atoms: C_1  and  C_2
REMARK    2  A    between atoms: C_4  and  C_5
REMARK    3  A    between atoms: C_10  and  N_11
REMARK    4  A    between atoms: N_11  and  C_12
REMARK    5  A    between atoms: C_12  and  C_13
REMARK    6  A    between atoms: C_17  and  C_18
REMARK                            x       y       z     vdW  Elec       q    Type
REMARK                         _______ _______ _______ _____ _____    ______ ____
ROOT
ATOM      1  N   UNL     1      44.359   6.655  12.625  0.00  0.00    +0.000 N 
ATOM      2  H   UNL     1      44.056   6.154  13.448  0.00  0.00    +0.000 HD
ENDROOT
BRANCH   1   9
ATOM      3  C   UNL     1      46.180   4.617  13.674  0.00  0.00    +0.000 C 
ATOM      4  C   UNL     1      46.630   5.927  13.088  0.00  0.00    +0.000 A 
ATOM      5  C   UNL     1      48.006   6.219  13.072  0.00  0.00    +0.000 A 
ATOM      6  C   UNL     1      48.467   7.433  12.560  0.00  0.00    +0.000 A 
ATOM      7  C   UNL     1      47.513   8.308  12.085  0.00  0.00    +0.000 A 
ATOM      8  N   UNL     1      46.180   8.054  12.084  0.00  0.00    +0.000 NA
ATOM      9  C   UNL     1      45.738   6.875  12.572  0.00  0.00    +0.000 A 
BRANCH   6  10
ATOM     10  C   UNL     1      49.923   7.712  12.560  0.00  0.00    +0.000 C 
ATOM     11  N   UNL     1      50.601   7.718  13.746  0.00  0.00    +0.000 N 
ATOM     12  O   UNL     1      50.522   7.940  11.514  0.00  0.00    +0.000 OA
ATOM     13  H   UNL     1      50.210   7.545  14.658  0.00  0.00    +0.000 HD
ATOM     14  H   UNL     1      51.592   7.918  13.696  0.00  0.00    +0.000 HD
ENDBRANCH   6  10
ENDBRANCH   1   9
BRANCH   1  15
ATOM     15  C   UNL     1      43.669   6.256  11.400  0.00  0.00    +0.000 C 
BRANCH  15  16
ATOM     16  C   UNL     1      43.900   4.831  10.949  0.00  0.00    +0.000 A 
ATOM     17  C   UNL     1      43.183   3.806  11.563  0.00  0.00    +0.000 A 
ATOM     18  N   UNL     1      43.249   2.503  11.212  0.00  0.00    +0.000 NA
ATOM     19  C   UNL     1      44.065   2.196  10.177  0.00  0.00    +0.000 A 
ATOM     20  C   UNL     1      44.820   3.116   9.448  0.00  0.00    +0.000 A 
ATOM     21  C   UNL     1      44.705   4.461   9.861  0.00  0.00    +0.000 A 
BRANCH  20  22
ATOM     22  C   UNL     1      45.687   2.704   8.321  0.00  0.00    +0.000 A 
ATOM     23  C   UNL     1      46.247   1.418   8.244  0.00  0.00    +0.000 A 
ATOM     24  C   UNL     1      47.075   1.094   7.177  0.00  0.00    +0.000 A 
ATOM     25  N   UNL     1      47.380   1.944   6.179  0.00  0.00    +0.000 NA
ATOM     26  C   UNL     1      46.835   3.174   6.252  0.00  0.00    +0.000 A 
ATOM     27  C   UNL     1      46.004   3.591   7.283  0.00  0.00    +0.000 A 
ENDBRANCH  20  22
ENDBRANCH  15  16
ENDBRANCH   1  15
TORSDOF 5
ENDMDL
MODEL 2
REMARK VINA RESULT:    -8.003      2.467      6.728
REMARK INTER + INTRA:         -11.339
REMARK INTER:                 -10.512
REMARK INTRA:                  -0.828
REMARK UNBOUND:                -0.997
REMARK  Name = 
REMARK  6 active torsions:
REMARK  status: ('A' for Active; 'I' for Inactive)
REMARK    1  A    between atoms: C_1  and  C_2
REMARK    2  A    between atoms: C_4  and  C_5
REMARK    3  A    between atoms: C_10  and  N_11
REMARK    4  A    between atoms: N_11  and  C_12
REMARK    5  A    between atoms: C_12  and  C_13
REMARK    6  A    between atoms: C_17  and  C_18
REMARK                            x       y       z     vdW  Elec       q    Type
REMARK                         _______ _______ _______ _____ _____    ______ ____
ROOT
ATOM      1  N   UNL     1      43.910   4.903  10.006  0.00  0.00    +0.000 N 
ATOM      2  H   UNL     1      42.987   5.048   9.622  0.00  0.00    +0.000 HD
ENDROOT
BRANCH   1   9
ATOM      3  C   UNL     1      43.968   2.011  10.451  0.00  0.00    +0.000 C 
ATOM      4  C   UNL     1      44.800   2.720   9.419  0.00  0.00    +0.000 A 
ATOM      5  C   UNL     1      45.693   1.964   8.639  0.00  0.00    +0.000 A 
ATOM      6  C   UNL     1      46.502   2.585   7.686  0.00  0.00    +0.000 A 
ATOM      7  C   UNL     1      46.377   3.952   7.561  0.00  0.00    +0.000 A 
ATOM      8  N   UNL     1      45.523   4.708   8.296  0.00  0.00    +0.000 NA
ATOM      9  C   UNL     1      44.736   4.103   9.211  0.00  0.00    +0.000 A 
BRANCH   6  10
ATOM     10  C   UNL     1      47.435   1.760   6.881  0.00  0.00    +0.000 C 
ATOM     11  N   UNL     1      48.547   2.344   6.343  0.00  0.00    +0.000 N 
ATOM     12  O   UNL     1      47.221   0.568   6.691  0.00  0.00    +0.000 OA
ATOM     13  H   UNL     1      48.818   3.310   6.436  0.00  0.00    +0.000 HD
ATOM     14  H   UNL     1      49.152   1.742   5.798  0.00  0.00    +0.000 HD
ENDBRANCH   6  10
ENDBRANCH   1   9
BRANCH   1  15
ATOM     15  C   UNL     1      44.486   6.093  10.632  0.00  0.00    +0.000 C 
BRANCH  15  16
ATOM     16  C   UNL     1      45.405   5.839  11.806  0.00  0.00    +0.000 A 
ATOM     17  C   UNL     1      45.111   4.794  12.678  0.00  0.00    +0.000 A 
ATOM     18  N   UNL     1      45.882   4.424  13.724  0.00  0.00    +0.000 NA
ATOM     19  C   UNL     1      47.026   5.124  13.911  0.00  0.00    +0.000 A 
ATOM     20  C   UNL     1      47.466   6.174  13.103  0.00  0.00    +0.000 A 
ATOM     21  C   UNL     1      46.618   6.510  12.025  0.00  0.00    +0.000 A 
BRANCH  20  22
ATOM     22  C   UNL     1      48.735   6.889  13.366  0.00  0.00    +0.000 A 
ATOM     23  C   UNL     1      49.270   7.005  14.660  0.00  0.00    +0.000 A 
ATOM     24  C   UNL     1      50.450   7.710  14.853  0.00  0.00    +0.000 A 
ATOM     25  N   UNL     1      51.144   8.299  13.860  0.00  0.00    +0.000 NA
ATOM     26  C   UNL     1      50.632   8.179  12.619  0.00  0.00    +0.000 A 
ATOM     27  C   UNL     1      49.455   7.501  12.331  0.00  0.00    +0.000 A 
ENDBRANCH  20  22
ENDBRANCH  15  16
ENDBRANCH   1  15
TORSDOF 5
ENDMDL
MODEL 3
REMARK VINA RESULT:    -7.865      1.228      1.722
REMARK INTER + INTRA:         -11.161
REMARK INTER:                 -10.510
REMARK INTRA:                  -0.651
REMARK UNBOUND:                -0.997
REMARK  Name = 
REMARK  6 active torsions:
REMARK  status: ('A' for Active; 'I' for Inactive)
REMARK    1  A    between atoms: C_1  and  C_2
REMARK    2  A    between atoms: C_4  and  C_5
REMARK    3  A    between atoms: C_10  and  N_11
REMARK    4  A    between atoms: N_11  and  C_12
REMARK    5  A    between atoms: C_12  and  C_13
REMARK    6  A    between atoms: C_17  and  C_18
REMARK                            x       y       z     vdW  Elec       q    Type
REMARK                         _______ _______ _______ _____ _____    ______ ____
ROOT
ATOM      1  N   UNL     1      44.084   6.507  12.662  0.00  0.00    +0.000 N 
ATOM      2  H   UNL     1      43.526   5.947  13.292  0.00  0.00    +0.000 HD
ENDROOT
BRANCH   1   9
ATOM      3  C   UNL     1      45.312   9.159  12.479  0.00  0.00    +0.000 C 
ATOM      4  C   UNL     1      46.025   7.933  12.980  0.00  0.00    +0.000 A 
ATOM      5  C   UNL     1      47.378   8.046  13.350  0.00  0.00    +0.000 A 
ATOM      6  C   UNL     1      48.085   6.930  13.798  0.00  0.00    +0.000 A 
ATOM      7  C   UNL     1      47.395   5.737  13.850  0.00  0.00    +0.000 A 
ATOM      8  N   UNL     1      46.090   5.597  13.503  0.00  0.00    +0.000 NA
ATOM      9  C   UNL     1      45.406   6.681  13.079  0.00  0.00    +0.000 A 
BRANCH   6  10
ATOM     10  C   UNL     1      49.510   7.081  14.178  0.00  0.00    +0.000 C 
ATOM     11  N   UNL     1      50.377   7.663  13.296  0.00  0.00    +0.000 N 
ATOM     12  O   UNL     1      49.918   6.690  15.266  0.00  0.00    +0.000 OA
ATOM     13  H   UNL     1      50.150   8.018  12.381  0.00  0.00    +0.000 HD
ATOM     14  H   UNL     1      51.341   7.741  13.599  0.00  0.00    +0.000 HD
ENDBRANCH   6  10
ENDBRANCH   1   9
BRANCH   1  15
ATOM     15  C   UNL     1      43.828   6.242  11.248  0.00  0.00    +0.000 C 
BRANCH  15  16
ATOM     16  C   UNL     1      44.040   4.813  10.798  0.00  0.00    +0.000 A 
ATOM     17  C   UNL     1      43.306   3.799  11.408  0.00  0.00    +0.000 A 
ATOM     18  N   UNL     1      43.355   2.495  11.058  0.00  0.00    +0.000 NA
ATOM     19  C   UNL     1      44.170   2.176  10.025  0.00  0.00    +0.000 A 
ATOM     20  C   UNL     1      44.941   3.085   9.299  0.00  0.00    +0.000 A 
ATOM     21  C   UNL     1      44.844   4.432   9.713  0.00  0.00    +0.000 A 
BRANCH  20  22
ATOM     22  C   UNL     1      45.806   2.661   8.176  0.00  0.00    +0.000 A 
ATOM     23  C   UNL     1      46.377   1.379   8.119  0.00  0.00    +0.000 A 
ATOM     24  C   UNL     1      47.203   1.044   7.054  0.00  0.00    +0.000 A 
ATOM     25  N   UNL     1      47.495   1.878   6.038  0.00  0.00    +0.000 NA
ATOM     26  C   UNL     1      46.938   3.104   6.092  0.00  0.00    +0.000 A 
ATOM     27  C   UNL     1      46.109   3.532   7.120  0.00  0.00    +0.000 A 
ENDBRANCH  20  22
ENDBRANCH  15  16
ENDBRANCH   1  15
TORSDOF 5
ENDMDL
MODEL 4
REMARK VINA RESULT:    -7.777      2.882      7.013
REMARK INTER + INTRA:         -11.046
REMARK INTER:                 -10.877
REMARK INTRA:                  -0.169
REMARK UNBOUND:                -0.997
REMARK  Name = 
REMARK  6 active torsions:
REMARK  status: ('A' for Active; 'I' for Inactive)
REMARK    1  A    between atoms: C_1  and  C_2
REMARK    2  A    between atoms: C_4  and  C_5
REMARK    3  A    between atoms: C_10  and  N_11
REMARK    4  A    between atoms: N_11  and  C_12
REMARK    5  A    between atoms: C_12  and  C_13
REMARK    6  A    between atoms: C_17  and  C_18
REMARK                            x       y       z     vdW  Elec       q    Type
REMARK                         _______ _______ _______ _____ _____    ______ ____
ROOT
ATOM      1  N   UNL     1      43.882   5.021   9.823  0.00  0.00    +0.000 N 
ATOM      2  H   UNL     1      43.830   5.942   9.411  0.00  0.00    +0.000 HD
ENDROOT
BRANCH   1   9
ATOM      3  C   UNL     1      43.847   2.178  10.522  0.00  0.00    +0.000 C 
ATOM      4  C   UNL     1      44.721   2.771   9.452  0.00  0.00    +0.000 A 
ATOM      5  C   UNL     1      45.610   1.925   8.763  0.00  0.00    +0.000 A 
ATOM      6  C   UNL     1      46.457   2.437   7.780  0.00  0.00    +0.000 A 
ATOM      7  C   UNL     1      46.374   3.791   7.533  0.00  0.00    +0.000 A 
ATOM      8  N   UNL     1      45.526   4.632   8.177  0.00  0.00    +0.000 NA
ATOM      9  C   UNL     1      44.702   4.132   9.122  0.00  0.00    +0.000 A 
BRANCH   6  10
ATOM     10  C   UNL     1      47.383   1.520   7.074  0.00  0.00    +0.000 C 
ATOM     11  N   UNL     1      48.521   2.025   6.510  0.00  0.00    +0.000 N 
ATOM     12  O   UNL     1      47.141   0.321   6.988  0.00  0.00    +0.000 OA
ATOM     13  H   UNL     1      48.816   2.988   6.521  0.00  0.00    +0.000 HD
ATOM     14  H   UNL     1      49.120   1.361   6.035  0.00  0.00    +0.000 HD
ENDBRANCH   6  10
ENDBRANCH   1   9
BRANCH   1  15
ATOM     15  C   UNL     1      43.951   5.028  11.283  0.00  0.00    +0.000 C 
BRANCH  15  16
ATOM     16  C   UNL     1      45.258   5.502  11.878  0.00  0.00    +0.000 A 
ATOM     17  C   UNL     1      45.959   6.521  11.238  0.00  0.00    +0.000 A 
ATOM     18  N   UNL     1      47.102   7.076  11.698  0.00  0.00    +0.000 NA
ATOM     19  C   UNL     1      47.574   6.603  12.876  0.00  0.00    +0.000 A 
ATOM     20  C   UNL     1      46.965   5.610  13.644  0.00  0.00    +0.000 A 
ATOM     21  C   UNL     1      45.773   5.072  13.111  0.00  0.00    +0.000 A 
BRANCH  20  22
ATOM     22  C   UNL     1      47.538   5.148  14.928  0.00  0.00    +0.000 A 
ATOM     23  C   UNL     1      47.191   3.911  15.496  0.00  0.00    +0.000 A 
ATOM     24  C   UNL     1      47.739   3.540  16.717  0.00  0.00    +0.000 A 
ATOM     25  N   UNL     1      48.612   4.296  17.410  0.00  0.00    +0.000 NA
ATOM     26  C   UNL     1      48.948   5.479  16.857  0.00  0.00    +0.000 A 
ATOM     27  C   UNL     1      48.446   5.938  15.647  0.00  0.00    +0.000 A 
ENDBRANCH  20  22
ENDBRANCH  15  16
ENDBRANCH   1  15
TORSDOF 5
ENDMDL
MODEL 5
REMARK VINA RESULT:    -6.904      2.334      2.930
REMARK INTER + INTRA:          -9.918
REMARK INTER:                  -9.587
REMARK INTRA:                  -0.331
REMARK UNBOUND:                -0.997
REMARK  Name = 
REMARK  6 active torsions:
REMARK  status: ('A' for Active; 'I' for Inactive)
REMARK    1  A    between atoms: C_1  and  C_2
REMARK    2  A    between atoms: C_4  and  C_5
REMARK    3  A    between atoms: C_10  and  N_11
REMARK    4  A    between atoms: N_11  and  C_12
REMARK    5  A    between atoms: C_12  and  C_13
REMARK    6  A    between atoms: C_17  and  C_18
REMARK                            x       y       z     vdW  Elec       q    Type
REMARK                         _______ _______ _______ _____ _____    ______ ____
ROOT
ATOM      1  N   UNL     1      46.569   6.767  11.878  0.00  0.00    +0.000 N 
ATOM      2  H   UNL     1      46.909   7.701  11.696  0.00  0.00    +0.000 HD
ENDROOT
BRANCH   1   9
ATOM      3  C   UNL     1      48.613   8.169  13.436  0.00  0.00    +0.000 C 
ATOM      4  C   UNL     1      47.949   6.892  13.873  0.00  0.00    +0.000 A 
ATOM      5  C   UNL     1      48.353   6.305  15.086  0.00  0.00    +0.000 A 
ATOM      6  C   UNL     1      47.781   5.108  15.519  0.00  0.00    +0.000 A 
ATOM      7  C   UNL     1      46.821   4.549  14.703  0.00  0.00    +0.000 A 
ATOM      8  N   UNL     1      46.408   5.092  13.530  0.00  0.00    +0.000 NA
ATOM      9  C   UNL     1      46.957   6.255  13.119  0.00  0.00    +0.000 A 
BRANCH   6  10
ATOM     10  C   UNL     1      48.231   4.513  16.800  0.00  0.00    +0.000 C 
ATOM     11  N   UNL     1      48.393   3.159  16.886  0.00  0.00    +0.000 N 
ATOM     12  O   UNL     1      48.455   5.217  17.779  0.00  0.00    +0.000 OA
ATOM     13  H   UNL     1      48.238   2.491  16.148  0.00  0.00    +0.000 HD
ATOM     14  H   UNL     1      48.698   2.799  17.782  0.00  0.00    +0.000 HD
ENDBRANCH   6  10
ENDBRANCH   1   9
BRANCH   1  15
ATOM     15  C   UNL     1      45.198   6.536  11.427  0.00  0.00    +0.000 C 
BRANCH  15  16
ATOM     16  C   UNL     1      44.921   5.173  10.834  0.00  0.00    +0.000 A 
ATOM     17  C   UNL     1      43.833   4.441  11.306  0.00  0.00    +0.000 A 
ATOM     18  N   UNL     1      43.442   3.243  10.819  0.00  0.00    +0.000 NA
ATOM     19  C   UNL     1      44.162   2.744   9.788  0.00  0.00    +0.000 A 
ATOM     20  C   UNL     1      45.255   3.375   9.191  0.00  0.00    +0.000 A 
ATOM     21  C   UNL     1      45.612   4.624   9.743  0.00  0.00    +0.000 A 
BRANCH  20  22
ATOM     22  C   UNL     1      45.991   2.768   8.059  0.00  0.00    +0.000 A 
ATOM     23  C   UNL     1      46.410   1.427   8.077  0.00  0.00    +0.000 A 
ATOM     24  C   UNL     1      47.120   0.917   6.998  0.00  0.00    +0.000 A 
ATOM     25  N   UNL     1      47.437   1.632   5.902  0.00  0.00    +0.000 NA
ATOM     26  C   UNL     1      47.026   2.916   5.885  0.00  0.00    +0.000 A 
ATOM     27  C   UNL     1      46.319   3.515   6.919  0.00  0.00    +0.000 A 
ENDBRANCH  20  22
ENDBRANCH  15  16
ENDBRANCH   1  15
TORSDOF 5
ENDMDL
MODEL 6
REMARK VINA RESULT:    -6.848      2.721      3.389
REMARK INTER + INTRA:          -9.846
REMARK INTER:                  -9.213
REMARK INTRA:                  -0.633
REMARK UNBOUND:                -0.997
REMARK  Name = 
REMARK  6 active torsions:
REMARK  status: ('A' for Active; 'I' for Inactive)
REMARK    1  A    between atoms: C_1  and  C_2
REMARK    2  A    between atoms: C_4  and  C_5
REMARK    3  A    between atoms: C_10  and  N_11
REMARK    4  A    between atoms: N_11  and  C_12
REMARK    5  A    between atoms: C_12  and  C_13
REMARK    6  A    between atoms: C_17  and  C_18
REMARK                            x       y       z     vdW  Elec       q    Type
REMARK                         _______ _______ _______ _____ _____    ______ ____
ROOT
ATOM      1  N   UNL     1      46.419   3.466  13.309  0.00  0.00    +0.000 N 
ATOM      2  H   UNL     1      47.039   3.349  12.520  0.00  0.00    +0.000 HD
ENDROOT
BRANCH   1   9
ATOM      3  C   UNL     1      47.493   6.123  12.712  0.00  0.00    +0.000 C 
ATOM      4  C   UNL     1      47.498   5.500  14.081  0.00  0.00    +0.000 A 
ATOM      5  C   UNL     1      48.087   6.213  15.142  0.00  0.00    +0.000 A 
ATOM      6  C   UNL     1      48.135   5.663  16.423  0.00  0.00    +0.000 A 
ATOM      7  C   UNL     1      47.586   4.409  16.582  0.00  0.00    +0.000 A 
ATOM      8  N   UNL     1      47.009   3.698  15.580  0.00  0.00    +0.000 NA
ATOM      9  C   UNL     1      46.956   4.236  14.343  0.00  0.00    +0.000 A 
BRANCH   6  10
ATOM     10  C   UNL     1      48.765   6.438  17.519  0.00  0.00    +0.000 C 
ATOM     11  N   UNL     1      48.289   7.684  17.814  0.00  0.00    +0.000 N 
ATOM     12  O   UNL     1      49.705   5.978  18.159  0.00  0.00    +0.000 OA
ATOM     13  H   UNL     1      47.527   8.156  17.355  0.00  0.00    +0.000 HD
ATOM     14  H   UNL     1      48.754   8.177  18.567  0.00  0.00    +0.000 HD
ENDBRANCH   6  10
ENDBRANCH   1   9
BRANCH   1  15
ATOM     15  C   UNL     1      45.020   3.676  12.937  0.00  0.00    +0.000 C 
BRANCH  15  16
ATOM     16  C   UNL     1      44.745   3.800  11.455  0.00  0.00    +0.000 A 
ATOM     17  C   UNL     1      43.741   4.665  11.026  0.00  0.00    +0.000 A 
ATOM     18  N   UNL     1      43.439   4.913   9.733  0.00  0.00    +0.000 NA
ATOM     19  C   UNL     1      44.189   4.277   8.803  0.00  0.00    +0.000 A 
ATOM     20  C   UNL     1      45.245   3.407   9.081  0.00  0.00    +0.000 A 
ATOM     21  C   UNL     1      45.513   3.191  10.450  0.00  0.00    +0.000 A 
BRANCH  20  22
ATOM     22  C   UNL     1      46.026   2.752   8.007  0.00  0.00    +0.000 A 
ATOM     23  C   UNL     1      46.449   3.448   6.863  0.00  0.00    +0.000 A 
ATOM     24  C   UNL     1      47.156   2.776   5.874  0.00  0.00    +0.000 A 
ATOM     25  N   UNL     1      47.485   1.472   5.941  0.00  0.00    +0.000 NA
ATOM     26  C   UNL     1      47.085   0.810   7.045  0.00  0.00    +0.000 A 
ATOM     27  C   UNL     1      46.367   1.394   8.079  0.00  0.00    +0.000 A 
ENDBRANCH  20  22
ENDBRANCH  15  16
ENDBRANCH   1  15
TORSDOF 5
ENDMDL
MODEL 7
REMARK VINA RESULT:    -6.575      1.502      2.291
REMARK INTER + INTRA:          -9.494
REMARK INTER:                  -8.895
REMARK INTRA:                  -0.599
REMARK UNBOUND:                -0.997
REMARK  Name = 
REMARK  6 active torsions:
REMARK  status: ('A' for Active; 'I' for Inactive)
REMARK    1  A    between atoms: C_1  and  C_2
REMARK    2  A    between atoms: C_4  and  C_5
REMARK    3  A    between atoms: C_10  and  N_11
REMARK    4  A    between atoms: N_11  and  C_12
REMARK    5  A    between atoms: C_12  and  C_13
REMARK    6  A    between atoms: C_17  and  C_18
REMARK                            x       y       z     vdW  Elec       q    Type
REMARK                         _______ _______ _______ _____ _____    ______ ____
ROOT
ATOM      1  N   UNL     1      45.948   7.721  13.060  0.00  0.00    +0.000 N 
ATOM      2  H   UNL     1      45.856   7.056  13.815  0.00  0.00    +0.000 HD
ENDROOT
BRANCH   1   9
ATOM      3  C   UNL     1      46.749  10.356  12.069  0.00  0.00    +0.000 C 
ATOM      4  C   UNL     1      47.669   9.168  12.142  0.00  0.00    +0.000 A 
ATOM      5  C   UNL     1      48.988   9.309  11.672  0.00  0.00    +0.000 A 
ATOM      6  C   UNL     1      49.868   8.226  11.698  0.00  0.00    +0.000 A 
ATOM      7  C   UNL     1      49.377   7.039  12.198  0.00  0.00    +0.000 A 
ATOM      8  N   UNL     1      48.112   6.873  12.661  0.00  0.00    +0.000 NA
ATOM      9  C   UNL     1      47.266   7.925  12.642  0.00  0.00    +0.000 A 
BRANCH   6  10
ATOM     10  C   UNL     1      51.250   8.406  11.193  0.00  0.00    +0.000 C 
ATOM     11  N   UNL     1      52.167   7.411  11.390  0.00  0.00    +0.000 N 
ATOM     12  O   UNL     1      51.581   9.431  10.607  0.00  0.00    +0.000 OA
ATOM     13  H   UNL     1      52.004   6.534  11.857  0.00  0.00    +0.000 HD
ATOM     14  H   UNL     1      53.098   7.582  11.032  0.00  0.00    +0.000 HD
ENDBRANCH   6  10
ENDBRANCH   1   9
BRANCH   1  15
ATOM     15  C   UNL     1      44.903   7.612  12.043  0.00  0.00    +0.000 C 
BRANCH  15  16
ATOM     16  C   UNL     1      44.554   6.206  11.606  0.00  0.00    +0.000 A 
ATOM     17  C   UNL     1      43.454   5.575  12.183  0.00  0.00    +0.000 A 
ATOM     18  N   UNL     1      43.001   4.350  11.838  0.00  0.00    +0.000 NA
ATOM     19  C   UNL     1      43.668   3.715  10.847  0.00  0.00    +0.000 A 
ATOM     20  C   UNL     1      44.765   4.233  10.156  0.00  0.00    +0.000 A 
ATOM     21  C   UNL     1      45.189   5.517  10.562  0.00  0.00    +0.000 A 
BRANCH  20  22
ATOM     22  C   UNL     1      45.441   3.479   9.076  0.00  0.00    +0.000 A 
ATOM     23  C   UNL     1      45.509   2.076   9.076  0.00  0.00    +0.000 A 
ATOM     24  C   UNL     1      46.179   1.422   8.051  0.00  0.00    +0.000 A 
ATOM     25  N   UNL     1      46.775   2.053   7.021  0.00  0.00    +0.000 NA
ATOM     26  C   UNL     1      46.700   3.399   7.020  0.00  0.00    +0.000 A 
ATOM     27  C   UNL     1      46.061   4.139   8.005  0.00  0.00    +0.000 A 
ENDBRANCH  20  22
ENDBRANCH  15  16
ENDBRANCH   1  15
TORSDOF 5
ENDMDL
MODEL 8
REMARK VINA RESULT:    -6.455      5.323      8.691
REMARK INTER + INTRA:          -9.339
REMARK INTER:                  -8.845
REMARK INTRA:                  -0.494
REMARK UNBOUND:                -0.997
REMARK  Name = 
REMARK  6 active torsions:
REMARK  status: ('A' for Active; 'I' for Inactive)
REMARK    1  A    between atoms: C_1  and  C_2
REMARK    2  A    between atoms: C_4  and  C_5
REMARK    3  A    between atoms: C_10  and  N_11
REMARK    4  A    between atoms: N_11  and  C_12
REMARK    5  A    between atoms: C_12  and  C_13
REMARK    6  A    between atoms: C_17  and  C_18
REMARK                            x       y       z     vdW  Elec       q    Type
REMARK                         _______ _______ _______ _____ _____    ______ ____
ROOT
ATOM      1  N   UNL     1      47.148   5.304  14.773  0.00  0.00    +0.000 N 
ATOM      2  H   UNL     1      48.044   5.740  14.606  0.00  0.00    +0.000 HD
ENDROOT
BRANCH   1   9
ATOM      3  C   UNL     1      46.610   7.301  12.701  0.00  0.00    +0.000 C 
ATOM      4  C   UNL     1      46.188   5.860  12.612  0.00  0.00    +0.000 A 
ATOM      5  C   UNL     1      45.455   5.442  11.486  0.00  0.00    +0.000 A 
ATOM      6  C   UNL     1      45.023   4.121  11.373  0.00  0.00    +0.000 A 
ATOM      7  C   UNL     1      45.347   3.271  12.409  0.00  0.00    +0.000 A 
ATOM      8  N   UNL     1      46.054   3.643  13.506  0.00  0.00    +0.000 NA
ATOM      9  C   UNL     1      46.479   4.920  13.608  0.00  0.00    +0.000 A 
BRANCH   6  10
ATOM     10  C   UNL     1      44.250   3.712  10.175  0.00  0.00    +0.000 C 
ATOM     11  N   UNL     1      43.954   4.646   9.223  0.00  0.00    +0.000 N 
ATOM     12  O   UNL     1      43.873   2.554  10.032  0.00  0.00    +0.000 OA
ATOM     13  H   UNL     1      44.213   5.619   9.239  0.00  0.00    +0.000 HD
ATOM     14  H   UNL     1      43.421   4.320   8.425  0.00  0.00    +0.000 HD
ENDBRANCH   6  10
ENDBRANCH   1   9
BRANCH   1  15
ATOM     15  C   UNL     1      47.136   4.392  15.916  0.00  0.00    +0.000 C 
BRANCH  15  16
ATOM     16  C   UNL     1      48.300   4.522  16.873  0.00  0.00    +0.000 A 
ATOM     17  C   UNL     1      48.260   5.513  17.852  0.00  0.00    +0.000 A 
ATOM     18  N   UNL     1      49.202   5.694  18.803  0.00  0.00    +0.000 NA
ATOM     19  C   UNL     1      50.243   4.829  18.796  0.00  0.00    +0.000 A 
ATOM     20  C   UNL     1      50.403   3.771  17.900  0.00  0.00    +0.000 A 
ATOM     21  C   UNL     1      49.385   3.633  16.932  0.00  0.00    +0.000 A 
BRANCH  20  22
ATOM     22  C   UNL     1      51.569   2.860  17.959  0.00  0.00    +0.000 A 
ATOM     23  C   UNL     1      51.528   1.563  17.422  0.00  0.00    +0.000 A 
ATOM     24  C   UNL     1      52.642   0.741  17.529  0.00  0.00    +0.000 A 
ATOM     25  N   UNL     1      53.795   1.112  18.118  0.00  0.00    +0.000 NA
ATOM     26  C   UNL     1      53.833   2.360  18.625  0.00  0.00    +0.000 A 
ATOM     27  C   UNL     1      52.767   3.249  18.573  0.00  0.00    +0.000 A 
ENDBRANCH  20  22
ENDBRANCH  15  16
ENDBRANCH   1  15
TORSDOF 5
ENDMDL
MODEL 9
REMARK VINA RESULT:    -6.450      4.146      6.351
REMARK INTER + INTRA:          -9.332
REMARK INTER:                  -8.473
REMARK INTRA:                  -0.858
REMARK UNBOUND:                -0.997
REMARK  Name = 
REMARK  6 active torsions:
REMARK  status: ('A' for Active; 'I' for Inactive)
REMARK    1  A    between atoms: C_1  and  C_2
REMARK    2  A    between atoms: C_4  and  C_5
REMARK    3  A    between atoms: C_10  and  N_11
REMARK    4  A    between atoms: N_11  and  C_12
REMARK    5  A    between atoms: C_12  and  C_13
REMARK    6  A    between atoms: C_17  and  C_18
REMARK                            x       y       z     vdW  Elec       q    Type
REMARK                         _______ _______ _______ _____ _____    ______ ____
ROOT
ATOM      1  N   UNL     1      48.290   6.211  16.536  0.00  0.00    +0.000 N 
ATOM      2  H   UNL     1      47.324   5.945  16.408  0.00  0.00    +0.000 HD
ENDROOT
BRANCH   1   9
ATOM      3  C   UNL     1      47.158   3.535  16.893  0.00  0.00    +0.000 C 
ATOM      4  C   UNL     1      48.622   3.854  17.022  0.00  0.00    +0.000 A 
ATOM      5  C   UNL     1      49.508   2.819  17.374  0.00  0.00    +0.000 A 
ATOM      6  C   UNL     1      50.871   3.075  17.528  0.00  0.00    +0.000 A 
ATOM      7  C   UNL     1      51.286   4.374  17.322  0.00  0.00    +0.000 A 
ATOM      8  N   UNL     1      50.457   5.393  16.980  0.00  0.00    +0.000 NA
ATOM      9  C   UNL     1      49.140   5.140  16.823  0.00  0.00    +0.000 A 
BRANCH   6  10
ATOM     10  C   UNL     1      51.778   1.964  17.901  0.00  0.00    +0.000 C 
ATOM     11  N   UNL     1      51.352   0.675  17.747  0.00  0.00    +0.000 N 
ATOM     12  O   UNL     1      52.899   2.186  18.347  0.00  0.00    +0.000 OA
ATOM     13  H   UNL     1      50.457   0.380  17.393  0.00  0.00    +0.000 HD
ATOM     14  H   UNL     1      52.005  -0.050  18.020  0.00  0.00    +0.000 HD
ENDBRANCH   6  10
ENDBRANCH   1   9
BRANCH   1  15
ATOM     15  C   UNL     1      48.751   7.235  15.600  0.00  0.00    +0.000 C 
BRANCH  15  16
ATOM     16  C   UNL     1      48.208   7.131  14.192  0.00  0.00    +0.000 A 
ATOM     17  C   UNL     1      48.818   7.868  13.179  0.00  0.00    +0.000 A 
ATOM     18  N   UNL     1      48.472   7.816  11.874  0.00  0.00    +0.000 NA
ATOM     19  C   UNL     1      47.467   6.970  11.547  0.00  0.00    +0.000 A 
ATOM     20  C   UNL     1      46.784   6.148  12.446  0.00  0.00    +0.000 A 
ATOM     21  C   UNL     1      47.195   6.246  13.793  0.00  0.00    +0.000 A 
BRANCH  20  22
ATOM     22  C   UNL     1      45.698   5.241  12.012  0.00  0.00    +0.000 A 
ATOM     23  C   UNL     1      44.953   5.477  10.845  0.00  0.00    +0.000 A 
ATOM     24  C   UNL     1      43.927   4.607  10.500  0.00  0.00    +0.000 A 
ATOM     25  N   UNL     1      43.593   3.517  11.217  0.00  0.00    +0.000 NA
ATOM     26  C   UNL     1      44.317   3.290  12.331  0.00  0.00    +0.000 A 
ATOM     27  C   UNL     1      45.353   4.107  12.761  0.00  0.00    +0.000 A 
ENDBRANCH  20  22
ENDBRANCH  15  16
ENDBRANCH   1  15
TORSDOF 5
ENDMDL
