MODEL 1
REMARK VINA RESULT:    -8.316      0.000      0.000
REMARK INTER + INTRA:         -12.313
REMARK INTER:                 -11.232
REMARK INTRA:                  -1.080
REMARK UNBOUND:                -1.080
REMARK  Name = 
REMARK  7 active torsions:
REMARK  status: ('A' for Active; 'I' for Inactive)
REMARK    1  A    between atoms: C_1  and  C_2
REMARK    2  A    between atoms: C_2  and  N_3
REMARK    3  A    between atoms: C_2  and  C_16
REMARK    4  A    between atoms: C_4  and  C_6
REMARK    5  A    between atoms: C_19  and  C_20
REMARK    6  A    between atoms: C_20  and  C_21
REMARK    7  A    between atoms: C_21  and  C_22
REMARK                            x       y       z     vdW  Elec       q    Type
REMARK                         _______ _______ _______ _____ _____    ______ ____
ROOT
ATOM      1  C   UNL     1      46.091   8.864  13.150  0.00  0.00    +0.000 C 
ATOM      2  C   UNL     1      47.014   7.644  13.062  0.00  0.00    +0.000 C 
ENDROOT
BRANCH   2   3
ATOM      3  C   UNL     1      46.342   6.535  12.264  0.00  0.00    +0.000 A 
ATOM      4  C   UNL     1      45.611   5.537  12.913  0.00  0.00    +0.000 A 
ATOM      5  C   UNL     1      44.936   4.556  12.177  0.00  0.00    +0.000 A 
ATOM      6  C   UNL     1      44.953   4.562  10.775  0.00  0.00    +0.000 A 
ATOM      7  C   UNL     1      45.716   5.542  10.127  0.00  0.00    +0.000 A 
ATOM      8  C   UNL     1      46.398   6.517  10.860  0.00  0.00    +0.000 A 
BRANCH   6   9
ATOM      9  C   UNL     1      44.215   3.532   9.943  0.00  0.00    +0.000 C 
BRANCH   9  10
ATOM     10  C   UNL     1      44.438   3.659   8.431  0.00  0.00    +0.000 C 
BRANCH  10  11
ATOM     11  C   UNL     1      45.591   2.827   7.942  0.00  0.00    +0.000 A 
ATOM     12  C   UNL     1      45.778   1.524   8.397  0.00  0.00    +0.000 A 
ATOM     13  N   UNL     1      46.775   0.725   7.950  0.00  0.00    +0.000 NA
ATOM     14  C   UNL     1      47.585   1.280   7.023  0.00  0.00    +0.000 A 
ATOM     15  C   UNL     1      47.415   2.578   6.573  0.00  0.00    +0.000 A 
ATOM     16  N   UNL     1      46.423   3.379   7.023  0.00  0.00    +0.000 NA
ENDBRANCH  10  11
ENDBRANCH   9  10
ENDBRANCH   6   9
ENDBRANCH   2   3
BRANCH   2  17
ATOM     17  N   UNL     1      47.377   7.110  14.364  0.00  0.00    +0.000 N 
ATOM     18  C   UNL     1      48.653   6.775  14.732  0.00  0.00    +0.000 C 
ATOM     19  O   UNL     1      49.627   6.946  14.008  0.00  0.00    +0.000 OA
ATOM     20  H   UNL     1      46.619   6.652  14.859  0.00  0.00    +0.000 HD
BRANCH  18  21
ATOM     21  C   UNL     1      48.798   6.270  16.103  0.00  0.00    +0.000 A 
ATOM     22  C   UNL     1      49.450   7.037  17.057  0.00  0.00    +0.000 A 
ATOM     23  S   UNL     1      49.470   6.323  18.607  0.00  0.00    +0.000 S 
ATOM     24  C   UNL     1      48.650   4.942  18.043  0.00  0.00    +0.000 A 
ATOM     25  N   UNL     1      48.360   3.907  18.877  0.00  0.00    +0.000 NA
ATOM     26  C   UNL     1      47.761   2.915  18.309  0.00  0.00    +0.000 A 
ATOM     27  N   UNL     1      47.421   2.863  16.982  0.00  0.00    +0.000 N 
ATOM     28  C   UNL     1      47.671   3.894  16.108  0.00  0.00    +0.000 A 
ATOM     29  O   UNL     1      47.318   3.839  14.935  0.00  0.00    +0.000 OA
ATOM     30  C   UNL     1      48.352   5.032  16.696  0.00  0.00    +0.000 A 
ATOM     31  H   UNL     1      46.944   2.060  16.599  0.00  0.00    +0.000 HD
ENDBRANCH  18  21
ENDBRANCH   2  17
TORSDOF 6
ENDMDL
MODEL 2
REMARK VINA RESULT:    -7.984      1.898      2.467
REMARK INTER + INTRA:         -11.864
REMARK INTER:                 -10.685
REMARK INTRA:                  -1.179
REMARK UNBOUND:                -1.080
REMARK  Name = 
REMARK  7 active torsions:
REMARK  status: ('A' for Active; 'I' for Inactive)
REMARK    1  A    between atoms: C_1  and  C_2
REMARK    2  A    between atoms: C_2  and  N_3
REMARK    3  A    between atoms: C_2  and  C_16
REMARK    4  A    between atoms: C_4  and  C_6
REMARK    5  A    between atoms: C_19  and  C_20
REMARK    6  A    between atoms: C_20  and  C_21
REMARK    7  A    between atoms: C_21  and  C_22
REMARK                            x       y       z     vdW  Elec       q    Type
REMARK                         _______ _______ _______ _____ _____    ______ ____
ROOT
ATOM      1  C   UNL     1      47.428   8.633  13.610  0.00  0.00    +0.000 C 
ATOM      2  C   UNL     1      47.878   7.176  13.759  0.00  0.00    +0.000 C 
ENDROOT
BRANCH   2   3
ATOM      3  C   UNL     1      46.967   6.260  12.954  0.00  0.00    +0.000 A 
ATOM      4  C   UNL     1      46.562   5.028  13.473  0.00  0.00    +0.000 A 
ATOM      5  C   UNL     1      45.670   4.215  12.764  0.00  0.00    +0.000 A 
ATOM      6  C   UNL     1      45.140   4.623  11.532  0.00  0.00    +0.000 A 
ATOM      7  C   UNL     1      45.576   5.842  10.996  0.00  0.00    +0.000 A 
ATOM      8  C   UNL     1      46.473   6.651  11.698  0.00  0.00    +0.000 A 
BRANCH   6   9
ATOM      9  C   UNL     1      44.153   3.782  10.746  0.00  0.00    +0.000 C 
BRANCH   9  10
ATOM     10  C   UNL     1      44.175   4.027   9.233  0.00  0.00    +0.000 C 
BRANCH  10  11
ATOM     11  C   UNL     1      45.260   3.255   8.536  0.00  0.00    +0.000 A 
ATOM     12  C   UNL     1      45.442   1.896   8.778  0.00  0.00    +0.000 A 
ATOM     13  N   UNL     1      46.376   1.153   8.140  0.00  0.00    +0.000 NA
ATOM     14  C   UNL     1      47.129   1.824   7.242  0.00  0.00    +0.000 A 
ATOM     15  C   UNL     1      46.965   3.176   7.002  0.00  0.00    +0.000 A 
ATOM     16  N   UNL     1      46.036   3.921   7.643  0.00  0.00    +0.000 NA
ENDBRANCH  10  11
ENDBRANCH   9  10
ENDBRANCH   6   9
ENDBRANCH   2   3
BRANCH   2  17
ATOM     17  N   UNL     1      47.877   6.720  15.139  0.00  0.00    +0.000 N 
ATOM     18  C   UNL     1      49.008   6.451  15.863  0.00  0.00    +0.000 C 
ATOM     19  O   UNL     1      50.141   6.624  15.428  0.00  0.00    +0.000 OA
ATOM     20  H   UNL     1      47.023   6.257  15.430  0.00  0.00    +0.000 HD
BRANCH  18  21
ATOM     21  C   UNL     1      48.778   6.018  17.247  0.00  0.00    +0.000 A 
ATOM     22  C   UNL     1      49.022   4.701  17.608  0.00  0.00    +0.000 A 
ATOM     23  S   UNL     1      48.761   4.390  19.266  0.00  0.00    +0.000 S 
ATOM     24  C   UNL     1      48.266   5.995  19.546  0.00  0.00    +0.000 A 
ATOM     25  N   UNL     1      47.877   6.405  20.784  0.00  0.00    +0.000 NA
ATOM     26  C   UNL     1      47.503   7.639  20.844  0.00  0.00    +0.000 A 
ATOM     27  N   UNL     1      47.485   8.504  19.781  0.00  0.00    +0.000 N 
ATOM     28  C   UNL     1      47.892   8.141  18.519  0.00  0.00    +0.000 A 
ATOM     29  O   UNL     1      47.906   8.947  17.595  0.00  0.00    +0.000 OA
ATOM     30  C   UNL     1      48.315   6.760  18.395  0.00  0.00    +0.000 A 
ATOM     31  H   UNL     1      47.189   9.462  19.895  0.00  0.00    +0.000 HD
ENDBRANCH  18  21
ENDBRANCH   2  17
TORSDOF 6
ENDMDL
MODEL 3
REMARK VINA RESULT:    -7.282      2.875      4.333
REMARK INTER + INTRA:         -10.917
REMARK INTER:                  -9.734
REMARK INTRA:                  -1.183
REMARK UNBOUND:                -1.080
REMARK  Name = 
REMARK  7 active torsions:
REMARK  status: ('A' for Active; 'I' for Inactive)
REMARK    1  A    between atoms: C_1  and  C_2
REMARK    2  A    between atoms: C_2  and  N_3
REMARK    3  A    between atoms: C_2  and  C_16
REMARK    4  A    between atoms: C_4  and  C_6
REMARK    5  A    between atoms: C_19  and  C_20
REMARK    6  A    between atoms: C_20  and  C_21
REMARK    7  A    between atoms: C_21  and  C_22
REMARK                            x       y       z     vdW  Elec       q    Type
REMARK                         _______ _______ _______ _____ _____    ______ ____
ROOT
ATOM      1  C   UNL     1      47.179   4.899  15.006  0.00  0.00    +0.000 C 
ATOM      2  C   UNL     1      46.772   5.878  13.900  0.00  0.00    +0.000 C 
ENDROOT
BRANCH   2   3
ATOM      3  C   UNL     1      46.163   5.121  12.728  0.00  0.00    +0.000 A 
ATOM      4  C   UNL     1      45.742   3.797  12.881  0.00  0.00    +0.000 A 
ATOM      5  C   UNL     1      45.119   3.122  11.825  0.00  0.00    +0.000 A 
ATOM      6  C   UNL     1      44.878   3.759  10.599  0.00  0.00    +0.000 A 
ATOM      7  C   UNL     1      45.335   5.073  10.436  0.00  0.00    +0.000 A 
ATOM      8  C   UNL     1      45.965   5.746  11.486  0.00  0.00    +0.000 A 
BRANCH   6   9
ATOM      9  C   UNL     1      44.185   3.069   9.440  0.00  0.00    +0.000 C 
BRANCH   9  10
ATOM     10  C   UNL     1      44.857   1.770   8.982  0.00  0.00    +0.000 C 
BRANCH  10  11
ATOM     11  C   UNL     1      45.915   2.000   7.939  0.00  0.00    +0.000 A 
ATOM     12  C   UNL     1      46.880   1.032   7.671  0.00  0.00    +0.000 A 
ATOM     13  N   UNL     1      47.822   1.178   6.710  0.00  0.00    +0.000 NA
ATOM     14  C   UNL     1      47.766   2.338   6.021  0.00  0.00    +0.000 A 
ATOM     15  C   UNL     1      46.819   3.312   6.288  0.00  0.00    +0.000 A 
ATOM     16  N   UNL     1      45.881   3.169   7.250  0.00  0.00    +0.000 NA
ENDBRANCH  10  11
ENDBRANCH   9  10
ENDBRANCH   6   9
ENDBRANCH   2   3
BRANCH   2  17
ATOM     17  N   UNL     1      47.886   6.666  13.401  0.00  0.00    +0.000 N 
ATOM     18  C   UNL     1      47.887   8.034  13.317  0.00  0.00    +0.000 C 
ATOM     19  O   UNL     1      46.958   8.731  13.708  0.00  0.00    +0.000 OA
ATOM     20  H   UNL     1      48.514   6.166  12.780  0.00  0.00    +0.000 HD
BRANCH  18  21
ATOM     21  C   UNL     1      49.126   8.629  12.799  0.00  0.00    +0.000 A 
ATOM     22  C   UNL     1      49.080   9.465  11.693  0.00  0.00    +0.000 A 
ATOM     23  S   UNL     1      50.601  10.116  11.269  0.00  0.00    +0.000 S 
ATOM     24  C   UNL     1      51.378   9.261  12.520  0.00  0.00    +0.000 A 
ATOM     25  N   UNL     1      52.722   9.356  12.707  0.00  0.00    +0.000 NA
ATOM     26  C   UNL     1      53.179   8.634  13.674  0.00  0.00    +0.000 A 
ATOM     27  N   UNL     1      52.415   7.826  14.475  0.00  0.00    +0.000 N 
ATOM     28  C   UNL     1      51.051   7.717  14.340  0.00  0.00    +0.000 A 
ATOM     29  O   UNL     1      50.386   7.019  15.097  0.00  0.00    +0.000 OA
ATOM     30  C   UNL     1      50.488   8.504  13.259  0.00  0.00    +0.000 A 
ATOM     31  H   UNL     1      52.832   7.291  15.223  0.00  0.00    +0.000 HD
ENDBRANCH  18  21
ENDBRANCH   2  17
TORSDOF 6
ENDMDL
MODEL 4
REMARK VINA RESULT:    -7.175      3.139      8.243
REMARK INTER + INTRA:         -10.772
REMARK INTER:                  -9.700
REMARK INTRA:                  -1.072
REMARK UNBOUND:                -1.080
REMARK  Name = 
REMARK  7 active torsions:
REMARK  status: ('A' for Active; 'I' for Inactive)
REMARK    1  A    between atoms: C_1  and  C_2
REMARK    2  A    between atoms: C_2  and  N_3
REMARK    3  A    between atoms: C_2  and  C_16
REMARK    4  A    between atoms: C_4  and  C_6
REMARK    5  A    between atoms: C_19  and  C_20
REMARK    6  A    between atoms: C_20  and  C_21
REMARK    7  A    between atoms: C_21  and  C_22
REMARK                            x       y       z     vdW  Elec       q    Type
REMARK                         _______ _______ _______ _____ _____    ______ ____
ROOT
ATOM      1  C   UNL     1      49.034   7.741  11.401  0.00  0.00    +0.000 C 
ATOM      2  C   UNL     1      48.022   7.465  12.518  0.00  0.00    +0.000 C 
ENDROOT
BRANCH   2   3
ATOM      3  C   UNL     1      48.748   7.194  13.828  0.00  0.00    +0.000 A 
ATOM      4  C   UNL     1      48.162   6.393  14.811  0.00  0.00    +0.000 A 
ATOM      5  C   UNL     1      48.856   6.087  15.988  0.00  0.00    +0.000 A 
ATOM      6  C   UNL     1      50.161   6.552  16.200  0.00  0.00    +0.000 A 
ATOM      7  C   UNL     1      50.733   7.386  15.230  0.00  0.00    +0.000 A 
ATOM      8  C   UNL     1      50.038   7.700  14.060  0.00  0.00    +0.000 A 
BRANCH   6   9
ATOM      9  C   UNL     1      50.955   6.223  17.450  0.00  0.00    +0.000 C 
BRANCH   9  10
ATOM     10  C   UNL     1      50.336   5.126  18.324  0.00  0.00    +0.000 C 
BRANCH  10  11
ATOM     11  C   UNL     1      50.898   3.763  18.028  0.00  0.00    +0.000 A 
ATOM     12  C   UNL     1      50.129   2.795  17.386  0.00  0.00    +0.000 A 
ATOM     13  N   UNL     1      50.608   1.572  17.060  0.00  0.00    +0.000 NA
ATOM     14  C   UNL     1      51.896   1.349  17.402  0.00  0.00    +0.000 A 
ATOM     15  C   UNL     1      52.665   2.299  18.050  0.00  0.00    +0.000 A 
ATOM     16  N   UNL     1      52.185   3.519  18.381  0.00  0.00    +0.000 NA
ENDBRANCH  10  11
ENDBRANCH   9  10
ENDBRANCH   6   9
ENDBRANCH   2   3
BRANCH   2  17
ATOM     17  N   UNL     1      47.158   6.331  12.234  0.00  0.00    +0.000 N 
ATOM     18  C   UNL     1      45.854   6.437  11.830  0.00  0.00    +0.000 C 
ATOM     19  O   UNL     1      45.302   7.510  11.616  0.00  0.00    +0.000 OA
ATOM     20  H   UNL     1      47.430   5.468  12.693  0.00  0.00    +0.000 HD
BRANCH  18  21
ATOM     21  C   UNL     1      45.169   5.161  11.582  0.00  0.00    +0.000 A 
ATOM     22  C   UNL     1      44.484   4.533  12.612  0.00  0.00    +0.000 A 
ATOM     23  S   UNL     1      43.698   3.097  12.129  0.00  0.00    +0.000 S 
ATOM     24  C   UNL     1      44.288   3.242  10.539  0.00  0.00    +0.000 A 
ATOM     25  N   UNL     1      43.997   2.308   9.593  0.00  0.00    +0.000 NA
ATOM     26  C   UNL     1      44.533   2.531   8.440  0.00  0.00    +0.000 A 
ATOM     27  N   UNL     1      45.332   3.605   8.143  0.00  0.00    +0.000 N 
ATOM     28  C   UNL     1      45.632   4.586   9.059  0.00  0.00    +0.000 A 
ATOM     29  O   UNL     1      46.314   5.558   8.755  0.00  0.00    +0.000 OA
ATOM     30  C   UNL     1      45.060   4.377  10.375  0.00  0.00    +0.000 A 
ATOM     31  H   UNL     1      45.714   3.728   7.218  0.00  0.00    +0.000 HD
ENDBRANCH  18  21
ENDBRANCH   2  17
TORSDOF 6
ENDMDL
MODEL 5
REMARK VINA RESULT:    -7.155      2.654      4.472
REMARK INTER + INTRA:         -10.745
REMARK INTER:                  -9.528
REMARK INTRA:                  -1.217
REMARK UNBOUND:                -1.080
REMARK  Name = 
REMARK  7 active torsions:
REMARK  status: ('A' for Active; 'I' for Inactive)
REMARK    1  A    between atoms: C_1  and  C_2
REMARK    2  A    between atoms: C_2  and  N_3
REMARK    3  A    between atoms: C_2  and  C_16
REMARK    4  A    between atoms: C_4  and  C_6
REMARK    5  A    between atoms: C_19  and  C_20
REMARK    6  A    between atoms: C_20  and  C_21
REMARK    7  A    between atoms: C_21  and  C_22
REMARK                            x       y       z     vdW  Elec       q    Type
REMARK                         _______ _______ _______ _____ _____    ______ ____
ROOT
ATOM      1  C   UNL     1      47.371   4.457  15.267  0.00  0.00    +0.000 C 
ATOM      2  C   UNL     1      47.076   5.654  14.357  0.00  0.00    +0.000 C 
ENDROOT
BRANCH   2   3
ATOM      3  C   UNL     1      46.400   5.184  13.076  0.00  0.00    +0.000 A 
ATOM      4  C   UNL     1      45.815   3.917  13.007  0.00  0.00    +0.000 A 
ATOM      5  C   UNL     1      45.134   3.509  11.854  0.00  0.00    +0.000 A 
ATOM      6  C   UNL     1      44.999   4.365  10.751  0.00  0.00    +0.000 A 
ATOM      7  C   UNL     1      45.618   5.620  10.809  0.00  0.00    +0.000 A 
ATOM      8  C   UNL     1      46.306   6.026  11.955  0.00  0.00    +0.000 A 
BRANCH   6   9
ATOM      9  C   UNL     1      44.249   3.970   9.494  0.00  0.00    +0.000 C 
BRANCH   9  10
ATOM     10  C   UNL     1      44.486   2.524   9.042  0.00  0.00    +0.000 C 
BRANCH  10  11
ATOM     11  C   UNL     1      45.719   2.378   8.193  0.00  0.00    +0.000 A 
ATOM     12  C   UNL     1      46.338   1.140   8.036  0.00  0.00    +0.000 A 
ATOM     13  N   UNL     1      47.421   0.954   7.246  0.00  0.00    +0.000 NA
ATOM     14  C   UNL     1      47.868   2.060   6.612  0.00  0.00    +0.000 A 
ATOM     15  C   UNL     1      47.267   3.296   6.771  0.00  0.00    +0.000 A 
ATOM     16  N   UNL     1      46.189   3.485   7.564  0.00  0.00    +0.000 NA
ENDBRANCH  10  11
ENDBRANCH   9  10
ENDBRANCH   6   9
ENDBRANCH   2   3
BRANCH   2  17
ATOM     17  N   UNL     1      48.269   6.400  13.994  0.00  0.00    +0.000 N 
ATOM     18  C   UNL     1      48.879   7.321  14.804  0.00  0.00    +0.000 C 
ATOM     19  O   UNL     1      48.503   7.565  15.944  0.00  0.00    +0.000 OA
ATOM     20  H   UNL     1      48.423   6.491  12.995  0.00  0.00    +0.000 HD
BRANCH  18  21
ATOM     21  C   UNL     1      50.085   7.946  14.245  0.00  0.00    +0.000 A 
ATOM     22  C   UNL     1      51.305   7.788  14.885  0.00  0.00    +0.000 A 
ATOM     23  S   UNL     1      52.605   8.528  14.064  0.00  0.00    +0.000 S 
ATOM     24  C   UNL     1      51.572   9.126  12.850  0.00  0.00    +0.000 A 
ATOM     25  N   UNL     1      52.053   9.881  11.826  0.00  0.00    +0.000 NA
ATOM     26  C   UNL     1      51.154  10.288  10.994  0.00  0.00    +0.000 A 
ATOM     27  N   UNL     1      49.815  10.007  11.090  0.00  0.00    +0.000 N 
ATOM     28  C   UNL     1      49.288   9.229  12.093  0.00  0.00    +0.000 A 
ATOM     29  O   UNL     1      48.092   8.959  12.132  0.00  0.00    +0.000 OA
ATOM     30  C   UNL     1      50.257   8.753  13.060  0.00  0.00    +0.000 A 
ATOM     31  H   UNL     1      49.162  10.349  10.401  0.00  0.00    +0.000 HD
ENDBRANCH  18  21
ENDBRANCH   2  17
TORSDOF 6
ENDMDL
MODEL 6
REMARK VINA RESULT:    -7.022      2.717      8.021
REMARK INTER + INTRA:         -10.565
REMARK INTER:                  -9.156
REMARK INTRA:                  -1.409
REMARK UNBOUND:                -1.080
REMARK  Name = 
REMARK  7 active torsions:
REMARK  status: ('A' for Active; 'I' for Inactive)
REMARK    1  A    between atoms: C_1  and  C_2
REMARK    2  A    between atoms: C_2  and  N_3
REMARK    3  A    between atoms: C_2  and  C_16
REMARK    4  A    between atoms: C_4  and  C_6
REMARK    5  A    between atoms: C_19  and  C_20
REMARK    6  A    between atoms: C_20  and  C_21
REMARK    7  A    between atoms: C_21  and  C_22
REMARK                            x       y       z     vdW  Elec       q    Type
REMARK                         _______ _______ _______ _____ _____    ______ ____
ROOT
ATOM      1  C   UNL     1      49.227   7.908  11.408  0.00  0.00    +0.000 C 
ATOM      2  C   UNL     1      48.021   7.883  12.354  0.00  0.00    +0.000 C 
ENDROOT
BRANCH   2   3
ATOM      3  C   UNL     1      48.490   7.883  13.802  0.00  0.00    +0.000 A 
ATOM      4  C   UNL     1      47.844   8.672  14.757  0.00  0.00    +0.000 A 
ATOM      5  C   UNL     1      48.230   8.622  16.101  0.00  0.00    +0.000 A 
ATOM      6  C   UNL     1      49.252   7.763  16.530  0.00  0.00    +0.000 A 
ATOM      7  C   UNL     1      49.924   7.001  15.565  0.00  0.00    +0.000 A 
ATOM      8  C   UNL     1      49.547   7.056  14.221  0.00  0.00    +0.000 A 
BRANCH   6   9
ATOM      9  C   UNL     1      49.683   7.662  17.980  0.00  0.00    +0.000 C 
BRANCH   9  10
ATOM     10  C   UNL     1      48.720   6.873  18.875  0.00  0.00    +0.000 C 
BRANCH  10  11
ATOM     11  C   UNL     1      48.468   5.480  18.370  0.00  0.00    +0.000 A 
ATOM     12  C   UNL     1      47.192   5.075  17.987  0.00  0.00    +0.000 A 
ATOM     13  N   UNL     1      46.929   3.847  17.484  0.00  0.00    +0.000 NA
ATOM     14  C   UNL     1      47.998   3.028  17.377  0.00  0.00    +0.000 A 
ATOM     15  C   UNL     1      49.268   3.416  17.764  0.00  0.00    +0.000 A 
ATOM     16  N   UNL     1      49.531   4.641  18.272  0.00  0.00    +0.000 NA
ENDBRANCH  10  11
ENDBRANCH   9  10
ENDBRANCH   6   9
ENDBRANCH   2   3
BRANCH   2  17
ATOM     17  N   UNL     1      47.166   6.725  12.153  0.00  0.00    +0.000 N 
ATOM     18  C   UNL     1      45.797   6.769  12.150  0.00  0.00    +0.000 C 
ATOM     19  O   UNL     1      45.158   7.808  12.264  0.00  0.00    +0.000 OA
ATOM     20  H   UNL     1      47.599   5.836  12.380  0.00  0.00    +0.000 HD
BRANCH  18  21
ATOM     21  C   UNL     1      45.130   5.483  11.911  0.00  0.00    +0.000 A 
ATOM     22  C   UNL     1      44.447   4.857  12.943  0.00  0.00    +0.000 A 
ATOM     23  S   UNL     1      43.681   3.406  12.471  0.00  0.00    +0.000 S 
ATOM     24  C   UNL     1      44.278   3.542  10.883  0.00  0.00    +0.000 A 
ATOM     25  N   UNL     1      44.004   2.595   9.945  0.00  0.00    +0.000 NA
ATOM     26  C   UNL     1      44.543   2.813   8.793  0.00  0.00    +0.000 A 
ATOM     27  N   UNL     1      45.330   3.894   8.489  0.00  0.00    +0.000 N 
ATOM     28  C   UNL     1      45.613   4.887   9.396  0.00  0.00    +0.000 A 
ATOM     29  O   UNL     1      46.285   5.865   9.086  0.00  0.00    +0.000 OA
ATOM     30  C   UNL     1      45.037   4.685  10.711  0.00  0.00    +0.000 A 
ATOM     31  H   UNL     1      45.716   4.012   7.564  0.00  0.00    +0.000 HD
ENDBRANCH  18  21
ENDBRANCH   2  17
TORSDOF 6
ENDMDL
MODEL 7
REMARK VINA RESULT:    -6.930      3.278      7.723
REMARK INTER + INTRA:         -10.441
REMARK INTER:                  -9.396
REMARK INTRA:                  -1.045
REMARK UNBOUND:                -1.080
REMARK  Name = 
REMARK  7 active torsions:
REMARK  status: ('A' for Active; 'I' for Inactive)
REMARK    1  A    between atoms: C_1  and  C_2
REMARK    2  A    between atoms: C_2  and  N_3
REMARK    3  A    between atoms: C_2  and  C_16
REMARK    4  A    between atoms: C_4  and  C_6
REMARK    5  A    between atoms: C_19  and  C_20
REMARK    6  A    between atoms: C_20  and  C_21
REMARK    7  A    between atoms: C_21  and  C_22
REMARK                            x       y       z     vdW  Elec       q    Type
REMARK                         _______ _______ _______ _____ _____    ______ ____
ROOT
ATOM      1  C   UNL     1      49.460   8.231  11.639  0.00  0.00    +0.000 C 
ATOM      2  C   UNL     1      48.141   7.918  12.353  0.00  0.00    +0.000 C 
ENDROOT
BRANCH   2   3
ATOM      3  C   UNL     1      48.407   7.530  13.800  0.00  0.00    +0.000 A 
ATOM      4  C   UNL     1      47.945   6.311  14.304  0.00  0.00    +0.000 A 
ATOM      5  C   UNL     1      48.248   5.922  15.614  0.00  0.00    +0.000 A 
ATOM      6  C   UNL     1      49.041   6.727  16.445  0.00  0.00    +0.000 A 
ATOM      7  C   UNL     1      49.471   7.965  15.950  0.00  0.00    +0.000 A 
ATOM      8  C   UNL     1      49.163   8.360  14.646  0.00  0.00    +0.000 A 
BRANCH   6   9
ATOM      9  C   UNL     1      49.410   6.329  17.861  0.00  0.00    +0.000 C 
BRANCH   9  10
ATOM     10  C   UNL     1      48.825   4.988  18.317  0.00  0.00    +0.000 C 
BRANCH  10  11
ATOM     11  C   UNL     1      49.665   3.815  17.895  0.00  0.00    +0.000 A 
ATOM     12  C   UNL     1      49.119   2.772  17.151  0.00  0.00    +0.000 A 
ATOM     13  N   UNL     1      49.849   1.720  16.712  0.00  0.00    +0.000 NA
ATOM     14  C   UNL     1      51.157   1.748  17.046  0.00  0.00    +0.000 A 
ATOM     15  C   UNL     1      51.708   2.773  17.795  0.00  0.00    +0.000 A 
ATOM     16  N   UNL     1      50.978   3.822  18.239  0.00  0.00    +0.000 NA
ENDBRANCH  10  11
ENDBRANCH   9  10
ENDBRANCH   6   9
ENDBRANCH   2   3
BRANCH   2  17
ATOM     17  N   UNL     1      47.396   6.840  11.723  0.00  0.00    +0.000 N 
ATOM     18  C   UNL     1      46.063   6.902  11.414  0.00  0.00    +0.000 C 
ATOM     19  O   UNL     1      45.378   7.903  11.592  0.00  0.00    +0.000 OA
ATOM     20  H   UNL     1      47.796   5.917  11.854  0.00  0.00    +0.000 HD
BRANCH  18  21
ATOM     21  C   UNL     1      45.514   5.705  10.765  0.00  0.00    +0.000 A 
ATOM     22  C   UNL     1      45.709   5.505   9.406  0.00  0.00    +0.000 A 
ATOM     23  S   UNL     1      45.058   4.034   8.834  0.00  0.00    +0.000 S 
ATOM     24  C   UNL     1      44.451   3.639  10.374  0.00  0.00    +0.000 A 
ATOM     25  N   UNL     1      43.754   2.490  10.583  0.00  0.00    +0.000 NA
ATOM     26  C   UNL     1      43.331   2.332  11.792  0.00  0.00    +0.000 A 
ATOM     27  N   UNL     1      43.545   3.218  12.816  0.00  0.00    +0.000 N 
ATOM     28  C   UNL     1      44.264   4.378  12.660  0.00  0.00    +0.000 A 
ATOM     29  O   UNL     1      44.476   5.133  13.603  0.00  0.00    +0.000 OA
ATOM     30  C   UNL     1      44.755   4.607  11.314  0.00  0.00    +0.000 A 
ATOM     31  H   UNL     1      43.194   3.033  13.745  0.00  0.00    +0.000 HD
ENDBRANCH  18  21
ENDBRANCH   2  17
TORSDOF 6
ENDMDL
MODEL 8
REMARK VINA RESULT:    -6.529      2.083      2.986
REMARK INTER + INTRA:          -9.899
REMARK INTER:                  -8.762
REMARK INTRA:                  -1.137
REMARK UNBOUND:                -1.080
REMARK  Name = 
REMARK  7 active torsions:
REMARK  status: ('A' for Active; 'I' for Inactive)
REMARK    1  A    between atoms: C_1  and  C_2
REMARK    2  A    between atoms: C_2  and  N_3
REMARK    3  A    between atoms: C_2  and  C_16
REMARK    4  A    between atoms: C_4  and  C_6
REMARK    5  A    between atoms: C_19  and  C_20
REMARK    6  A    between atoms: C_20  and  C_21
REMARK    7  A    between atoms: C_21  and  C_22
REMARK                            x       y       z     vdW  Elec       q    Type
REMARK                         _______ _______ _______ _____ _____    ______ ____
ROOT
ATOM      1  C   UNL     1      49.357   8.966  13.200  0.00  0.00    +0.000 C 
ATOM      2  C   UNL     1      49.071   7.661  13.952  0.00  0.00    +0.000 C 
ENDROOT
BRANCH   2   3
ATOM      3  C   UNL     1      47.754   7.062  13.480  0.00  0.00    +0.000 A 
ATOM      4  C   UNL     1      47.585   5.676  13.421  0.00  0.00    +0.000 A 
ATOM      5  C   UNL     1      46.353   5.124  13.054  0.00  0.00    +0.000 A 
ATOM      6  C   UNL     1      45.251   5.940  12.760  0.00  0.00    +0.000 A 
ATOM      7  C   UNL     1      45.433   7.329  12.783  0.00  0.00    +0.000 A 
ATOM      8  C   UNL     1      46.664   7.883  13.141  0.00  0.00    +0.000 A 
BRANCH   6   9
ATOM      9  C   UNL     1      43.895   5.379  12.381  0.00  0.00    +0.000 C 
BRANCH   9  10
ATOM     10  C   UNL     1      43.561   5.477  10.888  0.00  0.00    +0.000 C 
BRANCH  10  11
ATOM     11  C   UNL     1      44.163   4.358  10.085  0.00  0.00    +0.000 A 
ATOM     12  C   UNL     1      45.076   4.617   9.066  0.00  0.00    +0.000 A 
ATOM     13  N   UNL     1      45.675   3.639   8.348  0.00  0.00    +0.000 NA
ATOM     14  C   UNL     1      45.326   2.379   8.689  0.00  0.00    +0.000 A 
ATOM     15  C   UNL     1      44.411   2.111   9.692  0.00  0.00    +0.000 A 
ATOM     16  N   UNL     1      43.808   3.088  10.406  0.00  0.00    +0.000 NA
ENDBRANCH  10  11
ENDBRANCH   9  10
ENDBRANCH   6   9
ENDBRANCH   2   3
BRANCH   2  17
ATOM     17  N   UNL     1      48.999   7.840  15.392  0.00  0.00    +0.000 N 
ATOM     18  C   UNL     1      49.593   7.007  16.303  0.00  0.00    +0.000 C 
ATOM     19  O   UNL     1      50.293   6.053  15.984  0.00  0.00    +0.000 OA
ATOM     20  H   UNL     1      48.201   8.379  15.712  0.00  0.00    +0.000 HD
BRANCH  18  21
ATOM     21  C   UNL     1      49.407   7.383  17.711  0.00  0.00    +0.000 A 
ATOM     22  C   UNL     1      50.112   8.456  18.237  0.00  0.00    +0.000 A 
ATOM     23  S   UNL     1      49.726   8.789  19.866  0.00  0.00    +0.000 S 
ATOM     24  C   UNL     1      48.641   7.480  19.936  0.00  0.00    +0.000 A 
ATOM     25  N   UNL     1      47.967   7.184  21.081  0.00  0.00    +0.000 NA
ATOM     26  C   UNL     1      47.200   6.150  20.997  0.00  0.00    +0.000 A 
ATOM     27  N   UNL     1      47.040   5.384  19.871  0.00  0.00    +0.000 N 
ATOM     28  C   UNL     1      47.679   5.659  18.686  0.00  0.00    +0.000 A 
ATOM     29  O   UNL     1      47.485   4.982  17.682  0.00  0.00    +0.000 OA
ATOM     30  C   UNL     1      48.562   6.809  18.730  0.00  0.00    +0.000 A 
ATOM     31  H   UNL     1      46.416   4.591  19.867  0.00  0.00    +0.000 HD
ENDBRANCH  18  21
ENDBRANCH   2  17
TORSDOF 6
ENDMDL
MODEL 9
REMARK VINA RESULT:    -6.460      3.232      7.820
REMARK INTER + INTRA:          -9.806
REMARK INTER:                  -8.620
REMARK INTRA:                  -1.186
REMARK UNBOUND:                -1.080
REMARK  Name = 
REMARK  7 active torsions:
REMARK  status: ('A' for Active; 'I' for Inactive)
REMARK    1  A    between atoms: C_1  and  C_2
REMARK    2  A    between atoms: C_2  and  N_3
REMARK    3  A    between atoms: C_2  and  C_16
REMARK    4  A    between atoms: C_4  and  C_6
REMARK    5  A    between atoms: C_19  and  C_20
REMARK    6  A    between atoms: C_20  and  C_21
REMARK    7  A    between atoms: C_21  and  C_22
REMARK                            x       y       z     vdW  Elec       q    Type
REMARK                         _______ _______ _______ _____ _____    ______ ____
ROOT
ATOM      1  C   UNL     1      48.202   9.502  11.893  0.00  0.00    +0.000 C 
ATOM      2  C   UNL     1      47.251   8.656  12.746  0.00  0.00    +0.000 C 
ENDROOT
BRANCH   2   3
ATOM      3  C   UNL     1      47.943   8.226  14.032  0.00  0.00    +0.000 A 
ATOM      4  C   UNL     1      48.664   7.030  14.083  0.00  0.00    +0.000 A 
ATOM      5  C   UNL     1      49.357   6.666  15.244  0.00  0.00    +0.000 A 
ATOM      6  C   UNL     1      49.369   7.499  16.372  0.00  0.00    +0.000 A 
ATOM      7  C   UNL     1      48.616   8.679  16.331  0.00  0.00    +0.000 A 
ATOM      8  C   UNL     1      47.915   9.040  15.177  0.00  0.00    +0.000 A 
BRANCH   6   9
ATOM      9  C   UNL     1      50.128   7.151  17.638  0.00  0.00    +0.000 C 
BRANCH   9  10
ATOM     10  C   UNL     1      49.296   6.416  18.695  0.00  0.00    +0.000 C 
BRANCH  10  11
ATOM     11  C   UNL     1      48.752   5.106  18.197  0.00  0.00    +0.000 A 
ATOM     12  C   UNL     1      47.384   4.920  18.015  0.00  0.00    +0.000 A 
ATOM     13  N   UNL     1      46.855   3.774  17.526  0.00  0.00    +0.000 NA
ATOM     14  C   UNL     1      47.752   2.811  17.223  0.00  0.00    +0.000 A 
ATOM     15  C   UNL     1      49.112   2.980  17.411  0.00  0.00    +0.000 A 
ATOM     16  N   UNL     1      49.641   4.123  17.904  0.00  0.00    +0.000 NA
ENDBRANCH  10  11
ENDBRANCH   9  10
ENDBRANCH   6   9
ENDBRANCH   2   3
BRANCH   2  17
ATOM     17  N   UNL     1      46.782   7.463  12.062  0.00  0.00    +0.000 N 
ATOM     18  C   UNL     1      45.544   7.340  11.487  0.00  0.00    +0.000 C 
ATOM     19  O   UNL     1      44.727   8.253  11.450  0.00  0.00    +0.000 OA
ATOM     20  H   UNL     1      47.249   6.606  12.338  0.00  0.00    +0.000 HD
BRANCH  18  21
ATOM     21  C   UNL     1      45.283   6.052  10.832  0.00  0.00    +0.000 A 
ATOM     22  C   UNL     1      45.768   5.817   9.554  0.00  0.00    +0.000 A 
ATOM     23  S   UNL     1      45.425   4.248   8.974  0.00  0.00    +0.000 S 
ATOM     24  C   UNL     1      44.575   3.849  10.393  0.00  0.00    +0.000 A 
ATOM     25  N   UNL     1      43.992   2.629  10.544  0.00  0.00    +0.000 NA
ATOM     26  C   UNL     1      43.358   2.473  11.657  0.00  0.00    +0.000 A 
ATOM     27  N   UNL     1      43.255   3.426  12.638  0.00  0.00    +0.000 N 
ATOM     28  C   UNL     1      43.847   4.662  12.540  0.00  0.00    +0.000 A 
ATOM     29  O   UNL     1      43.775   5.480  13.451  0.00  0.00    +0.000 OA
ATOM     30  C   UNL     1      44.566   4.891  11.302  0.00  0.00    +0.000 A 
ATOM     31  H   UNL     1      42.751   3.239  13.493  0.00  0.00    +0.000 HD
ENDBRANCH  18  21
ENDBRANCH   2  17
TORSDOF 6
ENDMDL
