MODEL 1
REMARK VINA RESULT:    -7.455      0.000      0.000
REMARK INTER + INTRA:         -11.690
REMARK INTER:                 -10.506
REMARK INTRA:                  -1.185
REMARK UNBOUND:                -1.185
REMARK  Name = 
REMARK  7 active torsions:
REMARK  status: ('A' for Active; 'I' for Inactive)
REMARK    1  A    between atoms: C_2  and  C_20
REMARK    2  A    between atoms: N_3  and  C_4
REMARK    3  A    between atoms: C_4  and  C_5
REMARK    4  A    between atoms: C_9  and  C_10
REMARK    5  A    between atoms: C_10  and  C_11
REMARK    6  A    between atoms: C_11  and  C_12
REMARK    7  A    between atoms: C_12  and  N_13
REMARK                            x       y       z     vdW  Elec       q    Type
REMARK                         _______ _______ _______ _____ _____    ______ ____
ROOT
ATOM      1  C   UNL     1      46.636   8.032  12.788  0.00  0.00    +0.000 C 
ENDROOT
BRANCH   1   2
ATOM      2  C   UNL     1      45.382   7.336  12.321  0.00  0.00    +0.000 A 
ATOM      3  C   UNL     1      44.552   7.951  11.388  0.00  0.00    +0.000 A 
ATOM      4  C   UNL     1      43.366   7.324  11.042  0.00  0.00    +0.000 A 
ATOM      5  C   UNL     1      43.044   6.115  11.640  0.00  0.00    +0.000 A 
ATOM      6  C   UNL     1      43.960   5.502  12.490  0.00  0.00    +0.000 A 
ATOM      7  N   UNL     1      45.118   6.109  12.838  0.00  0.00    +0.000 NA
BRANCH   6   8
ATOM      8  C   UNL     1      43.694   4.148  13.097  0.00  0.00    +0.000 C 
BRANCH   8   9
ATOM      9  C   UNL     1      43.607   2.978  12.104  0.00  0.00    +0.000 C 
BRANCH   9  10
ATOM     10  C   UNL     1      44.614   3.046  10.950  0.00  0.00    +0.000 C 
BRANCH  10  11
ATOM     11  N   UNL     1      44.032   2.959   9.603  0.00  0.00    +0.000 NA
ATOM     12  C   UNL     1      44.552   1.756   8.906  0.00  0.00    +0.000 C 
ATOM     13  C   UNL     1      46.033   1.867   8.463  0.00  0.00    +0.000 C 
ATOM     14  N   UNL     1      46.336   3.093   7.701  0.00  0.00    +0.000 NA
ATOM     15  C   UNL     1      45.818   4.275   8.417  0.00  0.00    +0.000 C 
ATOM     16  C   UNL     1      44.325   4.135   8.767  0.00  0.00    +0.000 C 
ATOM     17  H   UNL     1      45.835   3.034   6.814  0.00  0.00    +0.000 HD
ENDBRANCH  10  11
ENDBRANCH   9  10
ENDBRANCH   8   9
ENDBRANCH   6   8
ENDBRANCH   1   2
BRANCH   1  20
ATOM     18  O   UNL     1      48.677   6.185  13.071  0.00  0.00    +0.000 OA
ATOM     19  C   UNL     1      48.171   6.653  14.086  0.00  0.00    +0.000 C 
ATOM     20  N   UNL     1      47.102   7.512  14.049  0.00  0.00    +0.000 N 
ATOM     21  H   UNL     1      46.931   8.114  14.848  0.00  0.00    +0.000 HD
BRANCH  19  22
ATOM     22  C   UNL     1      48.644   6.288  15.422  0.00  0.00    +0.000 A 
ATOM     23  C   UNL     1      49.574   7.075  16.082  0.00  0.00    +0.000 A 
ATOM     24  S   UNL     1      50.003   6.467  17.619  0.00  0.00    +0.000 S 
ATOM     25  C   UNL     1      48.935   5.157  17.463  0.00  0.00    +0.000 A 
ATOM     26  N   UNL     1      48.784   4.237  18.456  0.00  0.00    +0.000 NA
ATOM     27  C   UNL     1      47.911   3.317  18.208  0.00  0.00    +0.000 A 
ATOM     28  N   UNL     1      47.181   3.226  17.051  0.00  0.00    +0.000 N 
ATOM     29  C   UNL     1      47.333   4.103  16.007  0.00  0.00    +0.000 A 
ATOM     30  O   UNL     1      46.721   3.922  14.960  0.00  0.00    +0.000 OA
ATOM     31  C   UNL     1      48.272   5.167  16.239  0.00  0.00    +0.000 A 
ATOM     32  H   UNL     1      46.530   2.467  16.906  0.00  0.00    +0.000 HD
ENDBRANCH  19  22
ENDBRANCH   1  20
TORSDOF 7
ENDMDL
MODEL 2
REMARK VINA RESULT:    -7.392      2.243      3.153
REMARK INTER + INTRA:         -11.602
REMARK INTER:                 -10.592
REMARK INTRA:                  -1.010
REMARK UNBOUND:                -1.185
REMARK  Name = 
REMARK  7 active torsions:
REMARK  status: ('A' for Active; 'I' for Inactive)
REMARK    1  A    between atoms: C_2  and  C_20
REMARK    2  A    between atoms: N_3  and  C_4
REMARK    3  A    between atoms: C_4  and  C_5
REMARK    4  A    between atoms: C_9  and  C_10
REMARK    5  A    between atoms: C_10  and  C_11
REMARK    6  A    between atoms: C_11  and  C_12
REMARK    7  A    between atoms: C_12  and  N_13
REMARK                            x       y       z     vdW  Elec       q    Type
REMARK                         _______ _______ _______ _____ _____    ______ ____
ROOT
ATOM      1  C   UNL     1      46.612   4.426  15.101  0.00  0.00    +0.000 C 
ENDROOT
BRANCH   1   2
ATOM      2  C   UNL     1      46.633   5.178  13.794  0.00  0.00    +0.000 A 
ATOM      3  C   UNL     1      47.710   6.004  13.483  0.00  0.00    +0.000 A 
ATOM      4  C   UNL     1      47.660   6.746  12.314  0.00  0.00    +0.000 A 
ATOM      5  C   UNL     1      46.541   6.647  11.501  0.00  0.00    +0.000 A 
ATOM      6  C   UNL     1      45.541   5.729  11.814  0.00  0.00    +0.000 A 
ATOM      7  N   UNL     1      45.578   5.005  12.956  0.00  0.00    +0.000 NA
BRANCH   6   8
ATOM      8  C   UNL     1      44.347   5.523  10.918  0.00  0.00    +0.000 C 
BRANCH   8   9
ATOM      9  C   UNL     1      43.837   4.077  10.808  0.00  0.00    +0.000 C 
BRANCH   9  10
ATOM     10  C   UNL     1      44.805   3.111  10.115  0.00  0.00    +0.000 C 
BRANCH  10  11
ATOM     11  N   UNL     1      44.403   2.679   8.769  0.00  0.00    +0.000 NA
ATOM     12  C   UNL     1      45.029   1.371   8.451  0.00  0.00    +0.000 C 
ATOM     13  C   UNL     1      46.552   1.445   8.176  0.00  0.00    +0.000 C 
ATOM     14  N   UNL     1      46.929   2.468   7.182  0.00  0.00    +0.000 NA
ATOM     15  C   UNL     1      46.303   3.760   7.524  0.00  0.00    +0.000 C 
ATOM     16  C   UNL     1      44.780   3.635   7.715  0.00  0.00    +0.000 C 
ATOM     17  H   UNL     1      46.548   2.176   6.283  0.00  0.00    +0.000 HD
ENDBRANCH  10  11
ENDBRANCH   9  10
ENDBRANCH   8   9
ENDBRANCH   6   8
ENDBRANCH   1   2
BRANCH   1  20
ATOM     18  O   UNL     1      46.948   4.342  17.846  0.00  0.00    +0.000 OA
ATOM     19  C   UNL     1      47.949   4.356  17.138  0.00  0.00    +0.000 C 
ATOM     20  N   UNL     1      47.886   4.479  15.772  0.00  0.00    +0.000 N 
ATOM     21  H   UNL     1      48.674   4.164  15.217  0.00  0.00    +0.000 HD
BRANCH  19  22
ATOM     22  C   UNL     1      49.297   4.293  17.706  0.00  0.00    +0.000 A 
ATOM     23  C   UNL     1      49.772   5.315  18.512  0.00  0.00    +0.000 A 
ATOM     24  S   UNL     1      51.369   5.055  19.057  0.00  0.00    +0.000 S 
ATOM     25  C   UNL     1      51.459   3.558  18.264  0.00  0.00    +0.000 A 
ATOM     26  N   UNL     1      52.571   2.775  18.341  0.00  0.00    +0.000 NA
ATOM     27  C   UNL     1      52.479   1.649  17.713  0.00  0.00    +0.000 A 
ATOM     28  N   UNL     1      51.380   1.237  17.006  0.00  0.00    +0.000 N 
ATOM     29  C   UNL     1      50.256   2.011  16.865  0.00  0.00    +0.000 A 
ATOM     30  O   UNL     1      49.337   1.633  16.146  0.00  0.00    +0.000 OA
ATOM     31  C   UNL     1      50.291   3.265  17.567  0.00  0.00    +0.000 A 
ATOM     32  H   UNL     1      51.378   0.353  16.516  0.00  0.00    +0.000 HD
ENDBRANCH  19  22
ENDBRANCH   1  20
TORSDOF 7
ENDMDL
MODEL 3
REMARK VINA RESULT:    -7.015      2.915      7.969
REMARK INTER + INTRA:         -11.071
REMARK INTER:                  -9.696
REMARK INTRA:                  -1.375
REMARK UNBOUND:                -1.185
REMARK  Name = 
REMARK  7 active torsions:
REMARK  status: ('A' for Active; 'I' for Inactive)
REMARK    1  A    between atoms: C_2  and  C_20
REMARK    2  A    between atoms: N_3  and  C_4
REMARK    3  A    between atoms: C_4  and  C_5
REMARK    4  A    between atoms: C_9  and  C_10
REMARK    5  A    between atoms: C_10  and  C_11
REMARK    6  A    between atoms: C_11  and  C_12
REMARK    7  A    between atoms: C_12  and  N_13
REMARK                            x       y       z     vdW  Elec       q    Type
REMARK                         _______ _______ _______ _____ _____    ______ ____
ROOT
ATOM      1  C   UNL     1      47.302   3.607  16.753  0.00  0.00    +0.000 C 
ENDROOT
BRANCH   1   2
ATOM      2  C   UNL     1      48.789   3.499  16.979  0.00  0.00    +0.000 A 
ATOM      3  C   UNL     1      49.400   2.248  16.998  0.00  0.00    +0.000 A 
ATOM      4  C   UNL     1      50.753   2.177  17.291  0.00  0.00    +0.000 A 
ATOM      5  C   UNL     1      51.446   3.347  17.560  0.00  0.00    +0.000 A 
ATOM      6  C   UNL     1      50.803   4.575  17.427  0.00  0.00    +0.000 A 
ATOM      7  N   UNL     1      49.482   4.655  17.148  0.00  0.00    +0.000 NA
BRANCH   6   8
ATOM      8  C   UNL     1      51.535   5.878  17.625  0.00  0.00    +0.000 C 
BRANCH   8   9
ATOM      9  C   UNL     1      51.840   6.672  16.345  0.00  0.00    +0.000 C 
BRANCH   9  10
ATOM     10  C   UNL     1      51.055   7.981  16.205  0.00  0.00    +0.000 C 
BRANCH  10  11
ATOM     11  N   UNL     1      49.797   7.880  15.451  0.00  0.00    +0.000 NA
ATOM     12  C   UNL     1      49.772   8.900  14.373  0.00  0.00    +0.000 C 
ATOM     13  C   UNL     1      49.572  10.352  14.876  0.00  0.00    +0.000 C 
ATOM     14  N   UNL     1      48.422  10.514  15.786  0.00  0.00    +0.000 NA
ATOM     15  C   UNL     1      48.474   9.497  16.853  0.00  0.00    +0.000 C 
ATOM     16  C   UNL     1      48.601   8.069  16.289  0.00  0.00    +0.000 C 
ATOM     17  H   UNL     1      47.576  10.341  15.244  0.00  0.00    +0.000 HD
ENDBRANCH  10  11
ENDBRANCH   9  10
ENDBRANCH   8   9
ENDBRANCH   6   8
ENDBRANCH   1   2
BRANCH   1  20
ATOM     18  O   UNL     1      47.206   3.156  14.025  0.00  0.00    +0.000 OA
ATOM     19  C   UNL     1      46.886   4.264  14.443  0.00  0.00    +0.000 C 
ATOM     20  N   UNL     1      46.978   4.608  15.768  0.00  0.00    +0.000 N 
ATOM     21  H   UNL     1      46.416   5.379  16.112  0.00  0.00    +0.000 HD
BRANCH  19  22
ATOM     22  C   UNL     1      46.426   5.325  13.545  0.00  0.00    +0.000 A 
ATOM     23  C   UNL     1      47.258   6.382  13.215  0.00  0.00    +0.000 A 
ATOM     24  S   UNL     1      46.525   7.516  12.170  0.00  0.00    +0.000 S 
ATOM     25  C   UNL     1      45.091   6.612  12.098  0.00  0.00    +0.000 A 
ATOM     26  N   UNL     1      44.033   7.011  11.339  0.00  0.00    +0.000 NA
ATOM     27  C   UNL     1      43.024   6.203  11.358  0.00  0.00    +0.000 A 
ATOM     28  N   UNL     1      42.972   5.036  12.076  0.00  0.00    +0.000 N 
ATOM     29  C   UNL     1      43.995   4.618  12.888  0.00  0.00    +0.000 A 
ATOM     30  O   UNL     1      43.860   3.614  13.578  0.00  0.00    +0.000 OA
ATOM     31  C   UNL     1      45.158   5.465  12.884  0.00  0.00    +0.000 A 
ATOM     32  H   UNL     1      42.143   4.458  12.068  0.00  0.00    +0.000 HD
ENDBRANCH  19  22
ENDBRANCH   1  20
TORSDOF 7
ENDMDL
MODEL 4
REMARK VINA RESULT:    -6.970      2.901      4.772
REMARK INTER + INTRA:         -11.007
REMARK INTER:                 -10.138
REMARK INTRA:                  -0.868
REMARK UNBOUND:                -1.185
REMARK  Name = 
REMARK  7 active torsions:
REMARK  status: ('A' for Active; 'I' for Inactive)
REMARK    1  A    between atoms: C_2  and  C_20
REMARK    2  A    between atoms: N_3  and  C_4
REMARK    3  A    between atoms: C_4  and  C_5
REMARK    4  A    between atoms: C_9  and  C_10
REMARK    5  A    between atoms: C_10  and  C_11
REMARK    6  A    between atoms: C_11  and  C_12
REMARK    7  A    between atoms: C_12  and  N_13
REMARK                            x       y       z     vdW  Elec       q    Type
REMARK                         _______ _______ _______ _____ _____    ______ ____
ROOT
ATOM      1  C   UNL     1      48.690   6.578  16.094  0.00  0.00    +0.000 C 
ENDROOT
BRANCH   1   2
ATOM      2  C   UNL     1      48.989   6.990  14.675  0.00  0.00    +0.000 A 
ATOM      3  C   UNL     1      50.204   7.597  14.369  0.00  0.00    +0.000 A 
ATOM      4  C   UNL     1      50.415   8.039  13.073  0.00  0.00    +0.000 A 
ATOM      5  C   UNL     1      49.411   7.869  12.132  0.00  0.00    +0.000 A 
ATOM      6  C   UNL     1      48.259   7.166  12.473  0.00  0.00    +0.000 A 
ATOM      7  N   UNL     1      48.041   6.736  13.737  0.00  0.00    +0.000 NA
BRANCH   6   8
ATOM      8  C   UNL     1      47.177   6.881  11.463  0.00  0.00    +0.000 C 
BRANCH   8   9
ATOM      9  C   UNL     1      45.759   7.321  11.862  0.00  0.00    +0.000 C 
BRANCH   9  10
ATOM     10  C   UNL     1      44.671   6.273  11.602  0.00  0.00    +0.000 C 
BRANCH  10  11
ATOM     11  N   UNL     1      44.140   5.609  12.802  0.00  0.00    +0.000 NA
ATOM     12  C   UNL     1      45.188   4.750  13.408  0.00  0.00    +0.000 C 
ATOM     13  C   UNL     1      45.500   3.463  12.603  0.00  0.00    +0.000 C 
ATOM     14  N   UNL     1      44.303   2.673  12.257  0.00  0.00    +0.000 NA
ATOM     15  C   UNL     1      43.281   3.545  11.648  0.00  0.00    +0.000 C 
ATOM     16  C   UNL     1      42.962   4.769  12.527  0.00  0.00    +0.000 C 
ATOM     17  H   UNL     1      43.913   2.311  13.127  0.00  0.00    +0.000 HD
ENDBRANCH  10  11
ENDBRANCH   9  10
ENDBRANCH   8   9
ENDBRANCH   6   8
ENDBRANCH   1   2
BRANCH   1  20
ATOM     18  O   UNL     1      48.600   4.397  17.795  0.00  0.00    +0.000 OA
ATOM     19  C   UNL     1      49.697   4.867  17.508  0.00  0.00    +0.000 C 
ATOM     20  N   UNL     1      49.838   5.995  16.740  0.00  0.00    +0.000 N 
ATOM     21  H   UNL     1      50.721   6.154  16.265  0.00  0.00    +0.000 HD
BRANCH  19  22
ATOM     22  C   UNL     1      50.941   4.282  18.010  0.00  0.00    +0.000 A 
ATOM     23  C   UNL     1      51.800   5.024  18.805  0.00  0.00    +0.000 A 
ATOM     24  S   UNL     1      53.200   4.164  19.270  0.00  0.00    +0.000 S 
ATOM     25  C   UNL     1      52.685   2.768  18.455  0.00  0.00    +0.000 A 
ATOM     26  N   UNL     1      53.419   1.622  18.469  0.00  0.00    +0.000 NA
ATOM     27  C   UNL     1      52.883   0.633  17.832  0.00  0.00    +0.000 A 
ATOM     28  N   UNL     1      51.683   0.688  17.173  0.00  0.00    +0.000 N 
ATOM     29  C   UNL     1      50.931   1.832  17.096  0.00  0.00    +0.000 A 
ATOM     30  O   UNL     1      49.910   1.851  16.417  0.00  0.00    +0.000 OA
ATOM     31  C   UNL     1      51.466   2.960  17.811  0.00  0.00    +0.000 A 
ATOM     32  H   UNL     1      51.327  -0.115  16.673  0.00  0.00    +0.000 HD
ENDBRANCH  19  22
ENDBRANCH   1  20
TORSDOF 7
ENDMDL
MODEL 5
REMARK VINA RESULT:    -6.883      2.955      8.703
REMARK INTER + INTRA:         -10.884
REMARK INTER:                  -9.918
REMARK INTRA:                  -0.966
REMARK UNBOUND:                -1.185
REMARK  Name = 
REMARK  7 active torsions:
REMARK  status: ('A' for Active; 'I' for Inactive)
REMARK    1  A    between atoms: C_2  and  C_20
REMARK    2  A    between atoms: N_3  and  C_4
REMARK    3  A    between atoms: C_4  and  C_5
REMARK    4  A    between atoms: C_9  and  C_10
REMARK    5  A    between atoms: C_10  and  C_11
REMARK    6  A    between atoms: C_11  and  C_12
REMARK    7  A    between atoms: C_12  and  N_13
REMARK                            x       y       z     vdW  Elec       q    Type
REMARK                         _______ _______ _______ _____ _____    ______ ____
ROOT
ATOM      1  C   UNL     1      47.367   3.617  16.843  0.00  0.00    +0.000 C 
ENDROOT
BRANCH   1   2
ATOM      2  C   UNL     1      48.850   3.428  17.034  0.00  0.00    +0.000 A 
ATOM      3  C   UNL     1      49.392   2.146  17.047  0.00  0.00    +0.000 A 
ATOM      4  C   UNL     1      50.745   2.001  17.308  0.00  0.00    +0.000 A 
ATOM      5  C   UNL     1      51.508   3.133  17.555  0.00  0.00    +0.000 A 
ATOM      6  C   UNL     1      50.930   4.393  17.430  0.00  0.00    +0.000 A 
ATOM      7  N   UNL     1      49.609   4.544  17.181  0.00  0.00    +0.000 NA
BRANCH   6   8
ATOM      8  C   UNL     1      51.737   5.655  17.603  0.00  0.00    +0.000 C 
BRANCH   8   9
ATOM      9  C   UNL     1      51.459   6.452  18.888  0.00  0.00    +0.000 C 
BRANCH   9  10
ATOM     10  C   UNL     1      50.141   7.236  18.879  0.00  0.00    +0.000 C 
BRANCH  10  11
ATOM     11  N   UNL     1      49.480   7.367  20.185  0.00  0.00    +0.000 NA
ATOM     12  C   UNL     1      49.677   6.127  20.976  0.00  0.00    +0.000 C 
ATOM     13  C   UNL     1      48.855   4.914  20.472  0.00  0.00    +0.000 C 
ATOM     14  N   UNL     1      47.420   5.202  20.286  0.00  0.00    +0.000 NA
ATOM     15  C   UNL     1      47.251   6.432  19.490  0.00  0.00    +0.000 C 
ATOM     16  C   UNL     1      48.034   7.620  20.081  0.00  0.00    +0.000 C 
ATOM     17  H   UNL     1      47.022   5.381  21.208  0.00  0.00    +0.000 HD
ENDBRANCH  10  11
ENDBRANCH   9  10
ENDBRANCH   8   9
ENDBRANCH   6   8
ENDBRANCH   1   2
BRANCH   1  20
ATOM     18  O   UNL     1      47.232   3.151  14.119  0.00  0.00    +0.000 OA
ATOM     19  C   UNL     1      46.959   4.273  14.531  0.00  0.00    +0.000 C 
ATOM     20  N   UNL     1      47.075   4.622  15.853  0.00  0.00    +0.000 N 
ATOM     21  H   UNL     1      46.546   5.418  16.196  0.00  0.00    +0.000 HD
BRANCH  19  22
ATOM     22  C   UNL     1      46.534   5.345  13.629  0.00  0.00    +0.000 A 
ATOM     23  C   UNL     1      47.384   6.399  13.334  0.00  0.00    +0.000 A 
ATOM     24  S   UNL     1      46.691   7.547  12.276  0.00  0.00    +0.000 S 
ATOM     25  C   UNL     1      45.254   6.654  12.154  0.00  0.00    +0.000 A 
ATOM     26  N   UNL     1      44.222   7.067  11.366  0.00  0.00    +0.000 NA
ATOM     27  C   UNL     1      43.207   6.267  11.348  0.00  0.00    +0.000 A 
ATOM     28  N   UNL     1      43.125   5.095  12.053  0.00  0.00    +0.000 N 
ATOM     29  C   UNL     1      44.120   4.662  12.892  0.00  0.00    +0.000 A 
ATOM     30  O   UNL     1      43.956   3.653  13.569  0.00  0.00    +0.000 OA
ATOM     31  C   UNL     1      45.288   5.500  12.931  0.00  0.00    +0.000 A 
ATOM     32  H   UNL     1      42.292   4.523  12.015  0.00  0.00    +0.000 HD
ENDBRANCH  19  22
ENDBRANCH   1  20
TORSDOF 7
ENDMDL
MODEL 6
REMARK VINA RESULT:    -6.852      2.597      7.638
REMARK INTER + INTRA:         -10.840
REMARK INTER:                  -9.711
REMARK INTRA:                  -1.129
REMARK UNBOUND:                -1.185
REMARK  Name = 
REMARK  7 active torsions:
REMARK  status: ('A' for Active; 'I' for Inactive)
REMARK    1  A    between atoms: C_2  and  C_20
REMARK    2  A    between atoms: N_3  and  C_4
REMARK    3  A    between atoms: C_4  and  C_5
REMARK    4  A    between atoms: C_9  and  C_10
REMARK    5  A    between atoms: C_10  and  C_11
REMARK    6  A    between atoms: C_11  and  C_12
REMARK    7  A    between atoms: C_12  and  N_13
REMARK                            x       y       z     vdW  Elec       q    Type
REMARK                         _______ _______ _______ _____ _____    ______ ____
ROOT
ATOM      1  C   UNL     1      46.289   8.121  12.928  0.00  0.00    +0.000 C 
ENDROOT
BRANCH   1   2
ATOM      2  C   UNL     1      47.797   8.156  12.925  0.00  0.00    +0.000 A 
ATOM      3  C   UNL     1      48.483   8.511  11.767  0.00  0.00    +0.000 A 
ATOM      4  C   UNL     1      49.867   8.451  11.772  0.00  0.00    +0.000 A 
ATOM      5  C   UNL     1      50.518   8.035  12.923  0.00  0.00    +0.000 A 
ATOM      6  C   UNL     1      49.783   7.789  14.080  0.00  0.00    +0.000 A 
ATOM      7  N   UNL     1      48.432   7.838  14.083  0.00  0.00    +0.000 NA
BRANCH   6   8
ATOM      8  C   UNL     1      50.452   7.417  15.378  0.00  0.00    +0.000 C 
BRANCH   8   9
ATOM      9  C   UNL     1      49.648   7.720  16.653  0.00  0.00    +0.000 C 
BRANCH   9  10
ATOM     10  C   UNL     1      49.012   6.491  17.311  0.00  0.00    +0.000 C 
BRANCH  10  11
ATOM     11  N   UNL     1      49.238   5.217  16.612  0.00  0.00    +0.000 NA
ATOM     12  C   UNL     1      47.948   4.679  16.115  0.00  0.00    +0.000 C 
ATOM     13  C   UNL     1      47.021   4.122  17.224  0.00  0.00    +0.000 C 
ATOM     14  N   UNL     1      47.683   3.160  18.126  0.00  0.00    +0.000 NA
ATOM     15  C   UNL     1      48.957   3.721  18.615  0.00  0.00    +0.000 C 
ATOM     16  C   UNL     1      49.865   4.192  17.463  0.00  0.00    +0.000 C 
ATOM     17  H   UNL     1      47.908   2.331  17.577  0.00  0.00    +0.000 HD
ENDBRANCH  10  11
ENDBRANCH   9  10
ENDBRANCH   8   9
ENDBRANCH   6   8
ENDBRANCH   1   2
BRANCH   1  20
ATOM     18  O   UNL     1      44.303   7.512  11.100  0.00  0.00    +0.000 OA
ATOM     19  C   UNL     1      44.844   6.589  11.700  0.00  0.00    +0.000 C 
ATOM     20  N   UNL     1      45.781   6.796  12.682  0.00  0.00    +0.000 N 
ATOM     21  H   UNL     1      46.422   6.043  12.910  0.00  0.00    +0.000 HD
BRANCH  19  22
ATOM     22  C   UNL     1      44.492   5.192  11.446  0.00  0.00    +0.000 A 
ATOM     23  C   UNL     1      43.728   4.479  12.356  0.00  0.00    +0.000 A 
ATOM     24  S   UNL     1      43.443   2.864  11.878  0.00  0.00    +0.000 S 
ATOM     25  C   UNL     1      44.300   3.080  10.429  0.00  0.00    +0.000 A 
ATOM     26  N   UNL     1      44.425   2.076   9.517  0.00  0.00    +0.000 NA
ATOM     27  C   UNL     1      45.075   2.399   8.448  0.00  0.00    +0.000 A 
ATOM     28  N   UNL     1      45.622   3.633   8.211  0.00  0.00    +0.000 N 
ATOM     29  C   UNL     1      45.559   4.660   9.119  0.00  0.00    +0.000 A 
ATOM     30  O   UNL     1      46.143   5.714   8.894  0.00  0.00    +0.000 OA
ATOM     31  C   UNL     1      44.821   4.366  10.318  0.00  0.00    +0.000 A 
ATOM     32  H   UNL     1      46.141   3.818   7.364  0.00  0.00    +0.000 HD
ENDBRANCH  19  22
ENDBRANCH   1  20
TORSDOF 7
ENDMDL
MODEL 7
REMARK VINA RESULT:    -6.572      3.517      8.635
REMARK INTER + INTRA:         -10.446
REMARK INTER:                  -8.888
REMARK INTRA:                  -1.558
REMARK UNBOUND:                -1.185
REMARK  Name = 
REMARK  7 active torsions:
REMARK  status: ('A' for Active; 'I' for Inactive)
REMARK    1  A    between atoms: C_2  and  C_20
REMARK    2  A    between atoms: N_3  and  C_4
REMARK    3  A    between atoms: C_4  and  C_5
REMARK    4  A    between atoms: C_9  and  C_10
REMARK    5  A    between atoms: C_10  and  C_11
REMARK    6  A    between atoms: C_11  and  C_12
REMARK    7  A    between atoms: C_12  and  N_13
REMARK                            x       y       z     vdW  Elec       q    Type
REMARK                         _______ _______ _______ _____ _____    ______ ____
ROOT
ATOM      1  C   UNL     1      47.377   3.536  16.863  0.00  0.00    +0.000 C 
ENDROOT
BRANCH   1   2
ATOM      2  C   UNL     1      48.858   3.333  17.066  0.00  0.00    +0.000 A 
ATOM      3  C   UNL     1      49.410   2.062  16.940  0.00  0.00    +0.000 A 
ATOM      4  C   UNL     1      50.758   1.895  17.215  0.00  0.00    +0.000 A 
ATOM      5  C   UNL     1      51.505   2.993  17.611  0.00  0.00    +0.000 A 
ATOM      6  C   UNL     1      50.920   4.257  17.621  0.00  0.00    +0.000 A 
ATOM      7  N   UNL     1      49.604   4.429  17.361  0.00  0.00    +0.000 NA
BRANCH   6   8
ATOM      8  C   UNL     1      51.712   5.493  17.962  0.00  0.00    +0.000 C 
BRANCH   8   9
ATOM      9  C   UNL     1      51.314   6.202  19.266  0.00  0.00    +0.000 C 
BRANCH   9  10
ATOM     10  C   UNL     1      50.724   7.604  19.074  0.00  0.00    +0.000 C 
BRANCH  10  11
ATOM     11  N   UNL     1      49.718   8.003  20.069  0.00  0.00    +0.000 NA
ATOM     12  C   UNL     1      48.676   6.952  20.181  0.00  0.00    +0.000 C 
ATOM     13  C   UNL     1      47.718   6.873  18.966  0.00  0.00    +0.000 C 
ATOM     14  N   UNL     1      47.123   8.170  18.591  0.00  0.00    +0.000 NA
ATOM     15  C   UNL     1      48.178   9.196  18.476  0.00  0.00    +0.000 C 
ATOM     16  C   UNL     1      49.052   9.275  19.743  0.00  0.00    +0.000 C 
ATOM     17  H   UNL     1      46.506   8.455  19.352  0.00  0.00    +0.000 HD
ENDBRANCH  10  11
ENDBRANCH   9  10
ENDBRANCH   8   9
ENDBRANCH   6   8
ENDBRANCH   1   2
BRANCH   1  20
ATOM     18  O   UNL     1      47.208   3.166  14.125  0.00  0.00    +0.000 OA
ATOM     19  C   UNL     1      46.966   4.280  14.578  0.00  0.00    +0.000 C 
ATOM     20  N   UNL     1      47.103   4.581  15.910  0.00  0.00    +0.000 N 
ATOM     21  H   UNL     1      46.597   5.377  16.284  0.00  0.00    +0.000 HD
BRANCH  19  22
ATOM     22  C   UNL     1      46.561   5.392  13.716  0.00  0.00    +0.000 A 
ATOM     23  C   UNL     1      45.346   5.363  13.051  0.00  0.00    +0.000 A 
ATOM     24  S   UNL     1      45.071   6.746  12.088  0.00  0.00    +0.000 S 
ATOM     25  C   UNL     1      46.548   7.438  12.558  0.00  0.00    +0.000 A 
ATOM     26  N   UNL     1      46.936   8.664  12.109  0.00  0.00    +0.000 NA
ATOM     27  C   UNL     1      48.068   9.074  12.580  0.00  0.00    +0.000 A 
ATOM     28  N   UNL     1      48.854   8.365  13.450  0.00  0.00    +0.000 N 
ATOM     29  C   UNL     1      48.525   7.109  13.893  0.00  0.00    +0.000 A 
ATOM     30  O   UNL     1      49.307   6.482  14.599  0.00  0.00    +0.000 OA
ATOM     31  C   UNL     1      47.259   6.613  13.424  0.00  0.00    +0.000 A 
ATOM     32  H   UNL     1      49.743   8.730  13.764  0.00  0.00    +0.000 HD
ENDBRANCH  19  22
ENDBRANCH   1  20
TORSDOF 7
ENDMDL
MODEL 8
REMARK VINA RESULT:    -6.453      3.036      5.988
REMARK INTER + INTRA:         -10.278
REMARK INTER:                  -8.694
REMARK INTRA:                  -1.584
REMARK UNBOUND:                -1.185
REMARK  Name = 
REMARK  7 active torsions:
REMARK  status: ('A' for Active; 'I' for Inactive)
REMARK    1  A    between atoms: C_2  and  C_20
REMARK    2  A    between atoms: N_3  and  C_4
REMARK    3  A    between atoms: C_4  and  C_5
REMARK    4  A    between atoms: C_9  and  C_10
REMARK    5  A    between atoms: C_10  and  C_11
REMARK    6  A    between atoms: C_11  and  C_12
REMARK    7  A    between atoms: C_12  and  N_13
REMARK                            x       y       z     vdW  Elec       q    Type
REMARK                         _______ _______ _______ _____ _____    ______ ____
ROOT
ATOM      1  C   UNL     1      46.429   4.060  14.441  0.00  0.00    +0.000 C 
ENDROOT
BRANCH   1   2
ATOM      2  C   UNL     1      46.094   5.178  13.486  0.00  0.00    +0.000 A 
ATOM      3  C   UNL     1      44.832   5.241  12.904  0.00  0.00    +0.000 A 
ATOM      4  C   UNL     1      44.583   6.231  11.968  0.00  0.00    +0.000 A 
ATOM      5  C   UNL     1      45.597   7.117  11.639  0.00  0.00    +0.000 A 
ATOM      6  C   UNL     1      46.806   7.066  12.328  0.00  0.00    +0.000 A 
ATOM      7  N   UNL     1      47.061   6.099  13.239  0.00  0.00    +0.000 NA
BRANCH   6   8
ATOM      8  C   UNL     1      47.909   8.061  12.068  0.00  0.00    +0.000 C 
BRANCH   8   9
ATOM      9  C   UNL     1      49.332   7.482  12.023  0.00  0.00    +0.000 C 
BRANCH   9  10
ATOM     10  C   UNL     1      50.293   8.075  13.060  0.00  0.00    +0.000 C 
BRANCH  10  11
ATOM     11  N   UNL     1      49.688   8.407  14.358  0.00  0.00    +0.000 NA
ATOM     12  C   UNL     1      50.324   9.628  14.913  0.00  0.00    +0.000 C 
ATOM     13  C   UNL     1      51.769   9.413  15.429  0.00  0.00    +0.000 C 
ATOM     14  N   UNL     1      51.908   8.276  16.358  0.00  0.00    +0.000 NA
ATOM     15  C   UNL     1      51.277   7.073  15.781  0.00  0.00    +0.000 C 
ATOM     16  C   UNL     1      49.820   7.329  15.353  0.00  0.00    +0.000 C 
ATOM     17  H   UNL     1      51.393   8.509  17.207  0.00  0.00    +0.000 HD
ENDBRANCH  10  11
ENDBRANCH   9  10
ENDBRANCH   8   9
ENDBRANCH   6   8
ENDBRANCH   1   2
BRANCH   1  20
ATOM     18  O   UNL     1      46.554   3.286  17.095  0.00  0.00    +0.000 OA
ATOM     19  C   UNL     1      47.489   3.931  16.633  0.00  0.00    +0.000 C 
ATOM     20  N   UNL     1      47.482   4.428  15.353  0.00  0.00    +0.000 N 
ATOM     21  H   UNL     1      48.368   4.655  14.913  0.00  0.00    +0.000 HD
BRANCH  19  22
ATOM     22  C   UNL     1      48.669   4.262  17.433  0.00  0.00    +0.000 A 
ATOM     23  C   UNL     1      48.685   5.393  18.233  0.00  0.00    +0.000 A 
ATOM     24  S   UNL     1      50.157   5.605  19.071  0.00  0.00    +0.000 S 
ATOM     25  C   UNL     1      50.802   4.177  18.419  0.00  0.00    +0.000 A 
ATOM     26  N   UNL     1      52.049   3.741  18.750  0.00  0.00    +0.000 NA
ATOM     27  C   UNL     1      52.389   2.621  18.201  0.00  0.00    +0.000 A 
ATOM     28  N   UNL     1      51.600   1.902  17.342  0.00  0.00    +0.000 N 
ATOM     29  C   UNL     1      50.356   2.325  16.947  0.00  0.00    +0.000 A 
ATOM     30  O   UNL     1      49.730   1.688  16.107  0.00  0.00    +0.000 OA
ATOM     31  C   UNL     1      49.913   3.553  17.550  0.00  0.00    +0.000 A 
ATOM     32  H   UNL     1      51.933   1.043  16.926  0.00  0.00    +0.000 HD
ENDBRANCH  19  22
ENDBRANCH   1  20
TORSDOF 7
ENDMDL
MODEL 9
REMARK VINA RESULT:    -6.451      1.724      2.928
REMARK INTER + INTRA:         -10.275
REMARK INTER:                  -9.021
REMARK INTRA:                  -1.254
REMARK UNBOUND:                -1.185
REMARK  Name = 
REMARK  7 active torsions:
REMARK  status: ('A' for Active; 'I' for Inactive)
REMARK    1  A    between atoms: C_2  and  C_20
REMARK    2  A    between atoms: N_3  and  C_4
REMARK    3  A    between atoms: C_4  and  C_5
REMARK    4  A    between atoms: C_9  and  C_10
REMARK    5  A    between atoms: C_10  and  C_11
REMARK    6  A    between atoms: C_11  and  C_12
REMARK    7  A    between atoms: C_12  and  N_13
REMARK                            x       y       z     vdW  Elec       q    Type
REMARK                         _______ _______ _______ _____ _____    ______ ____
ROOT
ATOM      1  C   UNL     1      49.328   8.859  13.650  0.00  0.00    +0.000 C 
ENDROOT
BRANCH   1   2
ATOM      2  C   UNL     1      48.065   9.286  12.945  0.00  0.00    +0.000 A 
ATOM      3  C   UNL     1      47.950  10.580  12.446  0.00  0.00    +0.000 A 
ATOM      4  C   UNL     1      46.747  10.966  11.878  0.00  0.00    +0.000 A 
ATOM      5  C   UNL     1      45.701  10.057  11.833  0.00  0.00    +0.000 A 
ATOM      6  C   UNL     1      45.909   8.747  12.257  0.00  0.00    +0.000 A 
ATOM      7  N   UNL     1      47.077   8.362  12.819  0.00  0.00    +0.000 NA
BRANCH   6   8
ATOM      8  C   UNL     1      44.830   7.699  12.148  0.00  0.00    +0.000 C 
BRANCH   8   9
ATOM      9  C   UNL     1      45.226   6.285  12.603  0.00  0.00    +0.000 C 
BRANCH   9  10
ATOM     10  C   UNL     1      45.344   5.261  11.468  0.00  0.00    +0.000 C 
BRANCH  10  11
ATOM     11  N   UNL     1      44.113   5.035  10.698  0.00  0.00    +0.000 NA
ATOM     12  C   UNL     1      43.099   4.368  11.552  0.00  0.00    +0.000 C 
ATOM     13  C   UNL     1      43.405   2.880  11.858  0.00  0.00    +0.000 C 
ATOM     14  N   UNL     1      43.700   2.073  10.659  0.00  0.00    +0.000 NA
ATOM     15  C   UNL     1      44.716   2.751   9.831  0.00  0.00    +0.000 C 
ATOM     16  C   UNL     1      44.322   4.203   9.501  0.00  0.00    +0.000 C 
ATOM     17  H   UNL     1      42.845   2.022  10.106  0.00  0.00    +0.000 HD
ENDBRANCH  10  11
ENDBRANCH   9  10
ENDBRANCH   8   9
ENDBRANCH   6   8
ENDBRANCH   1   2
BRANCH   1  20
ATOM     18  O   UNL     1      51.258   7.407  14.999  0.00  0.00    +0.000 OA
ATOM     19  C   UNL     1      50.096   7.324  15.382  0.00  0.00    +0.000 C 
ATOM     20  N   UNL     1      49.059   7.942  14.728  0.00  0.00    +0.000 N 
ATOM     21  H   UNL     1      48.200   8.122  15.238  0.00  0.00    +0.000 HD
BRANCH  19  22
ATOM     22  C   UNL     1      49.720   6.515  16.542  0.00  0.00    +0.000 A 
ATOM     23  C   UNL     1      50.305   6.739  17.778  0.00  0.00    +0.000 A 
ATOM     24  S   UNL     1      49.741   5.679  18.992  0.00  0.00    +0.000 S 
ATOM     25  C   UNL     1      48.676   4.916  17.914  0.00  0.00    +0.000 A 
ATOM     26  N   UNL     1      47.851   3.910  18.317  0.00  0.00    +0.000 NA
ATOM     27  C   UNL     1      47.074   3.450  17.392  0.00  0.00    +0.000 A 
ATOM     28  N   UNL     1      47.052   3.898  16.097  0.00  0.00    +0.000 N 
ATOM     29  C   UNL     1      47.895   4.877  15.636  0.00  0.00    +0.000 A 
ATOM     30  O   UNL     1      47.896   5.176  14.447  0.00  0.00    +0.000 OA
ATOM     31  C   UNL     1      48.764   5.447  16.630  0.00  0.00    +0.000 A 
ATOM     32  H   UNL     1      46.436   3.480  15.413  0.00  0.00    +0.000 HD
ENDBRANCH  19  22
ENDBRANCH   1  20
TORSDOF 7
ENDMDL
