MODEL 1
REMARK VINA RESULT:    -9.213      0.000      0.000
REMARK INTER + INTRA:         -12.697
REMARK INTER:                 -11.906
REMARK INTRA:                  -0.791
REMARK UNBOUND:                -0.791
REMARK  Name = 
REMARK  5 active torsions:
REMARK  status: ('A' for Active; 'I' for Inactive)
REMARK    1  A    between atoms: C_2  and  C_4
REMARK    2  A    between atoms: C_8  and  N_9
REMARK    3  A    between atoms: N_9  and  C_10
REMARK    4  A    between atoms: C_10  and  C_11
REMARK    5  A    between atoms: C_13  and  C_14
REMARK                            x       y       z     vdW  Elec       q    Type
REMARK                         _______ _______ _______ _____ _____    ______ ____
ROOT
ATOM      1  N   UNL     1      44.133   6.703  12.442  0.00  0.00    +0.000 N 
ATOM      2  H   UNL     1      43.581   6.877  13.274  0.00  0.00    +0.000 HD
ENDROOT
BRANCH   1   7
ATOM      3  C   UNL     1      46.949   5.131  13.906  0.00  0.00    +0.000 A 
ATOM      4  N   UNL     1      48.034   5.747  13.404  0.00  0.00    +0.000 NA
ATOM      5  C   UNL     1      47.781   6.703  12.507  0.00  0.00    +0.000 A 
ATOM      6  C   UNL     1      46.508   7.063  12.122  0.00  0.00    +0.000 A 
ATOM      7  C   UNL     1      45.449   6.382  12.695  0.00  0.00    +0.000 A 
ATOM      8  N   UNL     1      45.655   5.400  13.588  0.00  0.00    +0.000 NA
BRANCH   3  10
ATOM      9  N   UNL     1      46.885   4.383  16.234  0.00  0.00    +0.000 N 
ATOM     10  C   UNL     1      47.192   4.049  14.937  0.00  0.00    +0.000 C 
ATOM     11  O   UNL     1      47.633   2.935  14.673  0.00  0.00    +0.000 OA
ATOM     12  H   UNL     1      47.028   3.693  16.962  0.00  0.00    +0.000 HD
ATOM     13  H   UNL     1      46.523   5.299  16.455  0.00  0.00    +0.000 HD
ENDBRANCH   3  10
ENDBRANCH   1   7
BRANCH   1  14
ATOM     14  C   UNL     1      43.437   6.295  11.234  0.00  0.00    +0.000 C 
BRANCH  14  15
ATOM     15  C   UNL     1      43.681   4.838  10.895  0.00  0.00    +0.000 A 
ATOM     16  C   UNL     1      44.491   4.490   9.811  0.00  0.00    +0.000 A 
ATOM     17  C   UNL     1      44.747   3.139   9.522  0.00  0.00    +0.000 A 
ATOM     18  C   UNL     1      44.149   2.192  10.364  0.00  0.00    +0.000 A 
ATOM     19  C   UNL     1      43.352   2.616  11.416  0.00  0.00    +0.000 A 
ATOM     20  N   UNL     1      43.102   3.910  11.695  0.00  0.00    +0.000 NA
BRANCH  17  21
ATOM     21  C   UNL     1      45.602   2.731   8.380  0.00  0.00    +0.000 A 
ATOM     22  C   UNL     1      45.899   3.618   7.327  0.00  0.00    +0.000 A 
ATOM     23  C   UNL     1      46.734   3.247   6.267  0.00  0.00    +0.000 A 
ATOM     24  C   UNL     1      47.281   1.970   6.225  0.00  0.00    +0.000 A 
ATOM     25  C   UNL     1      46.992   1.065   7.240  0.00  0.00    +0.000 A 
ATOM     26  C   UNL     1      46.168   1.444   8.306  0.00  0.00    +0.000 A 
ENDBRANCH  17  21
ENDBRANCH  14  15
ENDBRANCH   1  14
TORSDOF 5
ENDMDL
MODEL 2
REMARK VINA RESULT:    -8.337      3.034      6.526
REMARK INTER + INTRA:         -11.565
REMARK INTER:                 -11.069
REMARK INTRA:                  -0.496
REMARK UNBOUND:                -0.791
REMARK  Name = 
REMARK  5 active torsions:
REMARK  status: ('A' for Active; 'I' for Inactive)
REMARK    1  A    between atoms: C_2  and  C_4
REMARK    2  A    between atoms: C_8  and  N_9
REMARK    3  A    between atoms: N_9  and  C_10
REMARK    4  A    between atoms: C_10  and  C_11
REMARK    5  A    between atoms: C_13  and  C_14
REMARK                            x       y       z     vdW  Elec       q    Type
REMARK                         _______ _______ _______ _____ _____    ______ ____
ROOT
ATOM      1  N   UNL     1      43.979   2.274  10.735  0.00  0.00    +0.000 N 
ATOM      2  H   UNL     1      43.400   1.450  10.625  0.00  0.00    +0.000 HD
ENDROOT
BRANCH   1   7
ATOM      3  C   UNL     1      46.185   2.048   7.973  0.00  0.00    +0.000 A 
ATOM      4  N   UNL     1      46.221   3.269   7.412  0.00  0.00    +0.000 NA
ATOM      5  C   UNL     1      45.429   4.181   7.983  0.00  0.00    +0.000 A 
ATOM      6  C   UNL     1      44.640   3.917   9.080  0.00  0.00    +0.000 A 
ATOM      7  C   UNL     1      44.670   2.634   9.598  0.00  0.00    +0.000 A 
ATOM      8  N   UNL     1      45.436   1.679   9.046  0.00  0.00    +0.000 NA
BRANCH   3  10
ATOM      9  N   UNL     1      46.754  -0.312   7.671  0.00  0.00    +0.000 N 
ATOM     10  C   UNL     1      47.078   0.988   7.363  0.00  0.00    +0.000 C 
ATOM     11  O   UNL     1      48.036   1.231   6.637  0.00  0.00    +0.000 OA
ATOM     12  H   UNL     1      47.321  -1.060   7.287  0.00  0.00    +0.000 HD
ATOM     13  H   UNL     1      45.967  -0.516   8.269  0.00  0.00    +0.000 HD
ENDBRANCH   3  10
ENDBRANCH   1   7
BRANCH   1  14
ATOM     14  C   UNL     1      43.628   3.220  11.780  0.00  0.00    +0.000 C 
BRANCH  14  15
ATOM     15  C   UNL     1      44.844   3.916  12.356  0.00  0.00    +0.000 A 
ATOM     16  C   UNL     1      45.036   5.287  12.157  0.00  0.00    +0.000 A 
ATOM     17  C   UNL     1      46.144   5.938  12.725  0.00  0.00    +0.000 A 
ATOM     18  C   UNL     1      47.021   5.145  13.477  0.00  0.00    +0.000 A 
ATOM     19  C   UNL     1      46.766   3.790  13.624  0.00  0.00    +0.000 A 
ATOM     20  N   UNL     1      45.706   3.162  13.079  0.00  0.00    +0.000 NA
BRANCH  17  21
ATOM     21  C   UNL     1      46.380   7.391  12.536  0.00  0.00    +0.000 A 
ATOM     22  C   UNL     1      47.674   7.906  12.326  0.00  0.00    +0.000 A 
ATOM     23  C   UNL     1      47.895   9.271  12.112  0.00  0.00    +0.000 A 
ATOM     24  C   UNL     1      46.826  10.160  12.119  0.00  0.00    +0.000 A 
ATOM     25  C   UNL     1      45.539   9.684  12.341  0.00  0.00    +0.000 A 
ATOM     26  C   UNL     1      45.320   8.316  12.541  0.00  0.00    +0.000 A 
ENDBRANCH  17  21
ENDBRANCH  14  15
ENDBRANCH   1  14
TORSDOF 5
ENDMDL
MODEL 3
REMARK VINA RESULT:    -8.089      1.597      2.294
REMARK INTER + INTRA:         -11.245
REMARK INTER:                 -10.391
REMARK INTRA:                  -0.854
REMARK UNBOUND:                -0.791
REMARK  Name = 
REMARK  5 active torsions:
REMARK  status: ('A' for Active; 'I' for Inactive)
REMARK    1  A    between atoms: C_2  and  C_4
REMARK    2  A    between atoms: C_8  and  N_9
REMARK    3  A    between atoms: N_9  and  C_10
REMARK    4  A    between atoms: C_10  and  C_11
REMARK    5  A    between atoms: C_13  and  C_14
REMARK                            x       y       z     vdW  Elec       q    Type
REMARK                         _______ _______ _______ _____ _____    ______ ____
ROOT
ATOM      1  N   UNL     1      43.985   6.365  12.502  0.00  0.00    +0.000 N 
ATOM      2  H   UNL     1      43.334   6.312  13.276  0.00  0.00    +0.000 HD
ENDROOT
BRANCH   1   7
ATOM      3  C   UNL     1      47.483   6.892  12.686  0.00  0.00    +0.000 A 
ATOM      4  N   UNL     1      47.989   5.856  13.378  0.00  0.00    +0.000 NA
ATOM      5  C   UNL     1      47.089   4.976  13.824  0.00  0.00    +0.000 A 
ATOM      6  C   UNL     1      45.737   5.090  13.588  0.00  0.00    +0.000 A 
ATOM      7  C   UNL     1      45.303   6.185  12.860  0.00  0.00    +0.000 A 
ATOM      8  N   UNL     1      46.170   7.106  12.408  0.00  0.00    +0.000 NA
BRANCH   3  10
ATOM      9  N   UNL     1      48.455   9.135  12.768  0.00  0.00    +0.000 N 
ATOM     10  C   UNL     1      48.472   7.907  12.152  0.00  0.00    +0.000 C 
ATOM     11  O   UNL     1      49.253   7.687  11.233  0.00  0.00    +0.000 OA
ATOM     12  H   UNL     1      49.098   9.850  12.449  0.00  0.00    +0.000 HD
ATOM     13  H   UNL     1      47.812   9.321  13.524  0.00  0.00    +0.000 HD
ENDBRANCH   3  10
ENDBRANCH   1   7
BRANCH   1  14
ATOM     14  C   UNL     1      43.483   6.086  11.167  0.00  0.00    +0.000 C 
BRANCH  14  15
ATOM     15  C   UNL     1      43.745   4.656  10.742  0.00  0.00    +0.000 A 
ATOM     16  C   UNL     1      44.603   4.381   9.673  0.00  0.00    +0.000 A 
ATOM     17  C   UNL     1      44.875   3.052   9.305  0.00  0.00    +0.000 A 
ATOM     18  C   UNL     1      44.242   2.051  10.054  0.00  0.00    +0.000 A 
ATOM     19  C   UNL     1      43.399   2.404  11.097  0.00  0.00    +0.000 A 
ATOM     20  N   UNL     1      43.134   3.676  11.451  0.00  0.00    +0.000 NA
BRANCH  17  21
ATOM     21  C   UNL     1      45.780   2.722   8.177  0.00  0.00    +0.000 A 
ATOM     22  C   UNL     1      46.063   3.656   7.161  0.00  0.00    +0.000 A 
ATOM     23  C   UNL     1      46.944   3.358   6.115  0.00  0.00    +0.000 A 
ATOM     24  C   UNL     1      47.553   2.110   6.050  0.00  0.00    +0.000 A 
ATOM     25  C   UNL     1      47.279   1.160   7.028  0.00  0.00    +0.000 A 
ATOM     26  C   UNL     1      46.408   1.466   8.080  0.00  0.00    +0.000 A 
ENDBRANCH  17  21
ENDBRANCH  14  15
ENDBRANCH   1  14
TORSDOF 5
ENDMDL
MODEL 4
REMARK VINA RESULT:    -8.085      1.751      2.132
REMARK INTER + INTRA:         -11.239
REMARK INTER:                 -10.479
REMARK INTRA:                  -0.760
REMARK UNBOUND:                -0.791
REMARK  Name = 
REMARK  5 active torsions:
REMARK  status: ('A' for Active; 'I' for Inactive)
REMARK    1  A    between atoms: C_2  and  C_4
REMARK    2  A    between atoms: C_8  and  N_9
REMARK    3  A    between atoms: N_9  and  C_10
REMARK    4  A    between atoms: C_10  and  C_11
REMARK    5  A    between atoms: C_13  and  C_14
REMARK                            x       y       z     vdW  Elec       q    Type
REMARK                         _______ _______ _______ _____ _____    ______ ____
ROOT
ATOM      1  N   UNL     1      44.212   6.900  12.523  0.00  0.00    +0.000 N 
ATOM      2  H   UNL     1      44.120   6.318  13.348  0.00  0.00    +0.000 HD
ENDROOT
BRANCH   1   7
ATOM      3  C   UNL     1      47.635   7.758  12.824  0.00  0.00    +0.000 A 
ATOM      4  N   UNL     1      47.717   9.082  12.609  0.00  0.00    +0.000 NA
ATOM      5  C   UNL     1      46.561   9.683  12.313  0.00  0.00    +0.000 A 
ATOM      6  C   UNL     1      45.358   9.018  12.247  0.00  0.00    +0.000 A 
ATOM      7  C   UNL     1      45.364   7.655  12.490  0.00  0.00    +0.000 A 
ATOM      8  N   UNL     1      46.504   7.005  12.773  0.00  0.00    +0.000 NA
BRANCH   3  10
ATOM      9  N   UNL     1      49.902   7.073  12.212  0.00  0.00    +0.000 N 
ATOM     10  C   UNL     1      48.921   7.041  13.175  0.00  0.00    +0.000 C 
ATOM     11  O   UNL     1      49.116   6.457  14.236  0.00  0.00    +0.000 OA
ATOM     12  H   UNL     1      50.784   6.609  12.398  0.00  0.00    +0.000 HD
ATOM     13  H   UNL     1      49.745   7.551  11.337  0.00  0.00    +0.000 HD
ENDBRANCH   3  10
ENDBRANCH   1   7
BRANCH   1  14
ATOM     14  C   UNL     1      43.491   6.504  11.325  0.00  0.00    +0.000 C 
BRANCH  14  15
ATOM     15  C   UNL     1      43.697   5.041  10.988  0.00  0.00    +0.000 A 
ATOM     16  C   UNL     1      44.499   4.670   9.905  0.00  0.00    +0.000 A 
ATOM     17  C   UNL     1      44.720   3.313   9.617  0.00  0.00    +0.000 A 
ATOM     18  C   UNL     1      44.097   2.383  10.459  0.00  0.00    +0.000 A 
ATOM     19  C   UNL     1      43.310   2.829  11.511  0.00  0.00    +0.000 A 
ATOM     20  N   UNL     1      43.094   4.129  11.788  0.00  0.00    +0.000 NA
BRANCH  17  21
ATOM     21  C   UNL     1      45.565   2.882   8.476  0.00  0.00    +0.000 A 
ATOM     22  C   UNL     1      45.941   3.778   7.457  0.00  0.00    +0.000 A 
ATOM     23  C   UNL     1      46.767   3.383   6.399  0.00  0.00    +0.000 A 
ATOM     24  C   UNL     1      47.225   2.072   6.324  0.00  0.00    +0.000 A 
ATOM     25  C   UNL     1      46.856   1.159   7.305  0.00  0.00    +0.000 A 
ATOM     26  C   UNL     1      46.041   1.561   8.370  0.00  0.00    +0.000 A 
ENDBRANCH  17  21
ENDBRANCH  14  15
ENDBRANCH   1  14
TORSDOF 5
ENDMDL
MODEL 5
REMARK VINA RESULT:    -7.886      2.483      3.301
REMARK INTER + INTRA:         -10.983
REMARK INTER:                 -10.250
REMARK INTRA:                  -0.733
REMARK UNBOUND:                -0.791
REMARK  Name = 
REMARK  5 active torsions:
REMARK  status: ('A' for Active; 'I' for Inactive)
REMARK    1  A    between atoms: C_2  and  C_4
REMARK    2  A    between atoms: C_8  and  N_9
REMARK    3  A    between atoms: N_9  and  C_10
REMARK    4  A    between atoms: C_10  and  C_11
REMARK    5  A    between atoms: C_13  and  C_14
REMARK                            x       y       z     vdW  Elec       q    Type
REMARK                         _______ _______ _______ _____ _____    ______ ____
ROOT
ATOM      1  N   UNL     1      44.114   6.629  12.520  0.00  0.00    +0.000 N 
ATOM      2  H   UNL     1      43.934   6.082  13.354  0.00  0.00    +0.000 HD
ENDROOT
BRANCH   1   7
ATOM      3  C   UNL     1      46.458   9.259  12.161  0.00  0.00    +0.000 A 
ATOM      4  N   UNL     1      47.672   8.721  12.376  0.00  0.00    +0.000 NA
ATOM      5  C   UNL     1      47.671   7.423  12.692  0.00  0.00    +0.000 A 
ATOM      6  C   UNL     1      46.524   6.667  12.778  0.00  0.00    +0.000 A 
ATOM      7  C   UNL     1      45.317   7.300  12.533  0.00  0.00    +0.000 A 
ATOM      8  N   UNL     1      45.268   8.607  12.231  0.00  0.00    +0.000 NA
BRANCH   3  10
ATOM      9  N   UNL     1      45.289  11.408  12.177  0.00  0.00    +0.000 N 
ATOM     10  C   UNL     1      46.417  10.726  11.787  0.00  0.00    +0.000 C 
ATOM     11  O   UNL     1      47.310  11.306  11.177  0.00  0.00    +0.000 OA
ATOM     12  H   UNL     1      45.212  12.393  11.952  0.00  0.00    +0.000 HD
ATOM     13  H   UNL     1      44.552  10.934  12.678  0.00  0.00    +0.000 HD
ENDBRANCH   3  10
ENDBRANCH   1   7
BRANCH   1  14
ATOM     14  C   UNL     1      43.436   6.246  11.294  0.00  0.00    +0.000 C 
BRANCH  14  15
ATOM     15  C   UNL     1      43.685   4.796  10.928  0.00  0.00    +0.000 A 
ATOM     16  C   UNL     1      44.496   4.471   9.837  0.00  0.00    +0.000 A 
ATOM     17  C   UNL     1      44.757   3.127   9.523  0.00  0.00    +0.000 A 
ATOM     18  C   UNL     1      44.162   2.162  10.347  0.00  0.00    +0.000 A 
ATOM     19  C   UNL     1      43.364   2.564  11.408  0.00  0.00    +0.000 A 
ATOM     20  N   UNL     1      43.110   3.852  11.711  0.00  0.00    +0.000 NA
BRANCH  17  21
ATOM     21  C   UNL     1      45.613   2.743   8.373  0.00  0.00    +0.000 A 
ATOM     22  C   UNL     1      45.891   3.645   7.328  0.00  0.00    +0.000 A 
ATOM     23  C   UNL     1      46.727   3.297   6.261  0.00  0.00    +0.000 A 
ATOM     24  C   UNL     1      47.293   2.029   6.203  0.00  0.00    +0.000 A 
ATOM     25  C   UNL     1      47.022   1.109   7.210  0.00  0.00    +0.000 A 
ATOM     26  C   UNL     1      46.197   1.465   8.284  0.00  0.00    +0.000 A 
ENDBRANCH  17  21
ENDBRANCH  14  15
ENDBRANCH   1  14
TORSDOF 5
ENDMDL
MODEL 6
REMARK VINA RESULT:    -7.008      2.579      4.907
REMARK INTER + INTRA:          -9.848
REMARK INTER:                  -9.242
REMARK INTRA:                  -0.606
REMARK UNBOUND:                -0.791
REMARK  Name = 
REMARK  5 active torsions:
REMARK  status: ('A' for Active; 'I' for Inactive)
REMARK    1  A    between atoms: C_2  and  C_4
REMARK    2  A    between atoms: C_8  and  N_9
REMARK    3  A    between atoms: N_9  and  C_10
REMARK    4  A    between atoms: C_10  and  C_11
REMARK    5  A    between atoms: C_13  and  C_14
REMARK                            x       y       z     vdW  Elec       q    Type
REMARK                         _______ _______ _______ _____ _____    ______ ____
ROOT
ATOM      1  N   UNL     1      48.216   6.740  15.932  0.00  0.00    +0.000 N 
ATOM      2  H   UNL     1      47.379   7.282  16.116  0.00  0.00    +0.000 HD
ENDROOT
BRANCH   1   7
ATOM      3  C   UNL     1      49.272   3.727  17.464  0.00  0.00    +0.000 A 
ATOM      4  N   UNL     1      49.053   3.871  18.783  0.00  0.00    +0.000 NA
ATOM      5  C   UNL     1      48.563   5.058  19.151  0.00  0.00    +0.000 A 
ATOM      6  C   UNL     1      48.279   6.069  18.260  0.00  0.00    +0.000 A 
ATOM      7  C   UNL     1      48.528   5.832  16.920  0.00  0.00    +0.000 A 
ATOM      8  N   UNL     1      49.038   4.661  16.505  0.00  0.00    +0.000 NA
BRANCH   3  10
ATOM      9  N   UNL     1      50.835   1.868  17.763  0.00  0.00    +0.000 N 
ATOM     10  C   UNL     1      49.815   2.390  17.003  0.00  0.00    +0.000 C 
ATOM     11  O   UNL     1      49.400   1.781  16.023  0.00  0.00    +0.000 OA
ATOM     12  H   UNL     1      51.233   0.975  17.498  0.00  0.00    +0.000 HD
ATOM     13  H   UNL     1      51.180   2.368  18.569  0.00  0.00    +0.000 HD
ENDBRANCH   3  10
ENDBRANCH   1   7
BRANCH   1  14
ATOM     14  C   UNL     1      48.637   6.583  14.551  0.00  0.00    +0.000 C 
BRANCH  14  15
ATOM     15  C   UNL     1      47.513   6.859  13.572  0.00  0.00    +0.000 A 
ATOM     16  C   UNL     1      47.051   5.851  12.722  0.00  0.00    +0.000 A 
ATOM     17  C   UNL     1      45.983   6.098  11.843  0.00  0.00    +0.000 A 
ATOM     18  C   UNL     1      45.432   7.386  11.870  0.00  0.00    +0.000 A 
ATOM     19  C   UNL     1      45.950   8.336  12.738  0.00  0.00    +0.000 A 
ATOM     20  N   UNL     1      46.976   8.103  13.580  0.00  0.00    +0.000 NA
BRANCH  17  21
ATOM     21  C   UNL     1      45.465   5.052  10.927  0.00  0.00    +0.000 A 
ATOM     22  C   UNL     1      45.650   5.136   9.533  0.00  0.00    +0.000 A 
ATOM     23  C   UNL     1      45.194   4.133   8.670  0.00  0.00    +0.000 A 
ATOM     24  C   UNL     1      44.524   3.027   9.179  0.00  0.00    +0.000 A 
ATOM     25  C   UNL     1      44.310   2.924  10.549  0.00  0.00    +0.000 A 
ATOM     26  C   UNL     1      44.780   3.922  11.411  0.00  0.00    +0.000 A 
ENDBRANCH  17  21
ENDBRANCH  14  15
ENDBRANCH   1  14
TORSDOF 5
ENDMDL
MODEL 7
REMARK VINA RESULT:    -6.682      2.075      2.756
REMARK INTER + INTRA:          -9.427
REMARK INTER:                  -8.909
REMARK INTRA:                  -0.518
REMARK UNBOUND:                -0.791
REMARK  Name = 
REMARK  5 active torsions:
REMARK  status: ('A' for Active; 'I' for Inactive)
REMARK    1  A    between atoms: C_2  and  C_4
REMARK    2  A    between atoms: C_8  and  N_9
REMARK    3  A    between atoms: N_9  and  C_10
REMARK    4  A    between atoms: C_10  and  C_11
REMARK    5  A    between atoms: C_13  and  C_14
REMARK                            x       y       z     vdW  Elec       q    Type
REMARK                         _______ _______ _______ _____ _____    ______ ____
ROOT
ATOM      1  N   UNL     1      46.732   5.206  14.143  0.00  0.00    +0.000 N 
ATOM      2  H   UNL     1      46.800   4.271  13.758  0.00  0.00    +0.000 HD
ENDROOT
BRANCH   1   7
ATOM      3  C   UNL     1      48.960   5.050  16.892  0.00  0.00    +0.000 A 
ATOM      4  N   UNL     1      49.695   6.176  16.852  0.00  0.00    +0.000 NA
ATOM      5  C   UNL     1      49.436   6.988  15.824  0.00  0.00    +0.000 A 
ATOM      6  C   UNL     1      48.478   6.721  14.871  0.00  0.00    +0.000 A 
ATOM      7  C   UNL     1      47.763   5.543  14.993  0.00  0.00    +0.000 A 
ATOM      8  N   UNL     1      48.001   4.687  16.000  0.00  0.00    +0.000 NA
BRANCH   3  10
ATOM      9  N   UNL     1      48.147   3.901  18.892  0.00  0.00    +0.000 N 
ATOM     10  C   UNL     1      49.213   4.109  18.050  0.00  0.00    +0.000 C 
ATOM     11  O   UNL     1      50.284   3.547  18.259  0.00  0.00    +0.000 OA
ATOM     12  H   UNL     1      48.264   3.278  19.683  0.00  0.00    +0.000 HD
ATOM     13  H   UNL     1      47.265   4.362  18.725  0.00  0.00    +0.000 HD
ENDBRANCH   3  10
ENDBRANCH   1   7
BRANCH   1  14
ATOM     14  C   UNL     1      45.960   6.192  13.407  0.00  0.00    +0.000 C 
BRANCH  14  15
ATOM     15  C   UNL     1      45.087   5.560  12.342  0.00  0.00    +0.000 A 
ATOM     16  C   UNL     1      45.665   4.890  11.259  0.00  0.00    +0.000 A 
ATOM     17  C   UNL     1      44.853   4.272  10.293  0.00  0.00    +0.000 A 
ATOM     18  C   UNL     1      43.468   4.374  10.477  0.00  0.00    +0.000 A 
ATOM     19  C   UNL     1      42.971   5.061  11.574  0.00  0.00    +0.000 A 
ATOM     20  N   UNL     1      43.745   5.658  12.501  0.00  0.00    +0.000 NA
BRANCH  17  21
ATOM     21  C   UNL     1      45.431   3.551   9.131  0.00  0.00    +0.000 A 
ATOM     22  C   UNL     1      45.924   4.241   8.007  0.00  0.00    +0.000 A 
ATOM     23  C   UNL     1      46.501   3.565   6.925  0.00  0.00    +0.000 A 
ATOM     24  C   UNL     1      46.583   2.178   6.934  0.00  0.00    +0.000 A 
ATOM     25  C   UNL     1      46.088   1.467   8.022  0.00  0.00    +0.000 A 
ATOM     26  C   UNL     1      45.524   2.147   9.108  0.00  0.00    +0.000 A 
ENDBRANCH  17  21
ENDBRANCH  14  15
ENDBRANCH   1  14
TORSDOF 5
ENDMDL
MODEL 8
REMARK VINA RESULT:    -6.672      2.452      3.412
REMARK INTER + INTRA:          -9.414
REMARK INTER:                  -8.744
REMARK INTRA:                  -0.670
REMARK UNBOUND:                -0.791
REMARK  Name = 
REMARK  5 active torsions:
REMARK  status: ('A' for Active; 'I' for Inactive)
REMARK    1  A    between atoms: C_2  and  C_4
REMARK    2  A    between atoms: C_8  and  N_9
REMARK    3  A    between atoms: N_9  and  C_10
REMARK    4  A    between atoms: C_10  and  C_11
REMARK    5  A    between atoms: C_13  and  C_14
REMARK                            x       y       z     vdW  Elec       q    Type
REMARK                         _______ _______ _______ _____ _____    ______ ____
ROOT
ATOM      1  N   UNL     1      46.436   6.943  13.485  0.00  0.00    +0.000 N 
ATOM      2  H   UNL     1      46.146   6.091  13.952  0.00  0.00    +0.000 HD
ENDROOT
BRANCH   1   7
ATOM      3  C   UNL     1      49.770   7.875  12.738  0.00  0.00    +0.000 A 
ATOM      4  N   UNL     1      50.458   7.792  13.891  0.00  0.00    +0.000 NA
ATOM      5  C   UNL     1      49.736   7.442  14.959  0.00  0.00    +0.000 A 
ATOM      6  C   UNL     1      48.389   7.163  14.904  0.00  0.00    +0.000 A 
ATOM      7  C   UNL     1      47.762   7.267  13.674  0.00  0.00    +0.000 A 
ATOM      8  N   UNL     1      48.442   7.634  12.576  0.00  0.00    +0.000 NA
BRANCH   3  10
ATOM      9  N   UNL     1      50.826   9.597  11.357  0.00  0.00    +0.000 N 
ATOM     10  C   UNL     1      50.554   8.257  11.500  0.00  0.00    +0.000 C 
ATOM     11  O   UNL     1      50.941   7.454  10.657  0.00  0.00    +0.000 OA
ATOM     12  H   UNL     1      51.349   9.905  10.545  0.00  0.00    +0.000 HD
ATOM     13  H   UNL     1      50.508  10.260  12.048  0.00  0.00    +0.000 HD
ENDBRANCH   3  10
ENDBRANCH   1   7
BRANCH   1  14
ATOM     14  C   UNL     1      45.671   7.384  12.331  0.00  0.00    +0.000 C 
BRANCH  14  15
ATOM     15  C   UNL     1      44.934   6.242  11.661  0.00  0.00    +0.000 A 
ATOM     16  C   UNL     1      45.554   5.490  10.660  0.00  0.00    +0.000 A 
ATOM     17  C   UNL     1      44.882   4.407  10.067  0.00  0.00    +0.000 A 
ATOM     18  C   UNL     1      43.586   4.144  10.528  0.00  0.00    +0.000 A 
ATOM     19  C   UNL     1      43.036   4.940  11.521  0.00  0.00    +0.000 A 
ATOM     20  N   UNL     1      43.676   5.980  12.090  0.00  0.00    +0.000 NA
BRANCH  17  21
ATOM     21  C   UNL     1      45.509   3.586   9.002  0.00  0.00    +0.000 A 
ATOM     22  C   UNL     1      46.116   4.177   7.876  0.00  0.00    +0.000 A 
ATOM     23  C   UNL     1      46.739   3.405   6.888  0.00  0.00    +0.000 A 
ATOM     24  C   UNL     1      46.754   2.019   6.993  0.00  0.00    +0.000 A 
ATOM     25  C   UNL     1      46.148   1.405   8.083  0.00  0.00    +0.000 A 
ATOM     26  C   UNL     1      45.538   2.180   9.076  0.00  0.00    +0.000 A 
ENDBRANCH  17  21
ENDBRANCH  14  15
ENDBRANCH   1  14
TORSDOF 5
ENDMDL
MODEL 9
REMARK VINA RESULT:    -6.599      4.256      8.459
REMARK INTER + INTRA:          -9.319
REMARK INTER:                  -8.718
REMARK INTRA:                  -0.600
REMARK UNBOUND:                -0.791
REMARK  Name = 
REMARK  5 active torsions:
REMARK  status: ('A' for Active; 'I' for Inactive)
REMARK    1  A    between atoms: C_2  and  C_4
REMARK    2  A    between atoms: C_8  and  N_9
REMARK    3  A    between atoms: N_9  and  C_10
REMARK    4  A    between atoms: C_10  and  C_11
REMARK    5  A    between atoms: C_13  and  C_14
REMARK                            x       y       z     vdW  Elec       q    Type
REMARK                         _______ _______ _______ _____ _____    ______ ____
ROOT
ATOM      1  N   UNL     1      47.125   3.586  14.798  0.00  0.00    +0.000 N 
ATOM      2  H   UNL     1      47.273   2.587  14.710  0.00  0.00    +0.000 HD
ENDROOT
BRANCH   1   7
ATOM      3  C   UNL     1      45.124   3.908  11.894  0.00  0.00    +0.000 A 
ATOM      4  N   UNL     1      45.333   5.149  11.421  0.00  0.00    +0.000 NA
ATOM      5  C   UNL     1      46.158   5.904  12.152  0.00  0.00    +0.000 A 
ATOM      6  C   UNL     1      46.776   5.458  13.298  0.00  0.00    +0.000 A 
ATOM      7  C   UNL     1      46.510   4.163  13.709  0.00  0.00    +0.000 A 
ATOM      8  N   UNL     1      45.672   3.374  13.017  0.00  0.00    +0.000 NA
BRANCH   3  10
ATOM      9  N   UNL     1      44.761   2.445   9.967  0.00  0.00    +0.000 N 
ATOM     10  C   UNL     1      44.205   3.015  11.087  0.00  0.00    +0.000 C 
ATOM     11  O   UNL     1      43.035   2.789  11.380  0.00  0.00    +0.000 OA
ATOM     12  H   UNL     1      44.187   1.838   9.393  0.00  0.00    +0.000 HD
ATOM     13  H   UNL     1      45.722   2.630   9.722  0.00  0.00    +0.000 HD
ENDBRANCH   3  10
ENDBRANCH   1   7
BRANCH   1  14
ATOM     14  C   UNL     1      47.061   4.152  16.134  0.00  0.00    +0.000 C 
BRANCH  14  15
ATOM     15  C   UNL     1      48.425   4.565  16.650  0.00  0.00    +0.000 A 
ATOM     16  C   UNL     1      49.385   3.599  16.963  0.00  0.00    +0.000 A 
ATOM     17  C   UNL     1      50.662   3.984  17.404  0.00  0.00    +0.000 A 
ATOM     18  C   UNL     1      50.900   5.361  17.512  0.00  0.00    +0.000 A 
ATOM     19  C   UNL     1      49.894   6.258  17.189  0.00  0.00    +0.000 A 
ATOM     20  N   UNL     1      48.668   5.892  16.768  0.00  0.00    +0.000 NA
BRANCH  17  21
ATOM     21  C   UNL     1      51.707   2.987  17.745  0.00  0.00    +0.000 A 
ATOM     22  C   UNL     1      52.850   3.342  18.487  0.00  0.00    +0.000 A 
ATOM     23  C   UNL     1      53.819   2.395  18.840  0.00  0.00    +0.000 A 
ATOM     24  C   UNL     1      53.677   1.071  18.443  0.00  0.00    +0.000 A 
ATOM     25  C   UNL     1      52.568   0.693  17.694  0.00  0.00    +0.000 A 
ATOM     26  C   UNL     1      51.594   1.639  17.354  0.00  0.00    +0.000 A 
ENDBRANCH  17  21
ENDBRANCH  14  15
ENDBRANCH   1  14
TORSDOF 5
ENDMDL
