MODEL 1
REMARK VINA RESULT:    -6.767      0.000      0.000
REMARK INTER + INTRA:          -9.454
REMARK INTER:                  -8.745
REMARK INTRA:                  -0.709
REMARK UNBOUND:                -0.709
REMARK  Name = 
REMARK  8 active torsions:
REMARK  status: ('A' for Active; 'I' for Inactive)
REMARK    1  A    between atoms: C_1  and  C_2
REMARK    2  A    between atoms: C_2  and  C_3
REMARK    3  A    between atoms: C_2  and  C_4
REMARK    4  A    between atoms: C_2  and  C_5
REMARK    5  A    between atoms: C_5  and  O_6
REMARK    6  A    between atoms: C_5  and  C_16
REMARK    7  A    between atoms: O_6  and  C_7
REMARK    8  A    between atoms: C_10  and  C_11
REMARK                            x       y       z     vdW  Elec       q    Type
REMARK                         _______ _______ _______ _____ _____    ______ ____
ROOT
ATOM      1  O   UNL     1      44.544   4.835   9.970  0.00  0.00    +0.000 OA
ENDROOT
BRANCH   1   2
ATOM      2  C   UNL     1      45.287   4.089   9.101  0.00  0.00    +0.000 A 
ATOM      3  C   UNL     1      45.311   2.705   8.996  0.00  0.00    +0.000 A 
ATOM      4  C   UNL     1      46.109   2.092   8.031  0.00  0.00    +0.000 A 
ATOM      5  C   UNL     1      46.880   2.880   7.189  0.00  0.00    +0.000 A 
ATOM      6  N   UNL     1      46.897   4.246   7.251  0.00  0.00    +0.000 NA
ATOM      7  C   UNL     1      46.094   4.800   8.206  0.00  0.00    +0.000 A 
BRANCH   5   8
ATOM      8  C   UNL     1      47.741   2.212   6.163  0.00  0.00    +0.000 C 
ATOM      9  N   UNL     1      48.009   2.929   5.031  0.00  0.00    +0.000 N 
ATOM     10  O   UNL     1      48.185   1.081   6.324  0.00  0.00    +0.000 OA
ATOM     11  H   UNL     1      47.640   3.866   4.926  0.00  0.00    +0.000 HD
ATOM     12  H   UNL     1      48.597   2.522   4.318  0.00  0.00    +0.000 HD
ENDBRANCH   5   8
ENDBRANCH   1   2
BRANCH   1  13
ATOM     13  C   UNL     1      44.786   4.769  11.395  0.00  0.00    +0.000 C 
BRANCH  13  14
ATOM     14  C   UNL     1      45.393   6.096  11.837  0.00  0.00    +0.000 A 
ATOM     15  C   UNL     1      46.570   6.119  12.596  0.00  0.00    +0.000 A 
ATOM     16  C   UNL     1      47.114   7.342  12.961  0.00  0.00    +0.000 A 
ATOM     17  N   UNL     1      46.576   8.534  12.631  0.00  0.00    +0.000 NA
ATOM     18  C   UNL     1      45.442   8.501  11.901  0.00  0.00    +0.000 A 
ATOM     19  C   UNL     1      44.825   7.329  11.487  0.00  0.00    +0.000 A 
ENDBRANCH  13  14
BRANCH  13  21
ATOM     20  C   UNL     1      43.165   2.850  11.850  0.00  0.00    +0.000 C 
ATOM     21  C   UNL     1      43.463   4.345  12.137  0.00  0.00    +0.000 C 
ATOM     22  C   UNL     1      42.255   5.188  11.687  0.00  0.00    +0.000 C 
ATOM     23  C   UNL     1      43.606   4.486  13.669  0.00  0.00    +0.000 C 
ENDBRANCH  13  21
ENDBRANCH   1  13
TORSDOF 5
ENDMDL
MODEL 2
REMARK VINA RESULT:    -6.316      1.233      2.020
REMARK INTER + INTRA:          -8.871
REMARK INTER:                  -8.760
REMARK INTRA:                  -0.112
REMARK UNBOUND:                -0.709
REMARK  Name = 
REMARK  8 active torsions:
REMARK  status: ('A' for Active; 'I' for Inactive)
REMARK    1  A    between atoms: C_1  and  C_2
REMARK    2  A    between atoms: C_2  and  C_3
REMARK    3  A    between atoms: C_2  and  C_4
REMARK    4  A    between atoms: C_2  and  C_5
REMARK    5  A    between atoms: C_5  and  O_6
REMARK    6  A    between atoms: C_5  and  C_16
REMARK    7  A    between atoms: O_6  and  C_7
REMARK    8  A    between atoms: C_10  and  C_11
REMARK                            x       y       z     vdW  Elec       q    Type
REMARK                         _______ _______ _______ _____ _____    ______ ____
ROOT
ATOM      1  O   UNL     1      44.567   5.000   9.993  0.00  0.00    +0.000 OA
ENDROOT
BRANCH   1   2
ATOM      2  C   UNL     1      45.251   4.128   9.195  0.00  0.00    +0.000 A 
ATOM      3  C   UNL     1      46.055   4.444   8.108  0.00  0.00    +0.000 A 
ATOM      4  C   UNL     1      46.711   3.433   7.408  0.00  0.00    +0.000 A 
ATOM      5  C   UNL     1      46.544   2.114   7.807  0.00  0.00    +0.000 A 
ATOM      6  N   UNL     1      45.762   1.747   8.866  0.00  0.00    +0.000 NA
ATOM      7  C   UNL     1      45.146   2.772   9.525  0.00  0.00    +0.000 A 
BRANCH   5   8
ATOM      8  C   UNL     1      47.244   1.035   7.042  0.00  0.00    +0.000 C 
ATOM      9  N   UNL     1      46.970  -0.251   7.413  0.00  0.00    +0.000 N 
ATOM     10  O   UNL     1      48.025   1.285   6.131  0.00  0.00    +0.000 OA
ATOM     11  H   UNL     1      46.313  -0.433   8.162  0.00  0.00    +0.000 HD
ATOM     12  H   UNL     1      47.410  -1.012   6.916  0.00  0.00    +0.000 HD
ENDBRANCH   5   8
ENDBRANCH   1   2
BRANCH   1  13
ATOM     13  C   UNL     1      44.756   4.991  11.428  0.00  0.00    +0.000 C 
BRANCH  13  14
ATOM     14  C   UNL     1      45.288   6.358  11.846  0.00  0.00    +0.000 A 
ATOM     15  C   UNL     1      44.679   7.529  11.379  0.00  0.00    +0.000 A 
ATOM     16  C   UNL     1      45.168   8.758  11.796  0.00  0.00    +0.000 A 
ATOM     17  N   UNL     1      46.213   8.906  12.638  0.00  0.00    +0.000 NA
ATOM     18  C   UNL     1      46.793   7.772  13.082  0.00  0.00    +0.000 A 
ATOM     19  C   UNL     1      46.375   6.499  12.721  0.00  0.00    +0.000 A 
ENDBRANCH  13  14
BRANCH  13  21
ATOM     20  C   UNL     1      42.233   5.351  11.569  0.00  0.00    +0.000 C 
ATOM     21  C   UNL     1      43.424   4.534  12.134  0.00  0.00    +0.000 C 
ATOM     22  C   UNL     1      43.484   4.732  13.660  0.00  0.00    +0.000 C 
ATOM     23  C   UNL     1      43.120   3.045  11.853  0.00  0.00    +0.000 C 
ENDBRANCH  13  21
ENDBRANCH   1  13
TORSDOF 5
ENDMDL
MODEL 3
REMARK VINA RESULT:    -5.647      4.333      6.897
REMARK INTER + INTRA:          -8.006
REMARK INTER:                  -7.304
REMARK INTRA:                  -0.702
REMARK UNBOUND:                -0.709
REMARK  Name = 
REMARK  8 active torsions:
REMARK  status: ('A' for Active; 'I' for Inactive)
REMARK    1  A    between atoms: C_1  and  C_2
REMARK    2  A    between atoms: C_2  and  C_3
REMARK    3  A    between atoms: C_2  and  C_4
REMARK    4  A    between atoms: C_2  and  C_5
REMARK    5  A    between atoms: C_5  and  O_6
REMARK    6  A    between atoms: C_5  and  C_16
REMARK    7  A    between atoms: O_6  and  C_7
REMARK    8  A    between atoms: C_10  and  C_11
REMARK                            x       y       z     vdW  Elec       q    Type
REMARK                         _______ _______ _______ _____ _____    ______ ____
ROOT
ATOM      1  O   UNL     1      48.106   5.363  14.317  0.00  0.00    +0.000 OA
ENDROOT
BRANCH   1   2
ATOM      2  C   UNL     1      46.903   5.155  13.705  0.00  0.00    +0.000 A 
ATOM      3  C   UNL     1      46.024   6.124  13.238  0.00  0.00    +0.000 A 
ATOM      4  C   UNL     1      44.840   5.745  12.607  0.00  0.00    +0.000 A 
ATOM      5  C   UNL     1      44.552   4.395  12.461  0.00  0.00    +0.000 A 
ATOM      6  N   UNL     1      45.379   3.402  12.904  0.00  0.00    +0.000 NA
ATOM      7  C   UNL     1      46.529   3.821  13.508  0.00  0.00    +0.000 A 
BRANCH   5   8
ATOM      8  C   UNL     1      43.273   4.000  11.791  0.00  0.00    +0.000 C 
ATOM      9  N   UNL     1      42.308   4.963  11.704  0.00  0.00    +0.000 N 
ATOM     10  O   UNL     1      43.095   2.873  11.343  0.00  0.00    +0.000 OA
ATOM     11  H   UNL     1      42.482   5.890  12.071  0.00  0.00    +0.000 HD
ATOM     12  H   UNL     1      41.433   4.744  11.248  0.00  0.00    +0.000 HD
ENDBRANCH   5   8
ENDBRANCH   1   2
BRANCH   1  13
ATOM     13  C   UNL     1      48.216   6.265  15.443  0.00  0.00    +0.000 C 
BRANCH  13  14
ATOM     14  C   UNL     1      48.339   5.428  16.712  0.00  0.00    +0.000 A 
ATOM     15  C   UNL     1      48.642   4.063  16.634  0.00  0.00    +0.000 A 
ATOM     16  C   UNL     1      48.773   3.332  17.805  0.00  0.00    +0.000 A 
ATOM     17  N   UNL     1      48.625   3.856  19.040  0.00  0.00    +0.000 NA
ATOM     18  C   UNL     1      48.334   5.171  19.105  0.00  0.00    +0.000 A 
ATOM     19  C   UNL     1      48.184   5.984  17.990  0.00  0.00    +0.000 A 
ENDBRANCH  13  14
BRANCH  13  21
ATOM     20  C   UNL     1      49.631   7.423  13.662  0.00  0.00    +0.000 C 
ATOM     21  C   UNL     1      49.384   7.290  15.188  0.00  0.00    +0.000 C 
ATOM     22  C   UNL     1      50.694   6.852  15.867  0.00  0.00    +0.000 C 
ATOM     23  C   UNL     1      49.020   8.699  15.707  0.00  0.00    +0.000 C 
ENDBRANCH  13  21
ENDBRANCH   1  13
TORSDOF 5
ENDMDL
MODEL 4
REMARK VINA RESULT:    -5.516      4.083      6.402
REMARK INTER + INTRA:          -7.838
REMARK INTER:                  -7.131
REMARK INTRA:                  -0.707
REMARK UNBOUND:                -0.709
REMARK  Name = 
REMARK  8 active torsions:
REMARK  status: ('A' for Active; 'I' for Inactive)
REMARK    1  A    between atoms: C_1  and  C_2
REMARK    2  A    between atoms: C_2  and  C_3
REMARK    3  A    between atoms: C_2  and  C_4
REMARK    4  A    between atoms: C_2  and  C_5
REMARK    5  A    between atoms: C_5  and  O_6
REMARK    6  A    between atoms: C_5  and  C_16
REMARK    7  A    between atoms: O_6  and  C_7
REMARK    8  A    between atoms: C_10  and  C_11
REMARK                            x       y       z     vdW  Elec       q    Type
REMARK                         _______ _______ _______ _____ _____    ______ ____
ROOT
ATOM      1  O   UNL     1      48.437   6.228  13.356  0.00  0.00    +0.000 OA
ENDROOT
BRANCH   1   2
ATOM      2  C   UNL     1      47.282   5.644  12.922  0.00  0.00    +0.000 A 
ATOM      3  C   UNL     1      46.466   6.074  11.882  0.00  0.00    +0.000 A 
ATOM      4  C   UNL     1      45.328   5.345  11.542  0.00  0.00    +0.000 A 
ATOM      5  C   UNL     1      45.019   4.197  12.257  0.00  0.00    +0.000 A 
ATOM      6  N   UNL     1      45.784   3.731  13.290  0.00  0.00    +0.000 NA
ATOM      7  C   UNL     1      46.892   4.473  13.581  0.00  0.00    +0.000 A 
BRANCH   5   8
ATOM      8  C   UNL     1      43.789   3.427  11.890  0.00  0.00    +0.000 C 
ATOM      9  N   UNL     1      43.636   2.205  12.480  0.00  0.00    +0.000 N 
ATOM     10  O   UNL     1      42.959   3.865  11.101  0.00  0.00    +0.000 OA
ATOM     11  H   UNL     1      44.329   1.869  13.137  0.00  0.00    +0.000 HD
ATOM     12  H   UNL     1      42.814   1.657  12.272  0.00  0.00    +0.000 HD
ENDBRANCH   5   8
ENDBRANCH   1   2
BRANCH   1  13
ATOM     13  C   UNL     1      48.476   7.640  13.674  0.00  0.00    +0.000 C 
BRANCH  13  14
ATOM     14  C   UNL     1      48.584   7.783  15.189  0.00  0.00    +0.000 A 
ATOM     15  C   UNL     1      48.251   8.993  15.812  0.00  0.00    +0.000 A 
ATOM     16  C   UNL     1      48.334   9.086  17.193  0.00  0.00    +0.000 A 
ATOM     17  N   UNL     1      48.722   8.072  17.994  0.00  0.00    +0.000 NA
ATOM     18  C   UNL     1      49.040   6.912  17.385  0.00  0.00    +0.000 A 
ATOM     19  C   UNL     1      48.988   6.722  16.012  0.00  0.00    +0.000 A 
ENDBRANCH  13  14
BRANCH  13  21
ATOM     20  C   UNL     1      50.931   8.340  13.664  0.00  0.00    +0.000 C 
ATOM     21  C   UNL     1      49.615   8.338  12.842  0.00  0.00    +0.000 C 
ATOM     22  C   UNL     1      49.254   9.790  12.477  0.00  0.00    +0.000 C 
ATOM     23  C   UNL     1      49.907   7.571  11.533  0.00  0.00    +0.000 C 
ENDBRANCH  13  21
ENDBRANCH   1  13
TORSDOF 5
ENDMDL
MODEL 5
REMARK VINA RESULT:    -5.421      4.566      7.563
REMARK INTER + INTRA:          -7.715
REMARK INTER:                  -7.065
REMARK INTRA:                  -0.650
REMARK UNBOUND:                -0.709
REMARK  Name = 
REMARK  8 active torsions:
REMARK  status: ('A' for Active; 'I' for Inactive)
REMARK    1  A    between atoms: C_1  and  C_2
REMARK    2  A    between atoms: C_2  and  C_3
REMARK    3  A    between atoms: C_2  and  C_4
REMARK    4  A    between atoms: C_2  and  C_5
REMARK    5  A    between atoms: C_5  and  O_6
REMARK    6  A    between atoms: C_5  and  C_16
REMARK    7  A    between atoms: O_6  and  C_7
REMARK    8  A    between atoms: C_10  and  C_11
REMARK                            x       y       z     vdW  Elec       q    Type
REMARK                         _______ _______ _______ _____ _____    ______ ____
ROOT
ATOM      1  O   UNL     1      47.314   4.905  13.930  0.00  0.00    +0.000 OA
ENDROOT
BRANCH   1   2
ATOM      2  C   UNL     1      47.568   4.752  15.262  0.00  0.00    +0.000 A 
ATOM      3  C   UNL     1      47.162   3.702  16.076  0.00  0.00    +0.000 A 
ATOM      4  C   UNL     1      47.529   3.678  17.421  0.00  0.00    +0.000 A 
ATOM      5  C   UNL     1      48.295   4.717  17.932  0.00  0.00    +0.000 A 
ATOM      6  N   UNL     1      48.719   5.775  17.178  0.00  0.00    +0.000 NA
ATOM      7  C   UNL     1      48.341   5.750  15.866  0.00  0.00    +0.000 A 
BRANCH   5   8
ATOM      8  C   UNL     1      48.675   4.687  19.379  0.00  0.00    +0.000 C 
ATOM      9  N   UNL     1      48.408   3.531  20.056  0.00  0.00    +0.000 N 
ATOM     10  O   UNL     1      49.199   5.646  19.933  0.00  0.00    +0.000 OA
ATOM     11  H   UNL     1      47.984   2.748  19.574  0.00  0.00    +0.000 HD
ATOM     12  H   UNL     1      48.660   3.462  21.032  0.00  0.00    +0.000 HD
ENDBRANCH   5   8
ENDBRANCH   1   2
BRANCH   1  13
ATOM     13  C   UNL     1      46.228   5.748  13.477  0.00  0.00    +0.000 C 
BRANCH  13  14
ATOM     14  C   UNL     1      46.828   7.025  12.897  0.00  0.00    +0.000 A 
ATOM     15  C   UNL     1      46.125   8.234  12.967  0.00  0.00    +0.000 A 
ATOM     16  C   UNL     1      46.706   9.384  12.454  0.00  0.00    +0.000 A 
ATOM     17  N   UNL     1      47.927   9.419  11.879  0.00  0.00    +0.000 NA
ATOM     18  C   UNL     1      48.595   8.249  11.815  0.00  0.00    +0.000 A 
ATOM     19  C   UNL     1      48.097   7.049  12.301  0.00  0.00    +0.000 A 
ENDBRANCH  13  14
BRANCH  13  21
ATOM     20  C   UNL     1      43.811   5.167  12.897  0.00  0.00    +0.000 C 
ATOM     21  C   UNL     1      45.294   4.933  12.507  0.00  0.00    +0.000 C 
ATOM     22  C   UNL     1      45.589   3.422  12.559  0.00  0.00    +0.000 C 
ATOM     23  C   UNL     1      45.452   5.403  11.044  0.00  0.00    +0.000 C 
ENDBRANCH  13  21
ENDBRANCH   1  13
TORSDOF 5
ENDMDL
MODEL 6
REMARK VINA RESULT:    -5.337      3.476      5.768
REMARK INTER + INTRA:          -7.606
REMARK INTER:                  -6.973
REMARK INTRA:                  -0.633
REMARK UNBOUND:                -0.709
REMARK  Name = 
REMARK  8 active torsions:
REMARK  status: ('A' for Active; 'I' for Inactive)
REMARK    1  A    between atoms: C_1  and  C_2
REMARK    2  A    between atoms: C_2  and  C_3
REMARK    3  A    between atoms: C_2  and  C_4
REMARK    4  A    between atoms: C_2  and  C_5
REMARK    5  A    between atoms: C_5  and  O_6
REMARK    6  A    between atoms: C_5  and  C_16
REMARK    7  A    between atoms: O_6  and  C_7
REMARK    8  A    between atoms: C_10  and  C_11
REMARK                            x       y       z     vdW  Elec       q    Type
REMARK                         _______ _______ _______ _____ _____    ______ ____
ROOT
ATOM      1  O   UNL     1      47.174   7.153  13.630  0.00  0.00    +0.000 OA
ENDROOT
BRANCH   1   2
ATOM      2  C   UNL     1      46.456   6.245  12.905  0.00  0.00    +0.000 A 
ATOM      3  C   UNL     1      46.107   6.334  11.564  0.00  0.00    +0.000 A 
ATOM      4  C   UNL     1      45.390   5.303  10.959  0.00  0.00    +0.000 A 
ATOM      5  C   UNL     1      45.026   4.197  11.715  0.00  0.00    +0.000 A 
ATOM      6  N   UNL     1      45.339   4.060  13.038  0.00  0.00    +0.000 NA
ATOM      7  C   UNL     1      46.048   5.091  13.584  0.00  0.00    +0.000 A 
BRANCH   5   8
ATOM      8  C   UNL     1      44.247   3.100  11.059  0.00  0.00    +0.000 C 
ATOM      9  N   UNL     1      44.894   2.391  10.087  0.00  0.00    +0.000 N 
ATOM     10  O   UNL     1      43.090   2.847  11.373  0.00  0.00    +0.000 OA
ATOM     11  H   UNL     1      45.853   2.612   9.853  0.00  0.00    +0.000 HD
ATOM     12  H   UNL     1      44.411   1.633   9.626  0.00  0.00    +0.000 HD
ENDBRANCH   5   8
ENDBRANCH   1   2
BRANCH   1  13
ATOM     13  C   UNL     1      48.616   7.062  13.707  0.00  0.00    +0.000 C 
BRANCH  13  14
ATOM     14  C   UNL     1      49.209   8.084  12.742  0.00  0.00    +0.000 A 
ATOM     15  C   UNL     1      48.618   9.345  12.595  0.00  0.00    +0.000 A 
ATOM     16  C   UNL     1      49.193  10.263  11.729  0.00  0.00    +0.000 A 
ATOM     17  N   UNL     1      50.305  10.020  11.004  0.00  0.00    +0.000 NA
ATOM     18  C   UNL     1      50.866   8.803  11.152  0.00  0.00    +0.000 A 
ATOM     19  C   UNL     1      50.364   7.820  11.993  0.00  0.00    +0.000 A 
ENDBRANCH  13  14
BRANCH  13  21
ATOM     20  C   UNL     1      50.621   7.318  15.266  0.00  0.00    +0.000 C 
ATOM     21  C   UNL     1      49.076   7.195  15.207  0.00  0.00    +0.000 C 
ATOM     22  C   UNL     1      48.640   5.983  16.052  0.00  0.00    +0.000 C 
ATOM     23  C   UNL     1      48.499   8.471  15.861  0.00  0.00    +0.000 C 
ENDBRANCH  13  21
ENDBRANCH   1  13
TORSDOF 5
ENDMDL
MODEL 7
REMARK VINA RESULT:    -5.226      5.813      7.971
REMARK INTER + INTRA:          -7.463
REMARK INTER:                  -6.778
REMARK INTRA:                  -0.685
REMARK UNBOUND:                -0.709
REMARK  Name = 
REMARK  8 active torsions:
REMARK  status: ('A' for Active; 'I' for Inactive)
REMARK    1  A    between atoms: C_1  and  C_2
REMARK    2  A    between atoms: C_2  and  C_3
REMARK    3  A    between atoms: C_2  and  C_4
REMARK    4  A    between atoms: C_2  and  C_5
REMARK    5  A    between atoms: C_5  and  O_6
REMARK    6  A    between atoms: C_5  and  C_16
REMARK    7  A    between atoms: O_6  and  C_7
REMARK    8  A    between atoms: C_10  and  C_11
REMARK                            x       y       z     vdW  Elec       q    Type
REMARK                         _______ _______ _______ _____ _____    ______ ____
ROOT
ATOM      1  O   UNL     1      48.851   5.545  16.333  0.00  0.00    +0.000 OA
ENDROOT
BRANCH   1   2
ATOM      2  C   UNL     1      47.999   5.441  15.271  0.00  0.00    +0.000 A 
ATOM      3  C   UNL     1      47.916   6.294  14.179  0.00  0.00    +0.000 A 
ATOM      4  C   UNL     1      47.005   6.033  13.156  0.00  0.00    +0.000 A 
ATOM      5  C   UNL     1      46.183   4.918  13.250  0.00  0.00    +0.000 A 
ATOM      6  N   UNL     1      46.221   4.048  14.303  0.00  0.00    +0.000 NA
ATOM      7  C   UNL     1      47.134   4.341  15.275  0.00  0.00    +0.000 A 
BRANCH   5   8
ATOM      8  C   UNL     1      45.202   4.652  12.152  0.00  0.00    +0.000 C 
ATOM      9  N   UNL     1      44.424   3.536  12.287  0.00  0.00    +0.000 N 
ATOM     10  O   UNL     1      45.096   5.392  11.181  0.00  0.00    +0.000 OA
ATOM     11  H   UNL     1      44.522   2.947  13.104  0.00  0.00    +0.000 HD
ATOM     12  H   UNL     1      43.739   3.325  11.576  0.00  0.00    +0.000 HD
ENDBRANCH   5   8
ENDBRANCH   1   2
BRANCH   1  13
ATOM     13  C   UNL     1      48.732   4.652  17.466  0.00  0.00    +0.000 C 
BRANCH  13  14
ATOM     14  C   UNL     1      49.989   3.790  17.525  0.00  0.00    +0.000 A 
ATOM     15  C   UNL     1      49.906   2.404  17.339  0.00  0.00    +0.000 A 
ATOM     16  C   UNL     1      51.069   1.648  17.373  0.00  0.00    +0.000 A 
ATOM     17  N   UNL     1      52.298   2.166  17.577  0.00  0.00    +0.000 NA
ATOM     18  C   UNL     1      52.367   3.500  17.756  0.00  0.00    +0.000 A 
ATOM     19  C   UNL     1      51.261   4.339  17.738  0.00  0.00    +0.000 A 
ENDBRANCH  13  14
BRANCH  13  21
ATOM     20  C   UNL     1      46.884   5.698  18.881  0.00  0.00    +0.000 C 
ATOM     21  C   UNL     1      48.415   5.484  18.764  0.00  0.00    +0.000 C 
ATOM     22  C   UNL     1      49.110   6.859  18.750  0.00  0.00    +0.000 C 
ATOM     23  C   UNL     1      48.861   4.733  20.038  0.00  0.00    +0.000 C 
ENDBRANCH  13  21
ENDBRANCH   1  13
TORSDOF 5
ENDMDL
MODEL 8
REMARK VINA RESULT:    -5.178      3.530      5.503
REMARK INTER + INTRA:          -7.400
REMARK INTER:                  -6.806
REMARK INTRA:                  -0.594
REMARK UNBOUND:                -0.709
REMARK  Name = 
REMARK  8 active torsions:
REMARK  status: ('A' for Active; 'I' for Inactive)
REMARK    1  A    between atoms: C_1  and  C_2
REMARK    2  A    between atoms: C_2  and  C_3
REMARK    3  A    between atoms: C_2  and  C_4
REMARK    4  A    between atoms: C_2  and  C_5
REMARK    5  A    between atoms: C_5  and  O_6
REMARK    6  A    between atoms: C_5  and  C_16
REMARK    7  A    between atoms: O_6  and  C_7
REMARK    8  A    between atoms: C_10  and  C_11
REMARK                            x       y       z     vdW  Elec       q    Type
REMARK                         _______ _______ _______ _____ _____    ______ ____
ROOT
ATOM      1  O   UNL     1      46.685   7.405  13.367  0.00  0.00    +0.000 OA
ENDROOT
BRANCH   1   2
ATOM      2  C   UNL     1      46.079   6.393  12.678  0.00  0.00    +0.000 A 
ATOM      3  C   UNL     1      45.764   6.374  11.326  0.00  0.00    +0.000 A 
ATOM      4  C   UNL     1      45.167   5.246  10.764  0.00  0.00    +0.000 A 
ATOM      5  C   UNL     1      44.888   4.153  11.573  0.00  0.00    +0.000 A 
ATOM      6  N   UNL     1      45.175   4.120  12.910  0.00  0.00    +0.000 NA
ATOM      7  C   UNL     1      45.765   5.244  13.412  0.00  0.00    +0.000 A 
BRANCH   5   8
ATOM      8  C   UNL     1      44.239   2.951  10.963  0.00  0.00    +0.000 C 
ATOM      9  N   UNL     1      43.359   2.266  11.754  0.00  0.00    +0.000 N 
ATOM     10  O   UNL     1      44.479   2.594   9.816  0.00  0.00    +0.000 OA
ATOM     11  H   UNL     1      43.169   2.587  12.695  0.00  0.00    +0.000 HD
ATOM     12  H   UNL     1      42.887   1.456  11.379  0.00  0.00    +0.000 HD
ENDBRANCH   5   8
ENDBRANCH   1   2
BRANCH   1  13
ATOM     13  C   UNL     1      48.033   7.817  13.040  0.00  0.00    +0.000 C 
BRANCH  13  14
ATOM     14  C   UNL     1      47.954   9.125  12.260  0.00  0.00    +0.000 A 
ATOM     15  C   UNL     1      49.074   9.607  11.570  0.00  0.00    +0.000 A 
ATOM     16  C   UNL     1      48.966  10.786  10.847  0.00  0.00    +0.000 A 
ATOM     17  N   UNL     1      47.834  11.516  10.763  0.00  0.00    +0.000 NA
ATOM     18  C   UNL     1      46.762  11.044  11.431  0.00  0.00    +0.000 A 
ATOM     19  C   UNL     1      46.773   9.875  12.178  0.00  0.00    +0.000 A 
ENDBRANCH  13  14
BRANCH  13  21
ATOM     20  C   UNL     1      48.641   6.579  15.188  0.00  0.00    +0.000 C 
ATOM     21  C   UNL     1      48.906   7.857  14.350  0.00  0.00    +0.000 C 
ATOM     22  C   UNL     1      48.591   9.092  15.214  0.00  0.00    +0.000 C 
ATOM     23  C   UNL     1      50.415   7.872  14.021  0.00  0.00    +0.000 C 
ENDBRANCH  13  21
ENDBRANCH   1  13
TORSDOF 5
ENDMDL
MODEL 9
REMARK VINA RESULT:    -4.719      4.065      6.693
REMARK INTER + INTRA:          -6.807
REMARK INTER:                  -5.996
REMARK INTRA:                  -0.811
REMARK UNBOUND:                -0.709
REMARK  Name = 
REMARK  8 active torsions:
REMARK  status: ('A' for Active; 'I' for Inactive)
REMARK    1  A    between atoms: C_1  and  C_2
REMARK    2  A    between atoms: C_2  and  C_3
REMARK    3  A    between atoms: C_2  and  C_4
REMARK    4  A    between atoms: C_2  and  C_5
REMARK    5  A    between atoms: C_5  and  O_6
REMARK    6  A    between atoms: C_5  and  C_16
REMARK    7  A    between atoms: O_6  and  C_7
REMARK    8  A    between atoms: C_10  and  C_11
REMARK                            x       y       z     vdW  Elec       q    Type
REMARK                         _______ _______ _______ _____ _____    ______ ____
ROOT
ATOM      1  O   UNL     1      47.982   8.514  12.621  0.00  0.00    +0.000 OA
ENDROOT
BRANCH   1   2
ATOM      2  C   UNL     1      46.930   7.721  12.262  0.00  0.00    +0.000 A 
ATOM      3  C   UNL     1      46.934   6.339  12.122  0.00  0.00    +0.000 A 
ATOM      4  C   UNL     1      45.762   5.669  11.773  0.00  0.00    +0.000 A 
ATOM      5  C   UNL     1      44.601   6.401  11.562  0.00  0.00    +0.000 A 
ATOM      6  N   UNL     1      44.542   7.761  11.683  0.00  0.00    +0.000 NA
ATOM      7  C   UNL     1      45.712   8.371  12.033  0.00  0.00    +0.000 A 
BRANCH   5   8
ATOM      8  C   UNL     1      43.351   5.674  11.178  0.00  0.00    +0.000 C 
ATOM      9  N   UNL     1      42.181   6.160  11.691  0.00  0.00    +0.000 N 
ATOM     10  O   UNL     1      43.368   4.693  10.443  0.00  0.00    +0.000 OA
ATOM     11  H   UNL     1      42.191   6.978  12.287  0.00  0.00    +0.000 HD
ATOM     12  H   UNL     1      41.311   5.708  11.448  0.00  0.00    +0.000 HD
ENDBRANCH   5   8
ENDBRANCH   1   2
BRANCH   1  13
ATOM     13  C   UNL     1      49.296   7.946  12.833  0.00  0.00    +0.000 C 
BRANCH  13  14
ATOM     14  C   UNL     1      50.259   8.595  11.844  0.00  0.00    +0.000 A 
ATOM     15  C   UNL     1      50.194   9.971  11.590  0.00  0.00    +0.000 A 
ATOM     16  C   UNL     1      51.099  10.538  10.706  0.00  0.00    +0.000 A 
ATOM     17  N   UNL     1      52.057   9.842  10.059  0.00  0.00    +0.000 NA
ATOM     18  C   UNL     1      52.111   8.518  10.309  0.00  0.00    +0.000 A 
ATOM     19  C   UNL     1      51.251   7.861  11.177  0.00  0.00    +0.000 A 
ENDBRANCH  13  14
BRANCH  13  21
ATOM     20  C   UNL     1      49.059   9.364  14.942  0.00  0.00    +0.000 C 
ATOM     21  C   UNL     1      49.690   8.076  14.352  0.00  0.00    +0.000 C 
ATOM     22  C   UNL     1      51.216   8.135  14.548  0.00  0.00    +0.000 C 
ATOM     23  C   UNL     1      49.145   6.890  15.178  0.00  0.00    +0.000 C 
ENDBRANCH  13  21
ENDBRANCH   1  13
TORSDOF 5
ENDMDL
