MODEL 1
REMARK VINA RESULT:    -8.816      0.000      0.000
REMARK INTER + INTRA:         -11.524
REMARK INTER:                 -10.877
REMARK INTRA:                  -0.647
REMARK UNBOUND:                -0.647
REMARK  Name = 
REMARK  4 active torsions:
REMARK  status: ('A' for Active; 'I' for Inactive)
REMARK    1  A    between atoms: C_2  and  C_4
REMARK    2  A    between atoms: N_8  and  C_9
REMARK    3  A    between atoms: C_9  and  C_10
REMARK    4  A    between atoms: C_12  and  C_13
REMARK                            x       y       z     vdW  Elec       q    Type
REMARK                         _______ _______ _______ _____ _____    ______ ____
ROOT
ATOM      1  C   UNL     1      46.407   2.279   7.634  0.00  0.00    +0.000 A 
ATOM      2  C   UNL     1      45.738   1.841   8.772  0.00  0.00    +0.000 A 
ATOM      3  C   UNL     1      44.864   2.713   9.422  0.00  0.00    +0.000 A 
ATOM      4  C   UNL     1      44.690   4.006   8.938  0.00  0.00    +0.000 A 
ATOM      5  N   UNL     1      43.799   4.911   9.474  0.00  0.00    +0.000 N 
ATOM      6  N   UNL     1      45.350   4.445   7.850  0.00  0.00    +0.000 NA
ATOM      7  C   UNL     1      46.197   3.585   7.226  0.00  0.00    +0.000 A 
ATOM      8  H   UNL     1      43.970   5.819   9.053  0.00  0.00    +0.000 HD
ENDROOT
BRANCH   1  10
ATOM      9  N   UNL     1      48.483   1.987   6.416  0.00  0.00    +0.000 N 
ATOM     10  C   UNL     1      47.326   1.417   6.865  0.00  0.00    +0.000 C 
ATOM     11  O   UNL     1      47.076   0.237   6.667  0.00  0.00    +0.000 OA
ATOM     12  H   UNL     1      49.152   1.360   5.983  0.00  0.00    +0.000 HD
ATOM     13  H   UNL     1      48.834   2.864   6.775  0.00  0.00    +0.000 HD
ENDBRANCH   1  10
BRANCH   5  14
ATOM     14  C   UNL     1      43.493   4.910  10.897  0.00  0.00    +0.000 C 
BRANCH  14  15
ATOM     15  C   UNL     1      44.555   5.628  11.715  0.00  0.00    +0.000 A 
ATOM     16  C   UNL     1      45.319   4.929  12.653  0.00  0.00    +0.000 A 
ATOM     17  C   UNL     1      46.293   5.587  13.416  0.00  0.00    +0.000 A 
ATOM     18  C   UNL     1      46.442   6.963  13.195  0.00  0.00    +0.000 A 
ATOM     19  C   UNL     1      45.634   7.593  12.261  0.00  0.00    +0.000 A 
ATOM     20  N   UNL     1      44.701   6.959  11.519  0.00  0.00    +0.000 NA
BRANCH  17  21
ATOM     21  C   UNL     1      47.085   4.861  14.422  0.00  0.00    +0.000 A 
ATOM     22  C   UNL     1      47.164   3.476  14.487  0.00  0.00    +0.000 A 
ATOM     23  N   UNL     1      47.837   2.782  15.432  0.00  0.00    +0.000 NA
ATOM     24  C   UNL     1      48.469   3.521  16.354  0.00  0.00    +0.000 A 
ATOM     25  N   UNL     1      48.497   4.858  16.399  0.00  0.00    +0.000 NA
ATOM     26  C   UNL     1      47.801   5.490  15.431  0.00  0.00    +0.000 A 
ENDBRANCH  17  21
ENDBRANCH  14  15
ENDBRANCH   5  14
TORSDOF 4
ENDMDL
MODEL 2
REMARK VINA RESULT:    -8.722      1.977      3.358
REMARK INTER + INTRA:         -11.409
REMARK INTER:                 -10.852
REMARK INTRA:                  -0.557
REMARK UNBOUND:                -0.647
REMARK  Name = 
REMARK  4 active torsions:
REMARK  status: ('A' for Active; 'I' for Inactive)
REMARK    1  A    between atoms: C_2  and  C_4
REMARK    2  A    between atoms: N_8  and  C_9
REMARK    3  A    between atoms: C_9  and  C_10
REMARK    4  A    between atoms: C_12  and  C_13
REMARK                            x       y       z     vdW  Elec       q    Type
REMARK                         _______ _______ _______ _____ _____    ______ ____
ROOT
ATOM      1  C   UNL     1      46.352   2.239   7.679  0.00  0.00    +0.000 A 
ATOM      2  C   UNL     1      45.653   1.755   8.780  0.00  0.00    +0.000 A 
ATOM      3  C   UNL     1      44.806   2.617   9.478  0.00  0.00    +0.000 A 
ATOM      4  C   UNL     1      44.689   3.944   9.079  0.00  0.00    +0.000 A 
ATOM      5  N   UNL     1      43.828   4.847   9.664  0.00  0.00    +0.000 N 
ATOM      6  N   UNL     1      45.377   4.426   8.027  0.00  0.00    +0.000 NA
ATOM      7  C   UNL     1      46.198   3.576   7.356  0.00  0.00    +0.000 A 
ATOM      8  H   UNL     1      44.039   5.772   9.305  0.00  0.00    +0.000 HD
ENDROOT
BRANCH   1  10
ATOM      9  N   UNL     1      48.268   2.020   6.210  0.00  0.00    +0.000 N 
ATOM     10  C   UNL     1      47.245   1.393   6.863  0.00  0.00    +0.000 C 
ATOM     11  O   UNL     1      47.095   0.182   6.803  0.00  0.00    +0.000 OA
ATOM     12  H   UNL     1      48.934   1.417   5.741  0.00  0.00    +0.000 HD
ATOM     13  H   UNL     1      48.570   2.955   6.441  0.00  0.00    +0.000 HD
ENDBRANCH   1  10
BRANCH   5  14
ATOM     14  C   UNL     1      43.505   4.765  11.082  0.00  0.00    +0.000 C 
BRANCH  14  15
ATOM     15  C   UNL     1      44.707   5.065  11.964  0.00  0.00    +0.000 A 
ATOM     16  C   UNL     1      45.485   6.204  11.736  0.00  0.00    +0.000 A 
ATOM     17  C   UNL     1      46.600   6.481  12.539  0.00  0.00    +0.000 A 
ATOM     18  C   UNL     1      46.887   5.560  13.556  0.00  0.00    +0.000 A 
ATOM     19  C   UNL     1      46.081   4.443  13.710  0.00  0.00    +0.000 A 
ATOM     20  N   UNL     1      45.002   4.178  12.943  0.00  0.00    +0.000 NA
BRANCH  17  21
ATOM     21  C   UNL     1      47.438   7.665  12.289  0.00  0.00    +0.000 A 
ATOM     22  C   UNL     1      47.005   8.970  12.488  0.00  0.00    +0.000 A 
ATOM     23  N   UNL     1      47.732  10.076  12.214  0.00  0.00    +0.000 NA
ATOM     24  C   UNL     1      48.959   9.858  11.724  0.00  0.00    +0.000 A 
ATOM     25  N   UNL     1      49.511   8.659  11.506  0.00  0.00    +0.000 NA
ATOM     26  C   UNL     1      48.731   7.595  11.794  0.00  0.00    +0.000 A 
ENDBRANCH  17  21
ENDBRANCH  14  15
ENDBRANCH   5  14
TORSDOF 4
ENDMDL
MODEL 3
REMARK VINA RESULT:    -7.578      1.724      2.419
REMARK INTER + INTRA:          -9.997
REMARK INTER:                  -9.718
REMARK INTRA:                  -0.279
REMARK UNBOUND:                -0.647
REMARK  Name = 
REMARK  4 active torsions:
REMARK  status: ('A' for Active; 'I' for Inactive)
REMARK    1  A    between atoms: C_2  and  C_4
REMARK    2  A    between atoms: N_8  and  C_9
REMARK    3  A    between atoms: C_9  and  C_10
REMARK    4  A    between atoms: C_12  and  C_13
REMARK                            x       y       z     vdW  Elec       q    Type
REMARK                         _______ _______ _______ _____ _____    ______ ____
ROOT
ATOM      1  C   UNL     1      46.664   2.507   7.164  0.00  0.00    +0.000 A 
ATOM      2  C   UNL     1      46.124   3.722   7.574  0.00  0.00    +0.000 A 
ATOM      3  C   UNL     1      45.386   3.771   8.757  0.00  0.00    +0.000 A 
ATOM      4  C   UNL     1      45.185   2.609   9.495  0.00  0.00    +0.000 A 
ATOM      5  N   UNL     1      44.529   2.576  10.707  0.00  0.00    +0.000 N 
ATOM      6  N   UNL     1      45.686   1.426   9.095  0.00  0.00    +0.000 NA
ATOM      7  C   UNL     1      46.403   1.392   7.941  0.00  0.00    +0.000 A 
ATOM      8  H   UNL     1      44.377   1.606  10.963  0.00  0.00    +0.000 HD
ENDROOT
BRANCH   1  10
ATOM      9  N   UNL     1      47.260   3.265   4.939  0.00  0.00    +0.000 N 
ATOM     10  C   UNL     1      47.483   2.367   5.944  0.00  0.00    +0.000 C 
ATOM     11  O   UNL     1      48.344   1.505   5.851  0.00  0.00    +0.000 OA
ATOM     12  H   UNL     1      47.899   3.224   4.154  0.00  0.00    +0.000 HD
ATOM     13  H   UNL     1      46.753   4.127   5.082  0.00  0.00    +0.000 HD
ENDBRANCH   1  10
BRANCH   5  14
ATOM     14  C   UNL     1      43.439   3.497  10.996  0.00  0.00    +0.000 C 
BRANCH  14  15
ATOM     15  C   UNL     1      43.939   4.892  11.335  0.00  0.00    +0.000 A 
ATOM     16  C   UNL     1      45.098   5.063  12.096  0.00  0.00    +0.000 A 
ATOM     17  C   UNL     1      45.558   6.347  12.420  0.00  0.00    +0.000 A 
ATOM     18  C   UNL     1      44.795   7.425  11.954  0.00  0.00    +0.000 A 
ATOM     19  C   UNL     1      43.645   7.178  11.220  0.00  0.00    +0.000 A 
ATOM     20  N   UNL     1      43.204   5.943  10.900  0.00  0.00    +0.000 NA
BRANCH  17  21
ATOM     21  C   UNL     1      46.765   6.534  13.242  0.00  0.00    +0.000 A 
ATOM     22  C   UNL     1      47.591   7.648  13.156  0.00  0.00    +0.000 A 
ATOM     23  N   UNL     1      48.734   7.819  13.856  0.00  0.00    +0.000 NA
ATOM     24  C   UNL     1      49.058   6.824  14.692  0.00  0.00    +0.000 A 
ATOM     25  N   UNL     1      48.345   5.709  14.893  0.00  0.00    +0.000 NA
ATOM     26  C   UNL     1      47.218   5.596  14.158  0.00  0.00    +0.000 A 
ENDBRANCH  17  21
ENDBRANCH  14  15
ENDBRANCH   5  14
TORSDOF 4
ENDMDL
MODEL 4
REMARK VINA RESULT:    -7.554      2.333      4.664
REMARK INTER + INTRA:          -9.967
REMARK INTER:                  -9.531
REMARK INTRA:                  -0.435
REMARK UNBOUND:                -0.647
REMARK  Name = 
REMARK  4 active torsions:
REMARK  status: ('A' for Active; 'I' for Inactive)
REMARK    1  A    between atoms: C_2  and  C_4
REMARK    2  A    between atoms: N_8  and  C_9
REMARK    3  A    between atoms: C_9  and  C_10
REMARK    4  A    between atoms: C_12  and  C_13
REMARK                            x       y       z     vdW  Elec       q    Type
REMARK                         _______ _______ _______ _____ _____    ______ ____
ROOT
ATOM      1  C   UNL     1      46.662   2.575   7.262  0.00  0.00    +0.000 A 
ATOM      2  C   UNL     1      46.386   3.852   7.738  0.00  0.00    +0.000 A 
ATOM      3  C   UNL     1      45.617   3.994   8.894  0.00  0.00    +0.000 A 
ATOM      4  C   UNL     1      45.125   2.865   9.539  0.00  0.00    +0.000 A 
ATOM      5  N   UNL     1      44.417   2.906  10.721  0.00  0.00    +0.000 N 
ATOM      6  N   UNL     1      45.370   1.625   9.075  0.00  0.00    +0.000 NA
ATOM      7  C   UNL     1      46.120   1.502   7.949  0.00  0.00    +0.000 A 
ATOM      8  H   UNL     1      44.039   1.981  10.902  0.00  0.00    +0.000 HD
ENDROOT
BRANCH   1  10
ATOM      9  N   UNL     1      47.368   3.212   5.032  0.00  0.00    +0.000 N 
ATOM     10  C   UNL     1      47.491   2.328   6.066  0.00  0.00    +0.000 C 
ATOM     11  O   UNL     1      48.276   1.393   6.018  0.00  0.00    +0.000 OA
ATOM     12  H   UNL     1      48.017   3.093   4.263  0.00  0.00    +0.000 HD
ATOM     13  H   UNL     1      46.935   4.118   5.139  0.00  0.00    +0.000 HD
ENDBRANCH   1  10
BRANCH   5  14
ATOM     14  C   UNL     1      43.545   4.029  11.035  0.00  0.00    +0.000 C 
BRANCH  14  15
ATOM     15  C   UNL     1      44.298   5.174  11.694  0.00  0.00    +0.000 A 
ATOM     16  C   UNL     1      44.051   6.496  11.314  0.00  0.00    +0.000 A 
ATOM     17  C   UNL     1      44.748   7.555  11.911  0.00  0.00    +0.000 A 
ATOM     18  C   UNL     1      45.696   7.214  12.884  0.00  0.00    +0.000 A 
ATOM     19  C   UNL     1      45.902   5.878  13.197  0.00  0.00    +0.000 A 
ATOM     20  N   UNL     1      45.225   4.858  12.629  0.00  0.00    +0.000 NA
BRANCH  17  21
ATOM     21  C   UNL     1      44.510   8.947  11.498  0.00  0.00    +0.000 A 
ATOM     22  C   UNL     1      43.495   9.330  10.629  0.00  0.00    +0.000 A 
ATOM     23  N   UNL     1      43.287  10.591  10.189  0.00  0.00    +0.000 NA
ATOM     24  C   UNL     1      44.139  11.515  10.653  0.00  0.00    +0.000 A 
ATOM     25  N   UNL     1      45.143  11.293  11.509  0.00  0.00    +0.000 NA
ATOM     26  C   UNL     1      45.301  10.012  11.905  0.00  0.00    +0.000 A 
ENDBRANCH  17  21
ENDBRANCH  14  15
ENDBRANCH   5  14
TORSDOF 4
ENDMDL
MODEL 5
REMARK VINA RESULT:    -7.367      1.968      2.301
REMARK INTER + INTRA:          -9.737
REMARK INTER:                  -9.292
REMARK INTRA:                  -0.445
REMARK UNBOUND:                -0.647
REMARK  Name = 
REMARK  4 active torsions:
REMARK  status: ('A' for Active; 'I' for Inactive)
REMARK    1  A    between atoms: C_2  and  C_4
REMARK    2  A    between atoms: N_8  and  C_9
REMARK    3  A    between atoms: C_9  and  C_10
REMARK    4  A    between atoms: C_12  and  C_13
REMARK                            x       y       z     vdW  Elec       q    Type
REMARK                         _______ _______ _______ _____ _____    ______ ____
ROOT
ATOM      1  C   UNL     1      46.371   2.060   7.915  0.00  0.00    +0.000 A 
ATOM      2  C   UNL     1      45.580   1.890   9.047  0.00  0.00    +0.000 A 
ATOM      3  C   UNL     1      45.014   3.012   9.653  0.00  0.00    +0.000 A 
ATOM      4  C   UNL     1      45.262   4.278   9.133  0.00  0.00    +0.000 A 
ATOM      5  N   UNL     1      44.692   5.433   9.623  0.00  0.00    +0.000 N 
ATOM      6  N   UNL     1      46.043   4.454   8.050  0.00  0.00    +0.000 NA
ATOM      7  C   UNL     1      46.588   3.352   7.469  0.00  0.00    +0.000 A 
ATOM      8  H   UNL     1      45.146   6.228   9.183  0.00  0.00    +0.000 HD
ENDROOT
BRANCH   1  10
ATOM      9  N   UNL     1      46.780  -0.320   7.703  0.00  0.00    +0.000 N 
ATOM     10  C   UNL     1      46.985   0.930   7.191  0.00  0.00    +0.000 C 
ATOM     11  O   UNL     1      47.621   1.103   6.162  0.00  0.00    +0.000 OA
ATOM     12  H   UNL     1      47.116  -1.094   7.141  0.00  0.00    +0.000 HD
ATOM     13  H   UNL     1      46.063  -0.519   8.385  0.00  0.00    +0.000 HD
ENDBRANCH   1  10
BRANCH   5  14
ATOM     14  C   UNL     1      44.378   5.573  11.038  0.00  0.00    +0.000 C 
BRANCH  14  15
ATOM     15  C   UNL     1      44.989   6.828  11.641  0.00  0.00    +0.000 A 
ATOM     16  C   UNL     1      46.089   6.739  12.498  0.00  0.00    +0.000 A 
ATOM     17  C   UNL     1      46.651   7.892  13.065  0.00  0.00    +0.000 A 
ATOM     18  C   UNL     1      46.047   9.112  12.735  0.00  0.00    +0.000 A 
ATOM     19  C   UNL     1      44.946   9.122  11.893  0.00  0.00    +0.000 A 
ATOM     20  N   UNL     1      44.409   8.014  11.340  0.00  0.00    +0.000 NA
BRANCH  17  21
ATOM     21  C   UNL     1      47.794   7.802  13.987  0.00  0.00    +0.000 A 
ATOM     22  C   UNL     1      48.669   6.723  14.027  0.00  0.00    +0.000 A 
ATOM     23  N   UNL     1      49.692   6.588  14.899  0.00  0.00    +0.000 NA
ATOM     24  C   UNL     1      49.849   7.594  15.770  0.00  0.00    +0.000 A 
ATOM     25  N   UNL     1      49.098   8.701  15.829  0.00  0.00    +0.000 NA
ATOM     26  C   UNL     1      48.089   8.771  14.935  0.00  0.00    +0.000 A 
ENDBRANCH  17  21
ENDBRANCH  14  15
ENDBRANCH   5  14
TORSDOF 4
ENDMDL
MODEL 6
REMARK VINA RESULT:    -7.213      3.314      6.879
REMARK INTER + INTRA:          -9.547
REMARK INTER:                  -8.903
REMARK INTRA:                  -0.644
REMARK UNBOUND:                -0.647
REMARK  Name = 
REMARK  4 active torsions:
REMARK  status: ('A' for Active; 'I' for Inactive)
REMARK    1  A    between atoms: C_2  and  C_4
REMARK    2  A    between atoms: N_8  and  C_9
REMARK    3  A    between atoms: C_9  and  C_10
REMARK    4  A    between atoms: C_12  and  C_13
REMARK                            x       y       z     vdW  Elec       q    Type
REMARK                         _______ _______ _______ _____ _____    ______ ____
ROOT
ATOM      1  C   UNL     1      49.160   7.908  12.176  0.00  0.00    +0.000 A 
ATOM      2  C   UNL     1      47.919   8.420  11.809  0.00  0.00    +0.000 A 
ATOM      3  C   UNL     1      46.763   7.777  12.251  0.00  0.00    +0.000 A 
ATOM      4  C   UNL     1      46.865   6.628  13.029  0.00  0.00    +0.000 A 
ATOM      5  N   UNL     1      45.781   5.967  13.565  0.00  0.00    +0.000 N 
ATOM      6  N   UNL     1      48.061   6.114  13.372  0.00  0.00    +0.000 NA
ATOM      7  C   UNL     1      49.179   6.751  12.935  0.00  0.00    +0.000 A 
ATOM      8  H   UNL     1      46.101   5.086  13.954  0.00  0.00    +0.000 HD
ENDROOT
BRANCH   1  10
ATOM      9  N   UNL     1      51.584   7.911  12.167  0.00  0.00    +0.000 N 
ATOM     10  C   UNL     1      50.434   8.539  11.781  0.00  0.00    +0.000 C 
ATOM     11  O   UNL     1      50.458   9.561  11.111  0.00  0.00    +0.000 OA
ATOM     12  H   UNL     1      52.447   8.295  11.801  0.00  0.00    +0.000 HD
ATOM     13  H   UNL     1      51.601   6.953  12.487  0.00  0.00    +0.000 HD
ENDBRANCH   1  10
BRANCH   5  14
ATOM     14  C   UNL     1      44.502   5.937  12.870  0.00  0.00    +0.000 C 
BRANCH  14  15
ATOM     15  C   UNL     1      44.320   4.666  12.056  0.00  0.00    +0.000 A 
ATOM     16  C   UNL     1      45.013   4.488  10.856  0.00  0.00    +0.000 A 
ATOM     17  C   UNL     1      44.842   3.323  10.096  0.00  0.00    +0.000 A 
ATOM     18  C   UNL     1      43.943   2.372  10.596  0.00  0.00    +0.000 A 
ATOM     19  C   UNL     1      43.276   2.626  11.785  0.00  0.00    +0.000 A 
ATOM     20  N   UNL     1      43.445   3.743  12.523  0.00  0.00    +0.000 NA
BRANCH  17  21
ATOM     21  C   UNL     1      45.552   3.141   8.819  0.00  0.00    +0.000 A 
ATOM     22  C   UNL     1      45.995   1.909   8.354  0.00  0.00    +0.000 A 
ATOM     23  N   UNL     1      46.697   1.719   7.214  0.00  0.00    +0.000 NA
ATOM     24  C   UNL     1      46.959   2.824   6.503  0.00  0.00    +0.000 A 
ATOM     25  N   UNL     1      46.574   4.066   6.819  0.00  0.00    +0.000 NA
ATOM     26  C   UNL     1      45.882   4.188   7.972  0.00  0.00    +0.000 A 
ENDBRANCH  17  21
ENDBRANCH  14  15
ENDBRANCH   5  14
TORSDOF 4
ENDMDL
MODEL 7
REMARK VINA RESULT:    -7.137      2.905      7.108
REMARK INTER + INTRA:          -9.453
REMARK INTER:                  -9.254
REMARK INTRA:                  -0.198
REMARK UNBOUND:                -0.647
REMARK  Name = 
REMARK  4 active torsions:
REMARK  status: ('A' for Active; 'I' for Inactive)
REMARK    1  A    between atoms: C_2  and  C_4
REMARK    2  A    between atoms: N_8  and  C_9
REMARK    3  A    between atoms: C_9  and  C_10
REMARK    4  A    between atoms: C_12  and  C_13
REMARK                            x       y       z     vdW  Elec       q    Type
REMARK                         _______ _______ _______ _____ _____    ______ ____
ROOT
ATOM      1  C   UNL     1      47.558   7.030  13.757  0.00  0.00    +0.000 A 
ATOM      2  C   UNL     1      46.866   5.839  13.564  0.00  0.00    +0.000 A 
ATOM      3  C   UNL     1      45.825   5.802  12.636  0.00  0.00    +0.000 A 
ATOM      4  C   UNL     1      45.484   6.953  11.934  0.00  0.00    +0.000 A 
ATOM      5  N   UNL     1      44.518   6.993  10.951  0.00  0.00    +0.000 N 
ATOM      6  N   UNL     1      46.134   8.116  12.129  0.00  0.00    +0.000 NA
ATOM      7  C   UNL     1      47.146   8.138  13.036  0.00  0.00    +0.000 A 
ATOM      8  H   UNL     1      44.348   7.964  10.707  0.00  0.00    +0.000 HD
ENDROOT
BRANCH   1  10
ATOM      9  N   UNL     1      48.391   7.427  15.999  0.00  0.00    +0.000 N 
ATOM     10  C   UNL     1      48.691   7.155  14.694  0.00  0.00    +0.000 C 
ATOM     11  O   UNL     1      49.844   6.989  14.325  0.00  0.00    +0.000 OA
ATOM     12  H   UNL     1      49.167   7.405  16.650  0.00  0.00    +0.000 HD
ATOM     13  H   UNL     1      47.462   7.314  16.379  0.00  0.00    +0.000 HD
ENDBRANCH   1  10
BRANCH   5  14
ATOM     14  C   UNL     1      43.346   6.131  11.015  0.00  0.00    +0.000 C 
BRANCH  14  15
ATOM     15  C   UNL     1      43.679   4.683  10.690  0.00  0.00    +0.000 A 
ATOM     16  C   UNL     1      44.549   4.375   9.641  0.00  0.00    +0.000 A 
ATOM     17  C   UNL     1      44.852   3.041   9.331  0.00  0.00    +0.000 A 
ATOM     18  C   UNL     1      44.234   2.058  10.113  0.00  0.00    +0.000 A 
ATOM     19  C   UNL     1      43.366   2.439  11.127  0.00  0.00    +0.000 A 
ATOM     20  N   UNL     1      43.080   3.722  11.432  0.00  0.00    +0.000 NA
BRANCH  17  21
ATOM     21  C   UNL     1      45.748   2.710   8.212  0.00  0.00    +0.000 A 
ATOM     22  C   UNL     1      46.038   3.584   7.172  0.00  0.00    +0.000 A 
ATOM     23  N   UNL     1      46.811   3.287   6.104  0.00  0.00    +0.000 NA
ATOM     24  C   UNL     1      47.326   2.051   6.086  0.00  0.00    +0.000 A 
ATOM     25  N   UNL     1      47.151   1.117   7.029  0.00  0.00    +0.000 NA
ATOM     26  C   UNL     1      46.363   1.475   8.066  0.00  0.00    +0.000 A 
ENDBRANCH  17  21
ENDBRANCH  14  15
ENDBRANCH   5  14
TORSDOF 4
ENDMDL
MODEL 8
REMARK VINA RESULT:    -7.123      2.747      7.396
REMARK INTER + INTRA:          -9.436
REMARK INTER:                  -9.192
REMARK INTRA:                  -0.244
REMARK UNBOUND:                -0.647
REMARK  Name = 
REMARK  4 active torsions:
REMARK  status: ('A' for Active; 'I' for Inactive)
REMARK    1  A    between atoms: C_2  and  C_4
REMARK    2  A    between atoms: N_8  and  C_9
REMARK    3  A    between atoms: C_9  and  C_10
REMARK    4  A    between atoms: C_12  and  C_13
REMARK                            x       y       z     vdW  Elec       q    Type
REMARK                         _______ _______ _______ _____ _____    ______ ____
ROOT
ATOM      1  C   UNL     1      47.785   5.180  15.429  0.00  0.00    +0.000 A 
ATOM      2  C   UNL     1      46.772   4.441  14.826  0.00  0.00    +0.000 A 
ATOM      3  C   UNL     1      46.230   4.890  13.622  0.00  0.00    +0.000 A 
ATOM      4  C   UNL     1      46.692   6.072  13.054  0.00  0.00    +0.000 A 
ATOM      5  N   UNL     1      46.265   6.555  11.836  0.00  0.00    +0.000 N 
ATOM      6  N   UNL     1      47.658   6.805  13.640  0.00  0.00    +0.000 NA
ATOM      7  C   UNL     1      48.178   6.355  14.813  0.00  0.00    +0.000 A 
ATOM      8  H   UNL     1      46.627   7.496  11.718  0.00  0.00    +0.000 HD
ENDROOT
BRANCH   1  10
ATOM      9  N   UNL     1      47.624   4.484  17.746  0.00  0.00    +0.000 N 
ATOM     10  C   UNL     1      48.438   4.766  16.686  0.00  0.00    +0.000 C 
ATOM     11  O   UNL     1      49.652   4.649  16.765  0.00  0.00    +0.000 OA
ATOM     12  H   UNL     1      48.076   4.100  18.567  0.00  0.00    +0.000 HD
ATOM     13  H   UNL     1      46.632   4.321  17.643  0.00  0.00    +0.000 HD
ENDBRANCH   1  10
BRANCH   5  14
ATOM     14  C   UNL     1      44.902   6.328  11.375  0.00  0.00    +0.000 C 
BRANCH  14  15
ATOM     15  C   UNL     1      44.713   4.930  10.807  0.00  0.00    +0.000 A 
ATOM     16  C   UNL     1      45.458   4.507   9.703  0.00  0.00    +0.000 A 
ATOM     17  C   UNL     1      45.280   3.223   9.169  0.00  0.00    +0.000 A 
ATOM     18  C   UNL     1      44.322   2.411   9.790  0.00  0.00    +0.000 A 
ATOM     19  C   UNL     1      43.607   2.905  10.871  0.00  0.00    +0.000 A 
ATOM     20  N   UNL     1      43.782   4.138  11.391  0.00  0.00    +0.000 NA
BRANCH  17  21
ATOM     21  C   UNL     1      46.044   2.780   7.992  0.00  0.00    +0.000 A 
ATOM     22  C   UNL     1      46.604   1.515   7.868  0.00  0.00    +0.000 A 
ATOM     23  N   UNL     1      47.357   1.100   6.825  0.00  0.00    +0.000 NA
ATOM     24  C   UNL     1      47.549   2.002   5.854  0.00  0.00    +0.000 A 
ATOM     25  N   UNL     1      47.052   3.244   5.831  0.00  0.00    +0.000 NA
ATOM     26  C   UNL     1      46.314   3.598   6.905  0.00  0.00    +0.000 A 
ENDBRANCH  17  21
ENDBRANCH  14  15
ENDBRANCH   5  14
TORSDOF 4
ENDMDL
MODEL 9
REMARK VINA RESULT:    -6.618      3.141      8.056
REMARK INTER + INTRA:          -8.812
REMARK INTER:                  -8.467
REMARK INTRA:                  -0.345
REMARK UNBOUND:                -0.647
REMARK  Name = 
REMARK  4 active torsions:
REMARK  status: ('A' for Active; 'I' for Inactive)
REMARK    1  A    between atoms: C_2  and  C_4
REMARK    2  A    between atoms: N_8  and  C_9
REMARK    3  A    between atoms: C_9  and  C_10
REMARK    4  A    between atoms: C_12  and  C_13
REMARK                            x       y       z     vdW  Elec       q    Type
REMARK                         _______ _______ _______ _____ _____    ______ ____
ROOT
ATOM      1  C   UNL     1      49.730   4.095  17.463  0.00  0.00    +0.000 A 
ATOM      2  C   UNL     1      49.334   5.369  17.066  0.00  0.00    +0.000 A 
ATOM      3  C   UNL     1      48.228   5.505  16.227  0.00  0.00    +0.000 A 
ATOM      4  C   UNL     1      47.551   4.372  15.786  0.00  0.00    +0.000 A 
ATOM      5  N   UNL     1      46.411   4.413  15.014  0.00  0.00    +0.000 N 
ATOM      6  N   UNL     1      47.940   3.134  16.148  0.00  0.00    +0.000 NA
ATOM      7  C   UNL     1      49.019   3.017  16.965  0.00  0.00    +0.000 A 
ATOM      8  H   UNL     1      46.203   3.472  14.697  0.00  0.00    +0.000 HD
ENDROOT
BRANCH   1  10
ATOM      9  N   UNL     1      50.768   4.361  19.637  0.00  0.00    +0.000 N 
ATOM     10  C   UNL     1      50.868   3.858  18.371  0.00  0.00    +0.000 C 
ATOM     11  O   UNL     1      51.842   3.211  18.016  0.00  0.00    +0.000 OA
ATOM     12  H   UNL     1      51.506   4.102  20.281  0.00  0.00    +0.000 HD
ATOM     13  H   UNL     1      49.891   4.666  20.034  0.00  0.00    +0.000 HD
ENDBRANCH   1  10
BRANCH   5  14
ATOM     14  C   UNL     1      46.199   5.480  14.045  0.00  0.00    +0.000 C 
BRANCH  14  15
ATOM     15  C   UNL     1      45.225   5.076  12.949  0.00  0.00    +0.000 A 
ATOM     16  C   UNL     1      45.695   4.548  11.744  0.00  0.00    +0.000 A 
ATOM     17  C   UNL     1      44.803   4.183  10.726  0.00  0.00    +0.000 A 
ATOM     18  C   UNL     1      43.441   4.387  10.981  0.00  0.00    +0.000 A 
ATOM     19  C   UNL     1      43.049   4.934  12.194  0.00  0.00    +0.000 A 
ATOM     20  N   UNL     1      43.906   5.278  13.178  0.00  0.00    +0.000 NA
BRANCH  17  21
ATOM     21  C   UNL     1      45.293   3.649   9.445  0.00  0.00    +0.000 A 
ATOM     22  C   UNL     1      45.693   4.447   8.380  0.00  0.00    +0.000 A 
ATOM     23  N   UNL     1      46.094   3.985   7.175  0.00  0.00    +0.000 NA
ATOM     24  C   UNL     1      46.101   2.653   7.037  0.00  0.00    +0.000 A 
ATOM     25  N   UNL     1      45.765   1.767   7.983  0.00  0.00    +0.000 NA
ATOM     26  C   UNL     1      45.368   2.293   9.161  0.00  0.00    +0.000 A 
ENDBRANCH  17  21
ENDBRANCH  14  15
ENDBRANCH   5  14
TORSDOF 4
ENDMDL
