MODEL 1
REMARK VINA RESULT:    -7.088      0.000      0.000
REMARK INTER + INTRA:          -9.578
REMARK INTER:                  -9.367
REMARK INTRA:                  -0.210
REMARK UNBOUND:                -0.210
REMARK  Name = 
REMARK  8 active torsions:
REMARK  status: ('A' for Active; 'I' for Inactive)
REMARK    1  A    between atoms: C_1  and  N_2
REMARK    2  A    between atoms: N_2  and  C_3
REMARK    3  A    between atoms: N_2  and  S_4
REMARK    4  A    between atoms: S_4  and  C_7
REMARK    5  A    between atoms: C_10  and  N_11
REMARK    6  A    between atoms: N_11  and  C_12
REMARK    7  A    between atoms: C_12  and  C_13
REMARK    8  A    between atoms: C_16  and  O_17
REMARK                            x       y       z     vdW  Elec       q    Type
REMARK                         _______ _______ _______ _____ _____    ______ ____
ROOT
ATOM      1  N   UNL     1      45.537   3.632  13.283  0.00  0.00    +0.000 N 
ATOM      2  H   UNL     1      44.998   2.973  13.836  0.00  0.00    +0.000 HD
ENDROOT
BRANCH   1   6
ATOM      3  C   UNL     1      48.326   5.621  15.559  0.00  0.00    +0.000 A 
ATOM      4  C   UNL     1      47.572   4.616  16.123  0.00  0.00    +0.000 A 
ATOM      5  N   UNL     1      46.665   3.915  15.395  0.00  0.00    +0.000 NA
ATOM      6  C   UNL     1      46.512   4.260  14.095  0.00  0.00    +0.000 A 
ATOM      7  C   UNL     1      47.276   5.307  13.562  0.00  0.00    +0.000 A 
ATOM      8  N   UNL     1      48.203   6.005  14.261  0.00  0.00    +0.000 NA
BRANCH   3   9
ATOM      9  S   UNL     1      49.427   6.587  16.571  0.00  0.00    +0.000 S 
ATOM     10  O   UNL     1      48.830   6.707  17.885  0.00  0.00    +0.000 OA
ATOM     11  O   UNL     1      49.773   7.769  15.808  0.00  0.00    +0.000 OA
BRANCH   9  13
ATOM     12  C   UNL     1      52.132   6.381  16.631  0.00  0.00    +0.000 C 
ATOM     13  N   UNL     1      50.856   5.645  16.692  0.00  0.00    +0.000 NA
ATOM     14  C   UNL     1      50.837   4.591  17.720  0.00  0.00    +0.000 C 
ENDBRANCH   9  13
ENDBRANCH   3   9
ENDBRANCH   1   6
BRANCH   1  15
ATOM     15  C   UNL     1      44.694   4.490  12.397  0.00  0.00    +0.000 C 
ATOM     16  C   UNL     1      44.245   5.854  12.914  0.00  0.00    +0.000 C 
ATOM     17  C   UNL     1      43.250   4.755  12.820  0.00  0.00    +0.000 C 
ATOM     18  F   UNL     1      42.274   4.872  11.846  0.00  0.00    +0.000 F 
BRANCH  15  19
ATOM     19  C   UNL     1      44.944   4.315  10.900  0.00  0.00    +0.000 A 
ATOM     20  C   UNL     1      45.553   5.328  10.135  0.00  0.00    +0.000 A 
ATOM     21  C   UNL     1      45.883   5.132   8.789  0.00  0.00    +0.000 A 
ATOM     22  C   UNL     1      45.594   3.914   8.187  0.00  0.00    +0.000 A 
ATOM     23  C   UNL     1      44.951   2.910   8.895  0.00  0.00    +0.000 A 
ATOM     24  C   UNL     1      44.625   3.115  10.237  0.00  0.00    +0.000 A 
BRANCH  22  25
ATOM     25  O   UNL     1      45.938   3.659   6.892  0.00  0.00    +0.000 OA
ATOM     26  H   UNL     1      46.194   2.725   6.823  0.00  0.00    +0.000 HD
ENDBRANCH  22  25
ENDBRANCH  15  19
ENDBRANCH   1  15
TORSDOF 6
ENDMDL
MODEL 2
REMARK VINA RESULT:    -6.965      1.234      1.573
REMARK INTER + INTRA:          -9.415
REMARK INTER:                  -9.098
REMARK INTRA:                  -0.317
REMARK UNBOUND:                -0.210
REMARK  Name = 
REMARK  8 active torsions:
REMARK  status: ('A' for Active; 'I' for Inactive)
REMARK    1  A    between atoms: C_1  and  N_2
REMARK    2  A    between atoms: N_2  and  C_3
REMARK    3  A    between atoms: N_2  and  S_4
REMARK    4  A    between atoms: S_4  and  C_7
REMARK    5  A    between atoms: C_10  and  N_11
REMARK    6  A    between atoms: N_11  and  C_12
REMARK    7  A    between atoms: C_12  and  C_13
REMARK    8  A    between atoms: C_16  and  O_17
REMARK                            x       y       z     vdW  Elec       q    Type
REMARK                         _______ _______ _______ _____ _____    ______ ____
ROOT
ATOM      1  N   UNL     1      45.448   3.629  13.278  0.00  0.00    +0.000 N 
ATOM      2  H   UNL     1      44.906   3.026  13.889  0.00  0.00    +0.000 HD
ENDROOT
BRANCH   1   6
ATOM      3  C   UNL     1      48.347   5.692  15.341  0.00  0.00    +0.000 A 
ATOM      4  C   UNL     1      47.577   4.755  15.994  0.00  0.00    +0.000 A 
ATOM      5  N   UNL     1      46.633   4.031  15.339  0.00  0.00    +0.000 NA
ATOM      6  C   UNL     1      46.460   4.284  14.020  0.00  0.00    +0.000 A 
ATOM      7  C   UNL     1      47.241   5.266  13.395  0.00  0.00    +0.000 A 
ATOM      8  N   UNL     1      48.205   5.983  14.021  0.00  0.00    +0.000 NA
BRANCH   3   9
ATOM      9  S   UNL     1      49.499   6.694  16.254  0.00  0.00    +0.000 S 
ATOM     10  O   UNL     1      50.718   5.930  16.421  0.00  0.00    +0.000 OA
ATOM     11  O   UNL     1      48.789   7.209  17.408  0.00  0.00    +0.000 OA
BRANCH   9  13
ATOM     12  C   UNL     1      49.325   9.345  15.703  0.00  0.00    +0.000 C 
ATOM     13  N   UNL     1      49.820   8.038  15.236  0.00  0.00    +0.000 NA
ATOM     14  C   UNL     1      51.178   8.095  14.670  0.00  0.00    +0.000 C 
ENDBRANCH   9  13
ENDBRANCH   3   9
ENDBRANCH   1   6
BRANCH   1  15
ATOM     15  C   UNL     1      44.606   4.447  12.354  0.00  0.00    +0.000 C 
ATOM     16  C   UNL     1      44.195   5.850  12.789  0.00  0.00    +0.000 C 
ATOM     17  C   UNL     1      43.177   4.769  12.783  0.00  0.00    +0.000 C 
ATOM     18  F   UNL     1      42.185   4.845  11.821  0.00  0.00    +0.000 F 
BRANCH  15  19
ATOM     19  C   UNL     1      44.824   4.170  10.867  0.00  0.00    +0.000 A 
ATOM     20  C   UNL     1      45.386   5.140  10.015  0.00  0.00    +0.000 A 
ATOM     21  C   UNL     1      45.689   4.856   8.679  0.00  0.00    +0.000 A 
ATOM     22  C   UNL     1      45.418   3.591   8.173  0.00  0.00    +0.000 A 
ATOM     23  C   UNL     1      44.821   2.625   8.968  0.00  0.00    +0.000 A 
ATOM     24  C   UNL     1      44.522   2.918  10.300  0.00  0.00    +0.000 A 
BRANCH  22  25
ATOM     25  O   UNL     1      45.737   3.252   6.891  0.00  0.00    +0.000 OA
ATOM     26  H   UNL     1      44.993   3.496   6.316  0.00  0.00    +0.000 HD
ENDBRANCH  22  25
ENDBRANCH  15  19
ENDBRANCH   1  15
TORSDOF 6
ENDMDL
MODEL 3
REMARK VINA RESULT:    -6.892      2.172      2.673
REMARK INTER + INTRA:          -9.319
REMARK INTER:                 -10.294
REMARK INTRA:                   0.975
REMARK UNBOUND:                -0.210
REMARK  Name = 
REMARK  8 active torsions:
REMARK  status: ('A' for Active; 'I' for Inactive)
REMARK    1  A    between atoms: C_1  and  N_2
REMARK    2  A    between atoms: N_2  and  C_3
REMARK    3  A    between atoms: N_2  and  S_4
REMARK    4  A    between atoms: S_4  and  C_7
REMARK    5  A    between atoms: C_10  and  N_11
REMARK    6  A    between atoms: N_11  and  C_12
REMARK    7  A    between atoms: C_12  and  C_13
REMARK    8  A    between atoms: C_16  and  O_17
REMARK                            x       y       z     vdW  Elec       q    Type
REMARK                         _______ _______ _______ _____ _____    ______ ____
ROOT
ATOM      1  N   UNL     1      45.818   5.611  11.452  0.00  0.00    +0.000 N 
ATOM      2  H   UNL     1      46.619   5.826  10.868  0.00  0.00    +0.000 HD
ENDROOT
BRANCH   1   6
ATOM      3  C   UNL     1      47.176   4.019  14.993  0.00  0.00    +0.000 A 
ATOM      4  C   UNL     1      47.123   5.386  14.832  0.00  0.00    +0.000 A 
ATOM      5  N   UNL     1      46.650   5.948  13.690  0.00  0.00    +0.000 NA
ATOM      6  C   UNL     1      46.254   5.110  12.703  0.00  0.00    +0.000 A 
ATOM      7  C   UNL     1      46.349   3.724  12.891  0.00  0.00    +0.000 A 
ATOM      8  N   UNL     1      46.794   3.140  14.029  0.00  0.00    +0.000 NA
BRANCH   3   9
ATOM      9  S   UNL     1      47.900   3.320  16.461  0.00  0.00    +0.000 S 
ATOM     10  O   UNL     1      48.879   2.337  16.048  0.00  0.00    +0.000 OA
ATOM     11  O   UNL     1      46.806   2.947  17.336  0.00  0.00    +0.000 OA
BRANCH   9  13
ATOM     12  C   UNL     1      48.026   5.242  18.372  0.00  0.00    +0.000 C 
ATOM     13  N   UNL     1      48.710   4.628  17.220  0.00  0.00    +0.000 NA
ATOM     14  C   UNL     1      50.156   4.444  17.428  0.00  0.00    +0.000 C 
ENDBRANCH   9  13
ENDBRANCH   3   9
ENDBRANCH   1   6
BRANCH   1  15
ATOM     15  C   UNL     1      44.740   4.870  10.731  0.00  0.00    +0.000 C 
ATOM     16  C   UNL     1      43.353   5.499  10.644  0.00  0.00    +0.000 C 
ATOM     17  C   UNL     1      43.564   4.341  11.549  0.00  0.00    +0.000 C 
ATOM     18  F   UNL     1      42.974   3.144  11.185  0.00  0.00    +0.000 F 
BRANCH  15  19
ATOM     19  C   UNL     1      45.222   3.986   9.582  0.00  0.00    +0.000 A 
ATOM     20  C   UNL     1      45.787   4.541   8.418  0.00  0.00    +0.000 A 
ATOM     21  C   UNL     1      46.330   3.734   7.410  0.00  0.00    +0.000 A 
ATOM     22  C   UNL     1      46.299   2.353   7.552  0.00  0.00    +0.000 A 
ATOM     23  C   UNL     1      45.707   1.770   8.662  0.00  0.00    +0.000 A 
ATOM     24  C   UNL     1      45.168   2.582   9.662  0.00  0.00    +0.000 A 
BRANCH  22  25
ATOM     25  O   UNL     1      46.855   1.528   6.620  0.00  0.00    +0.000 OA
ATOM     26  H   UNL     1      47.580   1.037   7.040  0.00  0.00    +0.000 HD
ENDBRANCH  22  25
ENDBRANCH  15  19
ENDBRANCH   1  15
TORSDOF 6
ENDMDL
MODEL 4
REMARK VINA RESULT:    -6.641      3.606      8.017
REMARK INTER + INTRA:          -8.986
REMARK INTER:                  -8.621
REMARK INTRA:                  -0.366
REMARK UNBOUND:                -0.210
REMARK  Name = 
REMARK  8 active torsions:
REMARK  status: ('A' for Active; 'I' for Inactive)
REMARK    1  A    between atoms: C_1  and  N_2
REMARK    2  A    between atoms: N_2  and  C_3
REMARK    3  A    between atoms: N_2  and  S_4
REMARK    4  A    between atoms: S_4  and  C_7
REMARK    5  A    between atoms: C_10  and  N_11
REMARK    6  A    between atoms: N_11  and  C_12
REMARK    7  A    between atoms: C_12  and  C_13
REMARK    8  A    between atoms: C_16  and  O_17
REMARK                            x       y       z     vdW  Elec       q    Type
REMARK                         _______ _______ _______ _____ _____    ______ ____
ROOT
ATOM      1  N   UNL     1      47.927   5.076  15.336  0.00  0.00    +0.000 N 
ATOM      2  H   UNL     1      47.900   6.085  15.447  0.00  0.00    +0.000 HD
ENDROOT
BRANCH   1   6
ATOM      3  C   UNL     1      45.126   4.064  12.499  0.00  0.00    +0.000 A 
ATOM      4  C   UNL     1      46.060   3.135  12.902  0.00  0.00    +0.000 A 
ATOM      5  N   UNL     1      46.980   3.423  13.859  0.00  0.00    +0.000 NA
ATOM      6  C   UNL     1      46.959   4.669  14.387  0.00  0.00    +0.000 A 
ATOM      7  C   UNL     1      46.012   5.598  13.932  0.00  0.00    +0.000 A 
ATOM      8  N   UNL     1      45.070   5.328  12.996  0.00  0.00    +0.000 NA
BRANCH   3   9
ATOM      9  S   UNL     1      44.007   3.685  11.168  0.00  0.00    +0.000 S 
ATOM     10  O   UNL     1      43.280   4.895  10.843  0.00  0.00    +0.000 OA
ATOM     11  O   UNL     1      43.299   2.478  11.542  0.00  0.00    +0.000 OA
BRANCH   9  13
ATOM     12  C   UNL     1      44.706   2.008   9.153  0.00  0.00    +0.000 C 
ATOM     13  N   UNL     1      45.018   3.272   9.845  0.00  0.00    +0.000 NA
ATOM     14  C   UNL     1      45.346   4.375   8.927  0.00  0.00    +0.000 C 
ENDBRANCH   9  13
ENDBRANCH   3   9
ENDBRANCH   1   6
BRANCH   1  15
ATOM     15  C   UNL     1      48.001   4.339  16.632  0.00  0.00    +0.000 C 
ATOM     16  C   UNL     1      46.740   3.662  17.161  0.00  0.00    +0.000 C 
ATOM     17  C   UNL     1      47.224   4.901  17.821  0.00  0.00    +0.000 C 
ATOM     18  F   UNL     1      47.752   4.770  19.094  0.00  0.00    +0.000 F 
BRANCH  15  19
ATOM     19  C   UNL     1      49.359   3.712  16.942  0.00  0.00    +0.000 A 
ATOM     20  C   UNL     1      50.456   4.499  17.342  0.00  0.00    +0.000 A 
ATOM     21  C   UNL     1      51.670   3.922  17.732  0.00  0.00    +0.000 A 
ATOM     22  C   UNL     1      51.804   2.540  17.713  0.00  0.00    +0.000 A 
ATOM     23  C   UNL     1      50.762   1.734  17.279  0.00  0.00    +0.000 A 
ATOM     24  C   UNL     1      49.555   2.319  16.892  0.00  0.00    +0.000 A 
BRANCH  22  25
ATOM     25  O   UNL     1      52.951   1.929  18.128  0.00  0.00    +0.000 OA
ATOM     26  H   UNL     1      52.740   1.374  18.897  0.00  0.00    +0.000 HD
ENDBRANCH  22  25
ENDBRANCH  15  19
ENDBRANCH   1  15
TORSDOF 6
ENDMDL
MODEL 5
REMARK VINA RESULT:    -6.351      2.295      2.852
REMARK INTER + INTRA:          -8.604
REMARK INTER:                  -9.183
REMARK INTRA:                   0.580
REMARK UNBOUND:                -0.210
REMARK  Name = 
REMARK  8 active torsions:
REMARK  status: ('A' for Active; 'I' for Inactive)
REMARK    1  A    between atoms: C_1  and  N_2
REMARK    2  A    between atoms: N_2  and  C_3
REMARK    3  A    between atoms: N_2  and  S_4
REMARK    4  A    between atoms: S_4  and  C_7
REMARK    5  A    between atoms: C_10  and  N_11
REMARK    6  A    between atoms: N_11  and  C_12
REMARK    7  A    between atoms: C_12  and  C_13
REMARK    8  A    between atoms: C_16  and  O_17
REMARK                            x       y       z     vdW  Elec       q    Type
REMARK                         _______ _______ _______ _____ _____    ______ ____
ROOT
ATOM      1  N   UNL     1      44.542   6.261  10.742  0.00  0.00    +0.000 N 
ATOM      2  H   UNL     1      44.588   6.611   9.790  0.00  0.00    +0.000 HD
ENDROOT
BRANCH   1   6
ATOM      3  C   UNL     1      47.501   7.837  13.124  0.00  0.00    +0.000 A 
ATOM      4  C   UNL     1      47.827   6.943  12.128  0.00  0.00    +0.000 A 
ATOM      5  N   UNL     1      46.881   6.427  11.301  0.00  0.00    +0.000 NA
ATOM      6  C   UNL     1      45.599   6.807  11.509  0.00  0.00    +0.000 A 
ATOM      7  C   UNL     1      45.301   7.696  12.551  0.00  0.00    +0.000 A 
ATOM      8  N   UNL     1      46.228   8.243  13.373  0.00  0.00    +0.000 NA
BRANCH   3   9
ATOM      9  S   UNL     1      48.751   8.409  14.254  0.00  0.00    +0.000 S 
ATOM     10  O   UNL     1      48.090   9.144  15.312  0.00  0.00    +0.000 OA
ATOM     11  O   UNL     1      49.786   9.036  13.457  0.00  0.00    +0.000 OA
BRANCH   9  13
ATOM     12  C   UNL     1      50.759   7.125  15.552  0.00  0.00    +0.000 C 
ATOM     13  N   UNL     1      49.438   6.981  14.913  0.00  0.00    +0.000 NA
ATOM     14  C   UNL     1      48.512   6.123  15.671  0.00  0.00    +0.000 C 
ENDBRANCH   9  13
ENDBRANCH   3   9
ENDBRANCH   1   6
BRANCH   1  15
ATOM     15  C   UNL     1      44.297   4.789  10.821  0.00  0.00    +0.000 C 
ATOM     16  C   UNL     1      43.002   4.297  11.459  0.00  0.00    +0.000 C 
ATOM     17  C   UNL     1      44.276   4.141  12.204  0.00  0.00    +0.000 C 
ATOM     18  F   UNL     1      44.764   2.854  12.352  0.00  0.00    +0.000 F 
BRANCH  15  19
ATOM     19  C   UNL     1      44.923   3.969   9.694  0.00  0.00    +0.000 A 
ATOM     20  C   UNL     1      45.643   4.585   8.653  0.00  0.00    +0.000 A 
ATOM     21  C   UNL     1      46.310   3.833   7.678  0.00  0.00    +0.000 A 
ATOM     22  C   UNL     1      46.251   2.447   7.729  0.00  0.00    +0.000 A 
ATOM     23  C   UNL     1      45.511   1.806   8.711  0.00  0.00    +0.000 A 
ATOM     24  C   UNL     1      44.849   2.564   9.679  0.00  0.00    +0.000 A 
BRANCH  22  25
ATOM     25  O   UNL     1      46.921   1.671   6.830  0.00  0.00    +0.000 OA
ATOM     26  H   UNL     1      46.360   1.558   6.045  0.00  0.00    +0.000 HD
ENDBRANCH  22  25
ENDBRANCH  15  19
ENDBRANCH   1  15
TORSDOF 6
ENDMDL
MODEL 6
REMARK VINA RESULT:    -6.258      3.839      8.022
REMARK INTER + INTRA:          -8.480
REMARK INTER:                  -7.782
REMARK INTRA:                  -0.698
REMARK UNBOUND:                -0.210
REMARK  Name = 
REMARK  8 active torsions:
REMARK  status: ('A' for Active; 'I' for Inactive)
REMARK    1  A    between atoms: C_1  and  N_2
REMARK    2  A    between atoms: N_2  and  C_3
REMARK    3  A    between atoms: N_2  and  S_4
REMARK    4  A    between atoms: S_4  and  C_7
REMARK    5  A    between atoms: C_10  and  N_11
REMARK    6  A    between atoms: N_11  and  C_12
REMARK    7  A    between atoms: C_12  and  C_13
REMARK    8  A    between atoms: C_16  and  O_17
REMARK                            x       y       z     vdW  Elec       q    Type
REMARK                         _______ _______ _______ _____ _____    ______ ____
ROOT
ATOM      1  N   UNL     1      49.171   6.676  14.518  0.00  0.00    +0.000 N 
ATOM      2  H   UNL     1      49.654   7.210  13.803  0.00  0.00    +0.000 HD
ENDROOT
BRANCH   1   6
ATOM      3  C   UNL     1      45.415   5.819  13.076  0.00  0.00    +0.000 A 
ATOM      4  C   UNL     1      46.161   4.829  13.677  0.00  0.00    +0.000 A 
ATOM      5  N   UNL     1      47.391   5.082  14.194  0.00  0.00    +0.000 NA
ATOM      6  C   UNL     1      47.868   6.343  14.074  0.00  0.00    +0.000 A 
ATOM      7  C   UNL     1      47.094   7.319  13.430  0.00  0.00    +0.000 A 
ATOM      8  N   UNL     1      45.855   7.097  12.928  0.00  0.00    +0.000 NA
BRANCH   3   9
ATOM      9  S   UNL     1      43.855   5.425  12.317  0.00  0.00    +0.000 S 
ATOM     10  O   UNL     1      43.542   6.478  11.373  0.00  0.00    +0.000 OA
ATOM     11  O   UNL     1      42.935   5.098  13.387  0.00  0.00    +0.000 OA
BRANCH   9  13
ATOM     12  C   UNL     1      43.400   2.780  11.914  0.00  0.00    +0.000 C 
ATOM     13  N   UNL     1      44.139   3.970  11.452  0.00  0.00    +0.000 NA
ATOM     14  C   UNL     1      44.181   4.100   9.987  0.00  0.00    +0.000 C 
ENDBRANCH   9  13
ENDBRANCH   3   9
ENDBRANCH   1   6
BRANCH   1  15
ATOM     15  C   UNL     1      49.325   7.247  15.890  0.00  0.00    +0.000 C 
ATOM     16  C   UNL     1      48.935   8.703  16.124  0.00  0.00    +0.000 C 
ATOM     17  C   UNL     1      50.374   8.338  16.097  0.00  0.00    +0.000 C 
ATOM     18  F   UNL     1      51.059   8.395  17.298  0.00  0.00    +0.000 F 
BRANCH  15  19
ATOM     19  C   UNL     1      49.152   6.244  17.030  0.00  0.00    +0.000 A 
ATOM     20  C   UNL     1      48.231   6.470  18.070  0.00  0.00    +0.000 A 
ATOM     21  C   UNL     1      47.989   5.507  19.057  0.00  0.00    +0.000 A 
ATOM     22  C   UNL     1      48.681   4.304  19.019  0.00  0.00    +0.000 A 
ATOM     23  C   UNL     1      49.631   4.066  18.037  0.00  0.00    +0.000 A 
ATOM     24  C   UNL     1      49.866   5.032  17.058  0.00  0.00    +0.000 A 
BRANCH  22  25
ATOM     25  O   UNL     1      48.446   3.317  19.930  0.00  0.00    +0.000 OA
ATOM     26  H   UNL     1      49.263   3.165  20.434  0.00  0.00    +0.000 HD
ENDBRANCH  22  25
ENDBRANCH  15  19
ENDBRANCH   1  15
TORSDOF 6
ENDMDL
MODEL 7
REMARK VINA RESULT:    -6.158      1.734      2.351
REMARK INTER + INTRA:          -8.349
REMARK INTER:                  -8.776
REMARK INTRA:                   0.427
REMARK UNBOUND:                -0.210
REMARK  Name = 
REMARK  8 active torsions:
REMARK  status: ('A' for Active; 'I' for Inactive)
REMARK    1  A    between atoms: C_1  and  N_2
REMARK    2  A    between atoms: N_2  and  C_3
REMARK    3  A    between atoms: N_2  and  S_4
REMARK    4  A    between atoms: S_4  and  C_7
REMARK    5  A    between atoms: C_10  and  N_11
REMARK    6  A    between atoms: N_11  and  C_12
REMARK    7  A    between atoms: C_12  and  C_13
REMARK    8  A    between atoms: C_16  and  O_17
REMARK                            x       y       z     vdW  Elec       q    Type
REMARK                         _______ _______ _______ _____ _____    ______ ____
ROOT
ATOM      1  N   UNL     1      47.021   6.251  12.110  0.00  0.00    +0.000 N 
ATOM      2  H   UNL     1      47.691   5.862  11.453  0.00  0.00    +0.000 HD
ENDROOT
BRANCH   1   6
ATOM      3  C   UNL     1      47.857   4.703  15.827  0.00  0.00    +0.000 A 
ATOM      4  C   UNL     1      48.224   5.996  15.525  0.00  0.00    +0.000 A 
ATOM      5  N   UNL     1      47.936   6.552  14.320  0.00  0.00    +0.000 NA
ATOM      6  C   UNL     1      47.294   5.776  13.415  0.00  0.00    +0.000 A 
ATOM      7  C   UNL     1      46.962   4.455  13.747  0.00  0.00    +0.000 A 
ATOM      8  N   UNL     1      47.217   3.886  14.950  0.00  0.00    +0.000 NA
BRANCH   3   9
ATOM      9  S   UNL     1      48.345   3.975  17.376  0.00  0.00    +0.000 S 
ATOM     10  O   UNL     1      47.542   2.787  17.581  0.00  0.00    +0.000 OA
ATOM     11  O   UNL     1      48.350   5.039  18.360  0.00  0.00    +0.000 OA
BRANCH   9  13
ATOM     12  C   UNL     1      50.990   4.279  17.898  0.00  0.00    +0.000 C 
ATOM     13  N   UNL     1      49.981   3.509  17.150  0.00  0.00    +0.000 NA
ATOM     14  C   UNL     1      50.234   2.058  17.150  0.00  0.00    +0.000 C 
ENDBRANCH   9  13
ENDBRANCH   3   9
ENDBRANCH   1   6
BRANCH   1  15
ATOM     15  C   UNL     1      45.612   6.200  11.619  0.00  0.00    +0.000 C 
ATOM     16  C   UNL     1      44.871   7.513  11.384  0.00  0.00    +0.000 C 
ATOM     17  C   UNL     1      44.508   6.681  12.559  0.00  0.00    +0.000 C 
ATOM     18  F   UNL     1      43.275   6.053  12.527  0.00  0.00    +0.000 F 
BRANCH  15  19
ATOM     19  C   UNL     1      45.278   4.998  10.736  0.00  0.00    +0.000 A 
ATOM     20  C   UNL     1      45.506   5.023   9.347  0.00  0.00    +0.000 A 
ATOM     21  C   UNL     1      45.306   3.890   8.550  0.00  0.00    +0.000 A 
ATOM     22  C   UNL     1      44.859   2.714   9.138  0.00  0.00    +0.000 A 
ATOM     23  C   UNL     1      44.578   2.665  10.496  0.00  0.00    +0.000 A 
ATOM     24  C   UNL     1      44.780   3.801  11.282  0.00  0.00    +0.000 A 
BRANCH  22  25
ATOM     25  O   UNL     1      44.693   1.572   8.413  0.00  0.00    +0.000 OA
ATOM     26  H   UNL     1      43.928   1.091   8.770  0.00  0.00    +0.000 HD
ENDBRANCH  22  25
ENDBRANCH  15  19
ENDBRANCH   1  15
TORSDOF 6
ENDMDL
MODEL 8
REMARK VINA RESULT:    -5.754      3.879      8.105
REMARK INTER + INTRA:          -7.815
REMARK INTER:                  -8.086
REMARK INTRA:                   0.271
REMARK UNBOUND:                -0.210
REMARK  Name = 
REMARK  8 active torsions:
REMARK  status: ('A' for Active; 'I' for Inactive)
REMARK    1  A    between atoms: C_1  and  N_2
REMARK    2  A    between atoms: N_2  and  C_3
REMARK    3  A    between atoms: N_2  and  S_4
REMARK    4  A    between atoms: S_4  and  C_7
REMARK    5  A    between atoms: C_10  and  N_11
REMARK    6  A    between atoms: N_11  and  C_12
REMARK    7  A    between atoms: C_12  and  C_13
REMARK    8  A    between atoms: C_16  and  O_17
REMARK                            x       y       z     vdW  Elec       q    Type
REMARK                         _______ _______ _______ _____ _____    ______ ____
ROOT
ATOM      1  N   UNL     1      49.193   5.597  16.747  0.00  0.00    +0.000 N 
ATOM      2  H   UNL     1      49.089   6.544  17.097  0.00  0.00    +0.000 HD
ENDROOT
BRANCH   1   6
ATOM      3  C   UNL     1      46.446   4.908  13.763  0.00  0.00    +0.000 A 
ATOM      4  C   UNL     1      47.299   5.986  13.674  0.00  0.00    +0.000 A 
ATOM      5  N   UNL     1      48.240   6.227  14.623  0.00  0.00    +0.000 NA
ATOM      6  C   UNL     1      48.292   5.378  15.676  0.00  0.00    +0.000 A 
ATOM      7  C   UNL     1      47.390   4.307  15.748  0.00  0.00    +0.000 A 
ATOM      8  N   UNL     1      46.459   4.032  14.803  0.00  0.00    +0.000 NA
BRANCH   3   9
ATOM      9  S   UNL     1      45.158   4.686  12.556  0.00  0.00    +0.000 S 
ATOM     10  O   UNL     1      43.897   5.020  13.186  0.00  0.00    +0.000 OA
ATOM     11  O   UNL     1      45.359   3.381  11.958  0.00  0.00    +0.000 OA
BRANCH   9  13
ATOM     12  C   UNL     1      45.586   5.330   9.955  0.00  0.00    +0.000 C 
ATOM     13  N   UNL     1      45.493   5.843  11.334  0.00  0.00    +0.000 NA
ATOM     14  C   UNL     1      44.750   7.110  11.438  0.00  0.00    +0.000 C 
ENDBRANCH   9  13
ENDBRANCH   3   9
ENDBRANCH   1   6
BRANCH   1  15
ATOM     15  C   UNL     1      49.270   4.569  17.828  0.00  0.00    +0.000 C 
ATOM     16  C   UNL     1      47.975   4.098  18.482  0.00  0.00    +0.000 C 
ATOM     17  C   UNL     1      48.885   4.990  19.245  0.00  0.00    +0.000 C 
ATOM     18  F   UNL     1      49.557   4.433  20.319  0.00  0.00    +0.000 F 
BRANCH  15  19
ATOM     19  C   UNL     1      50.433   3.586  17.702  0.00  0.00    +0.000 A 
ATOM     20  C   UNL     1      51.754   3.972  17.999  0.00  0.00    +0.000 A 
ATOM     21  C   UNL     1      52.807   3.049  17.991  0.00  0.00    +0.000 A 
ATOM     22  C   UNL     1      52.548   1.723  17.670  0.00  0.00    +0.000 A 
ATOM     23  C   UNL     1      51.267   1.316  17.326  0.00  0.00    +0.000 A 
ATOM     24  C   UNL     1      50.224   2.244  17.336  0.00  0.00    +0.000 A 
BRANCH  22  25
ATOM     25  O   UNL     1      53.531   0.778  17.694  0.00  0.00    +0.000 OA
ATOM     26  H   UNL     1      53.187  -0.031  17.282  0.00  0.00    +0.000 HD
ENDBRANCH  22  25
ENDBRANCH  15  19
ENDBRANCH   1  15
TORSDOF 6
ENDMDL
MODEL 9
REMARK VINA RESULT:    -5.457      4.063      8.105
REMARK INTER + INTRA:          -7.421
REMARK INTER:                  -6.725
REMARK INTRA:                  -0.696
REMARK UNBOUND:                -0.210
REMARK  Name = 
REMARK  8 active torsions:
REMARK  status: ('A' for Active; 'I' for Inactive)
REMARK    1  A    between atoms: C_1  and  N_2
REMARK    2  A    between atoms: N_2  and  C_3
REMARK    3  A    between atoms: N_2  and  S_4
REMARK    4  A    between atoms: S_4  and  C_7
REMARK    5  A    between atoms: C_10  and  N_11
REMARK    6  A    between atoms: N_11  and  C_12
REMARK    7  A    between atoms: C_12  and  C_13
REMARK    8  A    between atoms: C_16  and  O_17
REMARK                            x       y       z     vdW  Elec       q    Type
REMARK                         _______ _______ _______ _____ _____    ______ ____
ROOT
ATOM      1  N   UNL     1      49.505   7.310  13.764  0.00  0.00    +0.000 N 
ATOM      2  H   UNL     1      50.022   7.428  12.898  0.00  0.00    +0.000 HD
ENDROOT
BRANCH   1   6
ATOM      3  C   UNL     1      46.120   5.148  12.880  0.00  0.00    +0.000 A 
ATOM      4  C   UNL     1      46.835   4.865  14.023  0.00  0.00    +0.000 A 
ATOM      5  N   UNL     1      47.939   5.579  14.364  0.00  0.00    +0.000 NA
ATOM      6  C   UNL     1      48.325   6.567  13.523  0.00  0.00    +0.000 A 
ATOM      7  C   UNL     1      47.590   6.807  12.354  0.00  0.00    +0.000 A 
ATOM      8  N   UNL     1      46.472   6.126  12.004  0.00  0.00    +0.000 NA
BRANCH   3   9
ATOM      9  S   UNL     1      44.742   4.123  12.412  0.00  0.00    +0.000 S 
ATOM     10  O   UNL     1      43.827   4.072  13.533  0.00  0.00    +0.000 OA
ATOM     11  O   UNL     1      45.293   2.904  11.854  0.00  0.00    +0.000 OA
BRANCH   9  13
ATOM     12  C   UNL     1      44.075   4.322   9.789  0.00  0.00    +0.000 C 
ATOM     13  N   UNL     1      43.990   4.959  11.116  0.00  0.00    +0.000 NA
ATOM     14  C   UNL     1      42.662   5.523  11.410  0.00  0.00    +0.000 C 
ENDBRANCH   9  13
ENDBRANCH   3   9
ENDBRANCH   1   6
BRANCH   1  15
ATOM     15  C   UNL     1      49.399   8.565  14.566  0.00  0.00    +0.000 C 
ATOM     16  C   UNL     1      48.841   9.817  13.896  0.00  0.00    +0.000 C 
ATOM     17  C   UNL     1      50.296   9.740  14.181  0.00  0.00    +0.000 C 
ATOM     18  F   UNL     1      50.786  10.568  15.176  0.00  0.00    +0.000 F 
BRANCH  15  19
ATOM     19  C   UNL     1      49.154   8.357  16.060  0.00  0.00    +0.000 A 
ATOM     20  C   UNL     1      48.159   9.080  16.747  0.00  0.00    +0.000 A 
ATOM     21  C   UNL     1      47.856   8.816  18.088  0.00  0.00    +0.000 A 
ATOM     22  C   UNL     1      48.560   7.829  18.764  0.00  0.00    +0.000 A 
ATOM     23  C   UNL     1      49.579   7.130  18.135  0.00  0.00    +0.000 A 
ATOM     24  C   UNL     1      49.875   7.400  16.797  0.00  0.00    +0.000 A 
BRANCH  22  25
ATOM     25  O   UNL     1      48.270   7.504  20.057  0.00  0.00    +0.000 OA
ATOM     26  H   UNL     1      49.024   7.760  20.613  0.00  0.00    +0.000 HD
ENDBRANCH  22  25
ENDBRANCH  15  19
ENDBRANCH   1  15
TORSDOF 6
ENDMDL
