MODEL 1
REMARK VINA RESULT:    -7.978      0.000      0.000
REMARK INTER + INTRA:         -13.327
REMARK INTER:                 -12.408
REMARK INTRA:                  -0.919
REMARK UNBOUND:                -0.919
REMARK  Name = 
REMARK  10 active torsions:
REMARK  status: ('A' for Active; 'I' for Inactive)
REMARK    1  A    between atoms: C_2  and  C_3
REMARK    2  A    between atoms: C_3  and  N_4
REMARK    3  A    between atoms: C_5  and  C_7
REMARK    4  A    between atoms: N_17  and  CA_18
REMARK    5  A    between atoms: CA_18  and  C_19
REMARK    6  A    between atoms: CA_18  and  C_21
REMARK    7  A    between atoms: C_19  and  O_20
REMARK    8  A    between atoms: C_24  and  C_25
REMARK    9  A    between atoms: C_25  and  N_26
REMARK   10  A    between atoms: C_27  and  C_29
REMARK                            x       y       z     vdW  Elec       q    Type
REMARK                         _______ _______ _______ _____ _____    ______ ____
ROOT
ATOM      1  O   UNL     1      50.180   6.821  15.231  0.00  0.00    +0.000 OA
ATOM      2  C   UNL     1      49.127   6.464  15.760  0.00  0.00    +0.000 C 
ATOM      3  N   UNL     1      47.898   6.603  15.150  0.00  0.00    +0.000 N 
ATOM      4  H   UNL     1      47.094   6.149  15.573  0.00  0.00    +0.000 HD
ENDROOT
BRANCH   2   5
ATOM      5  C   UNL     1      49.091   5.744  17.113  0.00  0.00    +0.000 C 
BRANCH   5   6
ATOM      6  N   UNL     1      50.304   4.986  17.349  0.00  0.00    +0.000 N 
ATOM      7  C   UNL     1      50.715   4.660  18.614  0.00  0.00    +0.000 C 
ATOM      8  O   UNL     1      50.050   4.971  19.601  0.00  0.00    +0.000 OA
ATOM      9  H   UNL     1      50.898   4.788  16.550  0.00  0.00    +0.000 HD
BRANCH   7  10
ATOM     10  C   UNL     1      51.949   3.873  18.729  0.00  0.00    +0.000 A 
ATOM     11  C   UNL     1      53.025   4.388  19.438  0.00  0.00    +0.000 A 
ATOM     12  S   UNL     1      54.379   3.353  19.483  0.00  0.00    +0.000 S 
ATOM     13  C   UNL     1      53.592   2.193  18.519  0.00  0.00    +0.000 A 
ATOM     14  N   UNL     1      54.228   1.050  18.146  0.00  0.00    +0.000 NA
ATOM     15  C   UNL     1      53.528   0.275  17.385  0.00  0.00    +0.000 A 
ATOM     16  N   UNL     1      52.246   0.535  16.975  0.00  0.00    +0.000 N 
ATOM     17  C   UNL     1      51.543   1.650  17.373  0.00  0.00    +0.000 A 
ATOM     18  O   UNL     1      50.366   1.808  17.070  0.00  0.00    +0.000 OA
ATOM     19  C   UNL     1      52.301   2.575  18.196  0.00  0.00    +0.000 A 
ATOM     20  H   UNL     1      51.745  -0.128  16.402  0.00  0.00    +0.000 HD
ENDBRANCH   7  10
ENDBRANCH   5   6
ENDBRANCH   2   5
BRANCH   3  21
ATOM     21  CA  UNL     1      47.741   7.296  13.877  0.00  0.00    +0.000 C 
BRANCH  21  22
ATOM     22  C   UNL     1      46.663   6.638  13.027  0.00  0.00    +0.000 A 
ATOM     23  C   UNL     1      46.400   5.267  13.162  0.00  0.00    +0.000 A 
ATOM     24  C   UNL     1      45.482   4.625  12.320  0.00  0.00    +0.000 A 
ATOM     25  C   UNL     1      44.811   5.337  11.318  0.00  0.00    +0.000 A 
ATOM     26  C   UNL     1      45.023   6.719  11.225  0.00  0.00    +0.000 A 
ATOM     27  C   UNL     1      45.939   7.361  12.067  0.00  0.00    +0.000 A 
BRANCH  25  28
ATOM     28  C   UNL     1      43.885   4.637  10.355  0.00  0.00    +0.000 C 
BRANCH  28  29
ATOM     29  N   UNL     1      44.573   3.636   9.587  0.00  0.00    +0.000 N 
ATOM     30  C   UNL     1      45.522   3.964   8.633  0.00  0.00    +0.000 C 
ATOM     31  O   UNL     1      45.842   5.128   8.416  0.00  0.00    +0.000 OA
ATOM     32  H   UNL     1      44.384   2.660   9.757  0.00  0.00    +0.000 HD
BRANCH  30  33
ATOM     33  C   UNL     1      46.097   2.828   7.918  0.00  0.00    +0.000 A 
ATOM     34  C   UNL     1      46.174   1.514   8.349  0.00  0.00    +0.000 A 
ATOM     35  C   UNL     1      46.828   0.663   7.407  0.00  0.00    +0.000 A 
ATOM     36  C   UNL     1      47.227   1.351   6.284  0.00  0.00    +0.000 A 
ATOM     37  S   UNL     1      46.807   3.003   6.362  0.00  0.00    +0.000 S 
ENDBRANCH  30  33
ENDBRANCH  28  29
ENDBRANCH  25  28
ENDBRANCH  21  22
BRANCH  21  38
ATOM     38  C   UNL     1      47.451   8.813  14.058  0.00  0.00    +0.000 C 
BRANCH  38  39
ATOM     39  O   UNL     1      47.270   9.210  15.418  0.00  0.00    +0.000 OA
ATOM     40  H   UNL     1      47.165  10.179  15.436  0.00  0.00    +0.000 HD
ENDBRANCH  38  39
ENDBRANCH  21  38
ENDBRANCH   3  21
TORSDOF 10
ENDMDL
MODEL 2
REMARK VINA RESULT:    -7.906      3.171      3.963
REMARK INTER + INTRA:         -13.216
REMARK INTER:                 -12.045
REMARK INTRA:                  -1.171
REMARK UNBOUND:                -0.919
REMARK  Name = 
REMARK  10 active torsions:
REMARK  status: ('A' for Active; 'I' for Inactive)
REMARK    1  A    between atoms: C_2  and  C_3
REMARK    2  A    between atoms: C_3  and  N_4
REMARK    3  A    between atoms: C_5  and  C_7
REMARK    4  A    between atoms: N_17  and  CA_18
REMARK    5  A    between atoms: CA_18  and  C_19
REMARK    6  A    between atoms: CA_18  and  C_21
REMARK    7  A    between atoms: C_19  and  O_20
REMARK    8  A    between atoms: C_24  and  C_25
REMARK    9  A    between atoms: C_25  and  N_26
REMARK   10  A    between atoms: C_27  and  C_29
REMARK                            x       y       z     vdW  Elec       q    Type
REMARK                         _______ _______ _______ _____ _____    ______ ____
ROOT
ATOM      1  O   UNL     1      48.572   9.363  12.483  0.00  0.00    +0.000 OA
ATOM      2  C   UNL     1      47.898   9.276  13.509  0.00  0.00    +0.000 C 
ATOM      3  N   UNL     1      46.549   8.992  13.497  0.00  0.00    +0.000 N 
ATOM      4  H   UNL     1      46.091   8.782  14.379  0.00  0.00    +0.000 HD
ENDROOT
BRANCH   2   5
ATOM      5  C   UNL     1      48.516   9.384  14.909  0.00  0.00    +0.000 C 
BRANCH   5   6
ATOM      6  N   UNL     1      48.245   8.205  15.707  0.00  0.00    +0.000 N 
ATOM      7  C   UNL     1      48.944   7.041  15.532  0.00  0.00    +0.000 C 
ATOM      8  O   UNL     1      49.854   6.960  14.708  0.00  0.00    +0.000 OA
ATOM      9  H   UNL     1      47.449   8.236  16.337  0.00  0.00    +0.000 HD
BRANCH   7  10
ATOM     10  C   UNL     1      48.596   5.918  16.411  0.00  0.00    +0.000 A 
ATOM     11  C   UNL     1      47.780   4.902  15.934  0.00  0.00    +0.000 A 
ATOM     12  S   UNL     1      47.474   3.672  17.073  0.00  0.00    +0.000 S 
ATOM     13  C   UNL     1      48.385   4.475  18.265  0.00  0.00    +0.000 A 
ATOM     14  N   UNL     1      48.499   3.960  19.519  0.00  0.00    +0.000 NA
ATOM     15  C   UNL     1      49.188   4.688  20.334  0.00  0.00    +0.000 A 
ATOM     16  N   UNL     1      49.784   5.877  20.002  0.00  0.00    +0.000 N 
ATOM     17  C   UNL     1      49.745   6.408  18.732  0.00  0.00    +0.000 A 
ATOM     18  O   UNL     1      50.368   7.422  18.442  0.00  0.00    +0.000 OA
ATOM     19  C   UNL     1      48.944   5.648  17.789  0.00  0.00    +0.000 A 
ATOM     20  H   UNL     1      50.334   6.384  20.681  0.00  0.00    +0.000 HD
ENDBRANCH   7  10
ENDBRANCH   5   6
ENDBRANCH   2   5
BRANCH   3  21
ATOM     21  CA  UNL     1      45.792   8.891  12.255  0.00  0.00    +0.000 C 
BRANCH  21  22
ATOM     22  C   UNL     1      45.251   7.482  12.059  0.00  0.00    +0.000 A 
ATOM     23  C   UNL     1      46.052   6.371  12.366  0.00  0.00    +0.000 A 
ATOM     24  C   UNL     1      45.607   5.070  12.100  0.00  0.00    +0.000 A 
ATOM     25  C   UNL     1      44.356   4.846  11.513  0.00  0.00    +0.000 A 
ATOM     26  C   UNL     1      43.528   5.949  11.267  0.00  0.00    +0.000 A 
ATOM     27  C   UNL     1      43.970   7.250  11.534  0.00  0.00    +0.000 A 
BRANCH  25  28
ATOM     28  C   UNL     1      43.906   3.454  11.147  0.00  0.00    +0.000 C 
BRANCH  28  29
ATOM     29  N   UNL     1      44.823   2.819  10.241  0.00  0.00    +0.000 N 
ATOM     30  C   UNL     1      44.921   3.193   8.911  0.00  0.00    +0.000 C 
ATOM     31  O   UNL     1      44.247   4.107   8.447  0.00  0.00    +0.000 OA
ATOM     32  H   UNL     1      45.437   2.093  10.579  0.00  0.00    +0.000 HD
BRANCH  30  33
ATOM     33  C   UNL     1      45.876   2.421   8.121  0.00  0.00    +0.000 A 
ATOM     34  C   UNL     1      46.097   1.054   8.168  0.00  0.00    +0.000 A 
ATOM     35  C   UNL     1      47.129   0.632   7.276  0.00  0.00    +0.000 A 
ATOM     36  C   UNL     1      47.662   1.687   6.572  0.00  0.00    +0.000 A 
ATOM     37  S   UNL     1      46.917   3.168   6.976  0.00  0.00    +0.000 S 
ENDBRANCH  30  33
ENDBRANCH  28  29
ENDBRANCH  25  28
ENDBRANCH  21  22
BRANCH  21  38
ATOM     38  C   UNL     1      44.646   9.938  12.171  0.00  0.00    +0.000 C 
BRANCH  38  39
ATOM     39  O   UNL     1      45.094  11.293  12.232  0.00  0.00    +0.000 OA
ATOM     40  H   UNL     1      44.329  11.851  12.468  0.00  0.00    +0.000 HD
ENDBRANCH  38  39
ENDBRANCH  21  38
ENDBRANCH   3  21
TORSDOF 10
ENDMDL
MODEL 3
REMARK VINA RESULT:    -7.566      2.352      9.326
REMARK INTER + INTRA:         -12.686
REMARK INTER:                 -12.048
REMARK INTRA:                  -0.639
REMARK UNBOUND:                -0.919
REMARK  Name = 
REMARK  10 active torsions:
REMARK  status: ('A' for Active; 'I' for Inactive)
REMARK    1  A    between atoms: C_2  and  C_3
REMARK    2  A    between atoms: C_3  and  N_4
REMARK    3  A    between atoms: C_5  and  C_7
REMARK    4  A    between atoms: N_17  and  CA_18
REMARK    5  A    between atoms: CA_18  and  C_19
REMARK    6  A    between atoms: CA_18  and  C_21
REMARK    7  A    between atoms: C_19  and  O_20
REMARK    8  A    between atoms: C_24  and  C_25
REMARK    9  A    between atoms: C_25  and  N_26
REMARK   10  A    between atoms: C_27  and  C_29
REMARK                            x       y       z     vdW  Elec       q    Type
REMARK                         _______ _______ _______ _____ _____    ______ ____
ROOT
ATOM      1  O   UNL     1      46.507   9.641  12.693  0.00  0.00    +0.000 OA
ATOM      2  C   UNL     1      46.136   8.536  12.295  0.00  0.00    +0.000 C 
ATOM      3  N   UNL     1      46.783   7.364  12.628  0.00  0.00    +0.000 N 
ATOM      4  H   UNL     1      46.336   6.483  12.395  0.00  0.00    +0.000 HD
ENDROOT
BRANCH   2   5
ATOM      5  C   UNL     1      44.862   8.349  11.463  0.00  0.00    +0.000 C 
BRANCH   5   6
ATOM      6  N   UNL     1      44.682   6.968  11.061  0.00  0.00    +0.000 N 
ATOM      7  C   UNL     1      44.342   5.994  11.962  0.00  0.00    +0.000 C 
ATOM      8  O   UNL     1      44.143   6.261  13.146  0.00  0.00    +0.000 OA
ATOM      9  H   UNL     1      44.915   6.723  10.104  0.00  0.00    +0.000 HD
BRANCH   7  10
ATOM     10  C   UNL     1      44.168   4.635  11.437  0.00  0.00    +0.000 A 
ATOM     11  C   UNL     1      43.423   3.713  12.158  0.00  0.00    +0.000 A 
ATOM     12  S   UNL     1      43.311   2.184  11.412  0.00  0.00    +0.000 S 
ATOM     13  C   UNL     1      44.294   2.684  10.116  0.00  0.00    +0.000 A 
ATOM     14  N   UNL     1      44.628   1.819   9.121  0.00  0.00    +0.000 NA
ATOM     15  C   UNL     1      45.407   2.318   8.220  0.00  0.00    +0.000 A 
ATOM     16  N   UNL     1      45.871   3.608   8.219  0.00  0.00    +0.000 N 
ATOM     17  C   UNL     1      45.515   4.534   9.173  0.00  0.00    +0.000 A 
ATOM     18  O   UNL     1      45.867   5.705   9.093  0.00  0.00    +0.000 OA
ATOM     19  C   UNL     1      44.673   4.010  10.233  0.00  0.00    +0.000 A 
ATOM     20  H   UNL     1      46.456   3.944   7.468  0.00  0.00    +0.000 HD
ENDBRANCH   7  10
ENDBRANCH   5   6
ENDBRANCH   2   5
BRANCH   3  21
ATOM     21  CA  UNL     1      48.030   7.358  13.384  0.00  0.00    +0.000 C 
BRANCH  21  22
ATOM     22  C   UNL     1      47.978   6.337  14.512  0.00  0.00    +0.000 A 
ATOM     23  C   UNL     1      48.734   6.538  15.678  0.00  0.00    +0.000 A 
ATOM     24  C   UNL     1      48.776   5.563  16.683  0.00  0.00    +0.000 A 
ATOM     25  C   UNL     1      48.070   4.362  16.545  0.00  0.00    +0.000 A 
ATOM     26  C   UNL     1      47.263   4.188  15.414  0.00  0.00    +0.000 A 
ATOM     27  C   UNL     1      47.219   5.162  14.409  0.00  0.00    +0.000 A 
BRANCH  25  28
ATOM     28  C   UNL     1      48.178   3.274  17.585  0.00  0.00    +0.000 C 
BRANCH  28  29
ATOM     29  N   UNL     1      49.546   2.971  17.899  0.00  0.00    +0.000 N 
ATOM     30  C   UNL     1      50.326   2.163  17.089  0.00  0.00    +0.000 C 
ATOM     31  O   UNL     1      49.893   1.687  16.045  0.00  0.00    +0.000 OA
ATOM     32  H   UNL     1      49.970   3.375  18.722  0.00  0.00    +0.000 HD
BRANCH  30  33
ATOM     33  C   UNL     1      51.683   1.927  17.575  0.00  0.00    +0.000 A 
ATOM     34  C   UNL     1      52.351   0.717  17.652  0.00  0.00    +0.000 A 
ATOM     35  C   UNL     1      53.661   0.845  18.207  0.00  0.00    +0.000 A 
ATOM     36  C   UNL     1      53.955   2.148  18.532  0.00  0.00    +0.000 A 
ATOM     37  S   UNL     1      52.669   3.207  18.163  0.00  0.00    +0.000 S 
ENDBRANCH  30  33
ENDBRANCH  28  29
ENDBRANCH  25  28
ENDBRANCH  21  22
BRANCH  21  38
ATOM     38  C   UNL     1      49.271   7.118  12.480  0.00  0.00    +0.000 C 
BRANCH  38  39
ATOM     39  O   UNL     1      50.485   7.654  13.008  0.00  0.00    +0.000 OA
ATOM     40  H   UNL     1      51.222   7.103  12.684  0.00  0.00    +0.000 HD
ENDBRANCH  38  39
ENDBRANCH  21  38
ENDBRANCH   3  21
TORSDOF 10
ENDMDL
MODEL 4
REMARK VINA RESULT:    -7.434      3.181     10.523
REMARK INTER + INTRA:         -12.481
REMARK INTER:                 -11.397
REMARK INTRA:                  -1.084
REMARK UNBOUND:                -0.919
REMARK  Name = 
REMARK  10 active torsions:
REMARK  status: ('A' for Active; 'I' for Inactive)
REMARK    1  A    between atoms: C_2  and  C_3
REMARK    2  A    between atoms: C_3  and  N_4
REMARK    3  A    between atoms: C_5  and  C_7
REMARK    4  A    between atoms: N_17  and  CA_18
REMARK    5  A    between atoms: CA_18  and  C_19
REMARK    6  A    between atoms: CA_18  and  C_21
REMARK    7  A    between atoms: C_19  and  O_20
REMARK    8  A    between atoms: C_24  and  C_25
REMARK    9  A    between atoms: C_25  and  N_26
REMARK   10  A    between atoms: C_27  and  C_29
REMARK                            x       y       z     vdW  Elec       q    Type
REMARK                         _______ _______ _______ _____ _____    ______ ____
ROOT
ATOM      1  O   UNL     1      47.773   4.831  17.019  0.00  0.00    +0.000 OA
ATOM      2  C   UNL     1      48.770   5.469  16.679  0.00  0.00    +0.000 C 
ATOM      3  N   UNL     1      50.022   5.238  17.208  0.00  0.00    +0.000 N 
ATOM      4  H   UNL     1      50.821   5.690  16.774  0.00  0.00    +0.000 HD
ENDROOT
BRANCH   2   5
ATOM      5  C   UNL     1      48.731   6.522  15.565  0.00  0.00    +0.000 C 
BRANCH   5   6
ATOM      6  N   UNL     1      47.539   6.396  14.750  0.00  0.00    +0.000 N 
ATOM      7  C   UNL     1      47.608   6.126  13.410  0.00  0.00    +0.000 C 
ATOM      8  O   UNL     1      48.688   5.946  12.850  0.00  0.00    +0.000 OA
ATOM      9  H   UNL     1      46.647   6.615  15.185  0.00  0.00    +0.000 HD
BRANCH   7  10
ATOM     10  C   UNL     1      46.334   6.002  12.691  0.00  0.00    +0.000 A 
ATOM     11  C   UNL     1      45.748   7.132  12.138  0.00  0.00    +0.000 A 
ATOM     12  S   UNL     1      44.278   6.821  11.334  0.00  0.00    +0.000 S 
ATOM     13  C   UNL     1      44.347   5.168  11.732  0.00  0.00    +0.000 A 
ATOM     14  N   UNL     1      43.348   4.321  11.365  0.00  0.00    +0.000 NA
ATOM     15  C   UNL     1      43.510   3.102  11.763  0.00  0.00    +0.000 A 
ATOM     16  N   UNL     1      44.587   2.654  12.482  0.00  0.00    +0.000 N 
ATOM     17  C   UNL     1      45.648   3.461  12.826  0.00  0.00    +0.000 A 
ATOM     18  O   UNL     1      46.642   3.010  13.384  0.00  0.00    +0.000 OA
ATOM     19  C   UNL     1      45.494   4.852  12.439  0.00  0.00    +0.000 A 
ATOM     20  H   UNL     1      44.666   1.680  12.737  0.00  0.00    +0.000 HD
ENDBRANCH   7  10
ENDBRANCH   5   6
ENDBRANCH   2   5
BRANCH   3  21
ATOM     21  CA  UNL     1      50.238   4.297  18.301  0.00  0.00    +0.000 C 
BRANCH  21  22
ATOM     22  C   UNL     1      51.337   3.301  17.956  0.00  0.00    +0.000 A 
ATOM     23  C   UNL     1      51.006   1.994  17.570  0.00  0.00    +0.000 A 
ATOM     24  C   UNL     1      52.004   1.037  17.344  0.00  0.00    +0.000 A 
ATOM     25  C   UNL     1      53.356   1.362  17.505  0.00  0.00    +0.000 A 
ATOM     26  C   UNL     1      53.691   2.684  17.825  0.00  0.00    +0.000 A 
ATOM     27  C   UNL     1      52.695   3.641  18.050  0.00  0.00    +0.000 A 
BRANCH  25  28
ATOM     28  C   UNL     1      54.431   0.316  17.345  0.00  0.00    +0.000 C 
BRANCH  28  29
ATOM     29  N   UNL     1      53.981  -0.980  17.771  0.00  0.00    +0.000 N 
ATOM     30  C   UNL     1      54.197  -1.449  19.056  0.00  0.00    +0.000 C 
ATOM     31  O   UNL     1      54.763  -0.766  19.904  0.00  0.00    +0.000 OA
ATOM     32  H   UNL     1      53.467  -1.566  17.129  0.00  0.00    +0.000 HD
BRANCH  30  33
ATOM     33  C   UNL     1      53.708  -2.801  19.311  0.00  0.00    +0.000 A 
ATOM     34  C   UNL     1      52.885  -3.218  20.345  0.00  0.00    +0.000 A 
ATOM     35  C   UNL     1      52.625  -4.621  20.310  0.00  0.00    +0.000 A 
ATOM     36  C   UNL     1      53.253  -5.233  19.250  0.00  0.00    +0.000 A 
ATOM     37  S   UNL     1      54.137  -4.124  18.301  0.00  0.00    +0.000 S 
ENDBRANCH  30  33
ENDBRANCH  28  29
ENDBRANCH  25  28
ENDBRANCH  21  22
BRANCH  21  38
ATOM     38  C   UNL     1      50.544   5.011  19.648  0.00  0.00    +0.000 C 
BRANCH  38  39
ATOM     39  O   UNL     1      50.009   4.344  20.792  0.00  0.00    +0.000 OA
ATOM     40  H   UNL     1      49.066   4.164  20.620  0.00  0.00    +0.000 HD
ENDBRANCH  38  39
ENDBRANCH  21  38
ENDBRANCH   3  21
TORSDOF 10
ENDMDL
MODEL 5
REMARK VINA RESULT:    -6.739      4.967      6.417
REMARK INTER + INTRA:         -11.400
REMARK INTER:                 -10.923
REMARK INTRA:                  -0.477
REMARK UNBOUND:                -0.919
REMARK  Name = 
REMARK  10 active torsions:
REMARK  status: ('A' for Active; 'I' for Inactive)
REMARK    1  A    between atoms: C_2  and  C_3
REMARK    2  A    between atoms: C_3  and  N_4
REMARK    3  A    between atoms: C_5  and  C_7
REMARK    4  A    between atoms: N_17  and  CA_18
REMARK    5  A    between atoms: CA_18  and  C_19
REMARK    6  A    between atoms: CA_18  and  C_21
REMARK    7  A    between atoms: C_19  and  O_20
REMARK    8  A    between atoms: C_24  and  C_25
REMARK    9  A    between atoms: C_25  and  N_26
REMARK   10  A    between atoms: C_27  and  C_29
REMARK                            x       y       z     vdW  Elec       q    Type
REMARK                         _______ _______ _______ _____ _____    ______ ____
ROOT
ATOM      1  O   UNL     1      49.331   6.128  12.190  0.00  0.00    +0.000 OA
ATOM      2  C   UNL     1      49.507   7.344  12.257  0.00  0.00    +0.000 C 
ATOM      3  N   UNL     1      48.830   8.151  13.146  0.00  0.00    +0.000 N 
ATOM      4  H   UNL     1      49.135   9.114  13.254  0.00  0.00    +0.000 HD
ENDROOT
BRANCH   2   5
ATOM      5  C   UNL     1      50.567   8.067  11.417  0.00  0.00    +0.000 C 
BRANCH   5   6
ATOM      6  N   UNL     1      51.637   7.174  11.020  0.00  0.00    +0.000 N 
ATOM      7  C   UNL     1      52.517   7.503  10.023  0.00  0.00    +0.000 C 
ATOM      8  O   UNL     1      52.453   8.587   9.447  0.00  0.00    +0.000 OA
ATOM      9  H   UNL     1      51.656   6.248  11.436  0.00  0.00    +0.000 HD
BRANCH   7  10
ATOM     10  C   UNL     1      53.572   6.527   9.721  0.00  0.00    +0.000 A 
ATOM     11  C   UNL     1      54.577   6.296  10.650  0.00  0.00    +0.000 A 
ATOM     12  S   UNL     1      55.721   5.134  10.152  0.00  0.00    +0.000 S 
ATOM     13  C   UNL     1      54.939   4.928   8.654  0.00  0.00    +0.000 A 
ATOM     14  N   UNL     1      55.441   4.078   7.718  0.00  0.00    +0.000 NA
ATOM     15  C   UNL     1      54.771   4.045   6.614  0.00  0.00    +0.000 A 
ATOM     16  N   UNL     1      53.637   4.775   6.369  0.00  0.00    +0.000 N 
ATOM     17  C   UNL     1      53.061   5.604   7.306  0.00  0.00    +0.000 A 
ATOM     18  O   UNL     1      51.995   6.169   7.092  0.00  0.00    +0.000 OA
ATOM     19  C   UNL     1      53.802   5.710   8.550  0.00  0.00    +0.000 A 
ATOM     20  H   UNL     1      53.144   4.681   5.493  0.00  0.00    +0.000 HD
ENDBRANCH   7  10
ENDBRANCH   5   6
ENDBRANCH   2   5
BRANCH   3  21
ATOM     21  CA  UNL     1      47.762   7.638  13.997  0.00  0.00    +0.000 C 
BRANCH  21  22
ATOM     22  C   UNL     1      46.689   6.946  13.168  0.00  0.00    +0.000 A 
ATOM     23  C   UNL     1      46.393   5.592  13.389  0.00  0.00    +0.000 A 
ATOM     24  C   UNL     1      45.480   4.914  12.571  0.00  0.00    +0.000 A 
ATOM     25  C   UNL     1      44.846   5.570  11.508  0.00  0.00    +0.000 A 
ATOM     26  C   UNL     1      45.090   6.938  11.328  0.00  0.00    +0.000 A 
ATOM     27  C   UNL     1      46.001   7.617  12.145  0.00  0.00    +0.000 A 
BRANCH  25  28
ATOM     28  C   UNL     1      43.926   4.826  10.573  0.00  0.00    +0.000 C 
BRANCH  28  29
ATOM     29  N   UNL     1      44.607   3.759   9.893  0.00  0.00    +0.000 N 
ATOM     30  C   UNL     1      45.459   3.992   8.826  0.00  0.00    +0.000 C 
ATOM     31  O   UNL     1      45.695   5.128   8.425  0.00  0.00    +0.000 OA
ATOM     32  H   UNL     1      44.488   2.809  10.210  0.00  0.00    +0.000 HD
BRANCH  30  33
ATOM     33  C   UNL     1      46.040   2.794   8.226  0.00  0.00    +0.000 A 
ATOM     34  C   UNL     1      45.757   1.475   8.538  0.00  0.00    +0.000 A 
ATOM     35  C   UNL     1      46.532   0.550   7.774  0.00  0.00    +0.000 A 
ATOM     36  C   UNL     1      47.378   1.190   6.899  0.00  0.00    +0.000 A 
ATOM     37  S   UNL     1      47.232   2.887   6.992  0.00  0.00    +0.000 S 
ENDBRANCH  30  33
ENDBRANCH  28  29
ENDBRANCH  25  28
ENDBRANCH  21  22
BRANCH  21  38
ATOM     38  C   UNL     1      48.293   6.693  15.111  0.00  0.00    +0.000 C 
BRANCH  38  39
ATOM     39  O   UNL     1      48.263   7.264  16.419  0.00  0.00    +0.000 OA
ATOM     40  H   UNL     1      47.535   7.913  16.446  0.00  0.00    +0.000 HD
ENDBRANCH  38  39
ENDBRANCH  21  38
ENDBRANCH   3  21
TORSDOF 10
ENDMDL
MODEL 6
REMARK VINA RESULT:    -6.516      2.473      3.560
REMARK INTER + INTRA:         -11.053
REMARK INTER:                 -10.444
REMARK INTRA:                  -0.610
REMARK UNBOUND:                -0.919
REMARK  Name = 
REMARK  10 active torsions:
REMARK  status: ('A' for Active; 'I' for Inactive)
REMARK    1  A    between atoms: C_2  and  C_3
REMARK    2  A    between atoms: C_3  and  N_4
REMARK    3  A    between atoms: C_5  and  C_7
REMARK    4  A    between atoms: N_17  and  CA_18
REMARK    5  A    between atoms: CA_18  and  C_19
REMARK    6  A    between atoms: CA_18  and  C_21
REMARK    7  A    between atoms: C_19  and  O_20
REMARK    8  A    between atoms: C_24  and  C_25
REMARK    9  A    between atoms: C_25  and  N_26
REMARK   10  A    between atoms: C_27  and  C_29
REMARK                            x       y       z     vdW  Elec       q    Type
REMARK                         _______ _______ _______ _____ _____    ______ ____
ROOT
ATOM      1  O   UNL     1      48.353   5.565  12.845  0.00  0.00    +0.000 OA
ATOM      2  C   UNL     1      48.312   6.296  13.835  0.00  0.00    +0.000 C 
ATOM      3  N   UNL     1      47.608   5.972  14.976  0.00  0.00    +0.000 N 
ATOM      4  H   UNL     1      47.744   6.541  15.806  0.00  0.00    +0.000 HD
ENDROOT
BRANCH   2   5
ATOM      5  C   UNL     1      49.118   7.597  13.929  0.00  0.00    +0.000 C 
BRANCH   5   6
ATOM      6  N   UNL     1      50.384   7.396  14.606  0.00  0.00    +0.000 N 
ATOM      7  C   UNL     1      50.938   8.364  15.400  0.00  0.00    +0.000 C 
ATOM      8  O   UNL     1      50.364   9.434  15.597  0.00  0.00    +0.000 OA
ATOM      9  H   UNL     1      50.901   6.548  14.393  0.00  0.00    +0.000 HD
BRANCH   7  10
ATOM     10  C   UNL     1      52.214   8.040  16.050  0.00  0.00    +0.000 A 
ATOM     11  C   UNL     1      53.247   8.966  16.027  0.00  0.00    +0.000 A 
ATOM     12  S   UNL     1      54.658   8.442  16.828  0.00  0.00    +0.000 S 
ATOM     13  C   UNL     1      53.955   6.937  17.198  0.00  0.00    +0.000 A 
ATOM     14  N   UNL     1      54.662   5.981  17.858  0.00  0.00    +0.000 NA
ATOM     15  C   UNL     1      54.021   4.875  18.041  0.00  0.00    +0.000 A 
ATOM     16  N   UNL     1      52.732   4.645  17.635  0.00  0.00    +0.000 N 
ATOM     17  C   UNL     1      51.959   5.601  17.015  0.00  0.00    +0.000 A 
ATOM     18  O   UNL     1      50.780   5.398  16.750  0.00  0.00    +0.000 OA
ATOM     19  C   UNL     1      52.649   6.849  16.746  0.00  0.00    +0.000 A 
ATOM     20  H   UNL     1      52.279   3.765  17.835  0.00  0.00    +0.000 HD
ENDBRANCH   7  10
ENDBRANCH   5   6
ENDBRANCH   2   5
BRANCH   3  21
ATOM     21  CA  UNL     1      46.758   4.789  15.049  0.00  0.00    +0.000 C 
BRANCH  21  22
ATOM     22  C   UNL     1      45.914   4.645  13.791  0.00  0.00    +0.000 A 
ATOM     23  C   UNL     1      45.917   3.438  13.075  0.00  0.00    +0.000 A 
ATOM     24  C   UNL     1      45.225   3.319  11.863  0.00  0.00    +0.000 A 
ATOM     25  C   UNL     1      44.518   4.406  11.333  0.00  0.00    +0.000 A 
ATOM     26  C   UNL     1      44.458   5.590  12.079  0.00  0.00    +0.000 A 
ATOM     27  C   UNL     1      45.148   5.709  13.291  0.00  0.00    +0.000 A 
BRANCH  25  28
ATOM     28  C   UNL     1      43.840   4.311   9.989  0.00  0.00    +0.000 C 
BRANCH  28  29
ATOM     29  N   UNL     1      44.622   3.555   9.051  0.00  0.00    +0.000 N 
ATOM     30  C   UNL     1      45.670   4.120   8.343  0.00  0.00    +0.000 C 
ATOM     31  O   UNL     1      46.000   5.290   8.504  0.00  0.00    +0.000 OA
ATOM     32  H   UNL     1      44.426   2.575   8.913  0.00  0.00    +0.000 HD
BRANCH  30  33
ATOM     33  C   UNL     1      46.336   3.222   7.403  0.00  0.00    +0.000 A 
ATOM     34  C   UNL     1      46.828   3.532   6.146  0.00  0.00    +0.000 A 
ATOM     35  C   UNL     1      47.394   2.403   5.482  0.00  0.00    +0.000 A 
ATOM     36  C   UNL     1      47.322   1.265   6.252  0.00  0.00    +0.000 A 
ATOM     37  S   UNL     1      46.588   1.560   7.763  0.00  0.00    +0.000 S 
ENDBRANCH  30  33
ENDBRANCH  28  29
ENDBRANCH  25  28
ENDBRANCH  21  22
BRANCH  21  38
ATOM     38  C   UNL     1      47.569   3.491  15.321  0.00  0.00    +0.000 C 
BRANCH  38  39
ATOM     39  O   UNL     1      48.561   3.630  16.340  0.00  0.00    +0.000 OA
ATOM     40  H   UNL     1      48.616   4.574  16.578  0.00  0.00    +0.000 HD
ENDBRANCH  38  39
ENDBRANCH  21  38
ENDBRANCH   3  21
TORSDOF 10
ENDMDL
MODEL 7
REMARK VINA RESULT:    -6.414      2.432      9.655
REMARK INTER + INTRA:         -10.895
REMARK INTER:                 -10.319
REMARK INTRA:                  -0.576
REMARK UNBOUND:                -0.919
REMARK  Name = 
REMARK  10 active torsions:
REMARK  status: ('A' for Active; 'I' for Inactive)
REMARK    1  A    between atoms: C_2  and  C_3
REMARK    2  A    between atoms: C_3  and  N_4
REMARK    3  A    between atoms: C_5  and  C_7
REMARK    4  A    between atoms: N_17  and  CA_18
REMARK    5  A    between atoms: CA_18  and  C_19
REMARK    6  A    between atoms: CA_18  and  C_21
REMARK    7  A    between atoms: C_19  and  O_20
REMARK    8  A    between atoms: C_24  and  C_25
REMARK    9  A    between atoms: C_25  and  N_26
REMARK   10  A    between atoms: C_27  and  C_29
REMARK                            x       y       z     vdW  Elec       q    Type
REMARK                         _______ _______ _______ _____ _____    ______ ____
ROOT
ATOM      1  O   UNL     1      49.553   6.872  12.463  0.00  0.00    +0.000 OA
ATOM      2  C   UNL     1      48.699   7.712  12.749  0.00  0.00    +0.000 C 
ATOM      3  N   UNL     1      48.851   8.613  13.781  0.00  0.00    +0.000 N 
ATOM      4  H   UNL     1      48.183   9.373  13.862  0.00  0.00    +0.000 HD
ENDROOT
BRANCH   2   5
ATOM      5  C   UNL     1      47.420   7.896  11.923  0.00  0.00    +0.000 C 
BRANCH   5   6
ATOM      6  N   UNL     1      46.738   6.636  11.702  0.00  0.00    +0.000 N 
ATOM      7  C   UNL     1      45.372   6.551  11.680  0.00  0.00    +0.000 C 
ATOM      8  O   UNL     1      44.667   7.550  11.813  0.00  0.00    +0.000 OA
ATOM      9  H   UNL     1      47.306   5.795  11.664  0.00  0.00    +0.000 HD
BRANCH   7  10
ATOM     10  C   UNL     1      44.793   5.225  11.428  0.00  0.00    +0.000 A 
ATOM     11  C   UNL     1      44.030   4.614  12.413  0.00  0.00    +0.000 A 
ATOM     12  S   UNL     1      43.426   3.084  11.966  0.00  0.00    +0.000 S 
ATOM     13  C   UNL     1      44.201   3.161  10.452  0.00  0.00    +0.000 A 
ATOM     14  N   UNL     1      44.117   2.126   9.574  0.00  0.00    +0.000 NA
ATOM     15  C   UNL     1      44.781   2.301   8.480  0.00  0.00    +0.000 A 
ATOM     16  N   UNL     1      45.510   3.423   8.181  0.00  0.00    +0.000 N 
ATOM     17  C   UNL     1      45.577   4.517   9.014  0.00  0.00    +0.000 A 
ATOM     18  O   UNL     1      46.156   5.543   8.678  0.00  0.00    +0.000 OA
ATOM     19  C   UNL     1      44.881   4.353  10.277  0.00  0.00    +0.000 A 
ATOM     20  H   UNL     1      45.983   3.507   7.293  0.00  0.00    +0.000 HD
ENDBRANCH   7  10
ENDBRANCH   5   6
ENDBRANCH   2   5
BRANCH   3  21
ATOM     21  CA  UNL     1      49.989   8.560  14.691  0.00  0.00    +0.000 C 
BRANCH  21  22
ATOM     22  C   UNL     1      49.871   7.380  15.645  0.00  0.00    +0.000 A 
ATOM     23  C   UNL     1      51.024   6.813  16.210  0.00  0.00    +0.000 A 
ATOM     24  C   UNL     1      50.942   5.667  17.011  0.00  0.00    +0.000 A 
ATOM     25  C   UNL     1      49.707   5.055  17.261  0.00  0.00    +0.000 A 
ATOM     26  C   UNL     1      48.549   5.658  16.754  0.00  0.00    +0.000 A 
ATOM     27  C   UNL     1      48.629   6.804  15.955  0.00  0.00    +0.000 A 
BRANCH  25  28
ATOM     28  C   UNL     1      49.621   3.774  18.053  0.00  0.00    +0.000 C 
BRANCH  28  29
ATOM     29  N   UNL     1      50.921   3.229  18.328  0.00  0.00    +0.000 N 
ATOM     30  C   UNL     1      51.455   2.189  17.585  0.00  0.00    +0.000 C 
ATOM     31  O   UNL     1      50.851   1.698  16.637  0.00  0.00    +0.000 OA
ATOM     32  H   UNL     1      51.483   3.625  19.067  0.00  0.00    +0.000 HD
BRANCH  30  33
ATOM     33  C   UNL     1      52.771   1.730  18.022  0.00  0.00    +0.000 A 
ATOM     34  C   UNL     1      53.684   2.415  18.806  0.00  0.00    +0.000 A 
ATOM     35  C   UNL     1      54.889   1.680  19.017  0.00  0.00    +0.000 A 
ATOM     36  C   UNL     1      54.860   0.455  18.393  0.00  0.00    +0.000 A 
ATOM     37  S   UNL     1      53.389   0.191  17.569  0.00  0.00    +0.000 S 
ENDBRANCH  30  33
ENDBRANCH  28  29
ENDBRANCH  25  28
ENDBRANCH  21  22
BRANCH  21  38
ATOM     38  C   UNL     1      51.350   8.527  13.939  0.00  0.00    +0.000 C 
BRANCH  38  39
ATOM     39  O   UNL     1      51.657   9.736  13.244  0.00  0.00    +0.000 OA
ATOM     40  H   UNL     1      51.816  10.432  13.908  0.00  0.00    +0.000 HD
ENDBRANCH  38  39
ENDBRANCH  21  38
ENDBRANCH   3  21
TORSDOF 10
ENDMDL
MODEL 8
REMARK VINA RESULT:    -6.330      4.009      9.342
REMARK INTER + INTRA:         -10.764
REMARK INTER:                  -9.001
REMARK INTRA:                  -1.762
REMARK UNBOUND:                -0.919
REMARK  Name = 
REMARK  10 active torsions:
REMARK  status: ('A' for Active; 'I' for Inactive)
REMARK    1  A    between atoms: C_2  and  C_3
REMARK    2  A    between atoms: C_3  and  N_4
REMARK    3  A    between atoms: C_5  and  C_7
REMARK    4  A    between atoms: N_17  and  CA_18
REMARK    5  A    between atoms: CA_18  and  C_19
REMARK    6  A    between atoms: CA_18  and  C_21
REMARK    7  A    between atoms: C_19  and  O_20
REMARK    8  A    between atoms: C_24  and  C_25
REMARK    9  A    between atoms: C_25  and  N_26
REMARK   10  A    between atoms: C_27  and  C_29
REMARK                            x       y       z     vdW  Elec       q    Type
REMARK                         _______ _______ _______ _____ _____    ______ ____
ROOT
ATOM      1  O   UNL     1      47.490   3.031  14.732  0.00  0.00    +0.000 OA
ATOM      2  C   UNL     1      47.147   4.205  14.878  0.00  0.00    +0.000 C 
ATOM      3  N   UNL     1      47.220   4.860  16.089  0.00  0.00    +0.000 N 
ATOM      4  H   UNL     1      47.069   5.864  16.105  0.00  0.00    +0.000 HD
ENDROOT
BRANCH   2   5
ATOM      5  C   UNL     1      46.692   5.080  13.704  0.00  0.00    +0.000 C 
BRANCH   5   6
ATOM      6  N   UNL     1      47.078   6.465  13.887  0.00  0.00    +0.000 N 
ATOM      7  C   UNL     1      48.231   6.968  13.347  0.00  0.00    +0.000 C 
ATOM      8  O   UNL     1      48.971   6.270  12.655  0.00  0.00    +0.000 OA
ATOM      9  H   UNL     1      46.516   7.031  14.515  0.00  0.00    +0.000 HD
BRANCH   7  10
ATOM     10  C   UNL     1      48.509   8.391  13.582  0.00  0.00    +0.000 A 
ATOM     11  C   UNL     1      48.587   9.260  12.502  0.00  0.00    +0.000 A 
ATOM     12  S   UNL     1      48.909  10.875  12.941  0.00  0.00    +0.000 S 
ATOM     13  C   UNL     1      49.001  10.466  14.591  0.00  0.00    +0.000 A 
ATOM     14  N   UNL     1      49.293  11.408  15.527  0.00  0.00    +0.000 NA
ATOM     15  C   UNL     1      49.367  10.954  16.734  0.00  0.00    +0.000 A 
ATOM     16  N   UNL     1      49.161   9.646  17.089  0.00  0.00    +0.000 N 
ATOM     17  C   UNL     1      48.808   8.670  16.185  0.00  0.00    +0.000 A 
ATOM     18  O   UNL     1      48.536   7.531  16.545  0.00  0.00    +0.000 OA
ATOM     19  C   UNL     1      48.754   9.121  14.806  0.00  0.00    +0.000 A 
ATOM     20  H   UNL     1      49.206   9.363  18.058  0.00  0.00    +0.000 HD
ENDBRANCH   7  10
ENDBRANCH   5   6
ENDBRANCH   2   5
BRANCH   3  21
ATOM     21  CA  UNL     1      47.597   4.173  17.319  0.00  0.00    +0.000 C 
BRANCH  21  22
ATOM     22  C   UNL     1      49.096   3.907  17.357  0.00  0.00    +0.000 A 
ATOM     23  C   UNL     1      49.579   2.591  17.303  0.00  0.00    +0.000 A 
ATOM     24  C   UNL     1      50.947   2.321  17.436  0.00  0.00    +0.000 A 
ATOM     25  C   UNL     1      51.865   3.360  17.633  0.00  0.00    +0.000 A 
ATOM     26  C   UNL     1      51.393   4.679  17.619  0.00  0.00    +0.000 A 
ATOM     27  C   UNL     1      50.027   4.949  17.485  0.00  0.00    +0.000 A 
BRANCH  25  28
ATOM     28  C   UNL     1      53.328   3.072  17.860  0.00  0.00    +0.000 C 
BRANCH  28  29
ATOM     29  N   UNL     1      53.599   1.661  17.859  0.00  0.00    +0.000 N 
ATOM     30  C   UNL     1      54.606   1.105  17.088  0.00  0.00    +0.000 C 
ATOM     31  O   UNL     1      55.335   1.796  16.385  0.00  0.00    +0.000 OA
ATOM     32  H   UNL     1      53.061   1.049  18.455  0.00  0.00    +0.000 HD
BRANCH  30  33
ATOM     33  C   UNL     1      54.721  -0.348  17.177  0.00  0.00    +0.000 A 
ATOM     34  C   UNL     1      55.034  -1.232  16.158  0.00  0.00    +0.000 A 
ATOM     35  C   UNL     1      55.032  -2.593  16.589  0.00  0.00    +0.000 A 
ATOM     36  C   UNL     1      54.723  -2.708  17.925  0.00  0.00    +0.000 A 
ATOM     37  S   UNL     1      54.448  -1.189  18.651  0.00  0.00    +0.000 S 
ENDBRANCH  30  33
ENDBRANCH  28  29
ENDBRANCH  25  28
ENDBRANCH  21  22
BRANCH  21  38
ATOM     38  C   UNL     1      47.141   4.939  18.592  0.00  0.00    +0.000 C 
BRANCH  38  39
ATOM     39  O   UNL     1      46.896   6.329  18.375  0.00  0.00    +0.000 OA
ATOM     40  H   UNL     1      46.753   6.748  19.244  0.00  0.00    +0.000 HD
ENDBRANCH  38  39
ENDBRANCH  21  38
ENDBRANCH   3  21
TORSDOF 10
ENDMDL
MODEL 9
REMARK VINA RESULT:    -6.261      5.078      6.789
REMARK INTER + INTRA:         -10.657
REMARK INTER:                  -9.867
REMARK INTRA:                  -0.791
REMARK UNBOUND:                -0.919
REMARK  Name = 
REMARK  10 active torsions:
REMARK  status: ('A' for Active; 'I' for Inactive)
REMARK    1  A    between atoms: C_2  and  C_3
REMARK    2  A    between atoms: C_3  and  N_4
REMARK    3  A    between atoms: C_5  and  C_7
REMARK    4  A    between atoms: N_17  and  CA_18
REMARK    5  A    between atoms: CA_18  and  C_19
REMARK    6  A    between atoms: CA_18  and  C_21
REMARK    7  A    between atoms: C_19  and  O_20
REMARK    8  A    between atoms: C_24  and  C_25
REMARK    9  A    between atoms: C_25  and  N_26
REMARK   10  A    between atoms: C_27  and  C_29
REMARK                            x       y       z     vdW  Elec       q    Type
REMARK                         _______ _______ _______ _____ _____    ______ ____
ROOT
ATOM      1  O   UNL     1      48.996   7.878  11.629  0.00  0.00    +0.000 OA
ATOM      2  C   UNL     1      48.696   8.994  12.052  0.00  0.00    +0.000 C 
ATOM      3  N   UNL     1      47.964   9.186  13.205  0.00  0.00    +0.000 N 
ATOM      4  H   UNL     1      47.887  10.128  13.577  0.00  0.00    +0.000 HD
ENDROOT
BRANCH   2   5
ATOM      5  C   UNL     1      49.189  10.284  11.386  0.00  0.00    +0.000 C 
BRANCH   5   6
ATOM      6  N   UNL     1      50.379  10.056  10.591  0.00  0.00    +0.000 N 
ATOM      7  C   UNL     1      51.635  10.229  11.109  0.00  0.00    +0.000 C 
ATOM      8  O   UNL     1      51.802  10.555  12.283  0.00  0.00    +0.000 OA
ATOM      9  H   UNL     1      50.254   9.860   9.602  0.00  0.00    +0.000 HD
BRANCH   7  10
ATOM     10  C   UNL     1      52.766   9.950  10.215  0.00  0.00    +0.000 A 
ATOM     11  C   UNL     1      53.627  10.979   9.859  0.00  0.00    +0.000 A 
ATOM     12  S   UNL     1      54.890  10.492   8.823  0.00  0.00    +0.000 S 
ATOM     13  C   UNL     1      54.308   8.893   8.775  0.00  0.00    +0.000 A 
ATOM     14  N   UNL     1      54.927   7.949   8.018  0.00  0.00    +0.000 NA
ATOM     15  C   UNL     1      54.360   6.788   8.045  0.00  0.00    +0.000 A 
ATOM     16  N   UNL     1      53.238   6.486   8.772  0.00  0.00    +0.000 N 
ATOM     17  C   UNL     1      52.611   7.393   9.596  0.00  0.00    +0.000 A 
ATOM     18  O   UNL     1      51.668   7.067  10.308  0.00  0.00    +0.000 OA
ATOM     19  C   UNL     1      53.185   8.726   9.568  0.00  0.00    +0.000 A 
ATOM     20  H   UNL     1      52.862   5.549   8.771  0.00  0.00    +0.000 HD
ENDBRANCH   7  10
ENDBRANCH   5   6
ENDBRANCH   2   5
BRANCH   3  21
ATOM     21  CA  UNL     1      47.386   8.072  13.947  0.00  0.00    +0.000 C 
BRANCH  21  22
ATOM     22  C   UNL     1      46.406   7.290  13.083  0.00  0.00    +0.000 A 
ATOM     23  C   UNL     1      46.512   5.895  12.985  0.00  0.00    +0.000 A 
ATOM     24  C   UNL     1      45.683   5.170  12.119  0.00  0.00    +0.000 A 
ATOM     25  C   UNL     1      44.733   5.823  11.324  0.00  0.00    +0.000 A 
ATOM     26  C   UNL     1      44.580   7.208  11.470  0.00  0.00    +0.000 A 
ATOM     27  C   UNL     1      45.407   7.933  12.336  0.00  0.00    +0.000 A 
BRANCH  25  28
ATOM     28  C   UNL     1      43.895   5.059  10.329  0.00  0.00    +0.000 C 
BRANCH  28  29
ATOM     29  N   UNL     1      44.694   4.519   9.265  0.00  0.00    +0.000 N 
ATOM     30  C   UNL     1      44.918   3.159   9.129  0.00  0.00    +0.000 C 
ATOM     31  O   UNL     1      44.420   2.345   9.900  0.00  0.00    +0.000 OA
ATOM     32  H   UNL     1      45.089   5.139   8.573  0.00  0.00    +0.000 HD
BRANCH  30  33
ATOM     33  C   UNL     1      45.783   2.783   8.014  0.00  0.00    +0.000 A 
ATOM     34  C   UNL     1      46.150   3.566   6.932  0.00  0.00    +0.000 A 
ATOM     35  C   UNL     1      46.987   2.871   6.009  0.00  0.00    +0.000 A 
ATOM     36  C   UNL     1      47.238   1.580   6.414  0.00  0.00    +0.000 A 
ATOM     37  S   UNL     1      46.480   1.216   7.898  0.00  0.00    +0.000 S 
ENDBRANCH  30  33
ENDBRANCH  28  29
ENDBRANCH  25  28
ENDBRANCH  21  22
BRANCH  21  38
ATOM     38  C   UNL     1      48.469   7.130  14.543  0.00  0.00    +0.000 C 
BRANCH  38  39
ATOM     39  O   UNL     1      48.243   6.778  15.909  0.00  0.00    +0.000 OA
ATOM     40  H   UNL     1      48.273   5.805  15.977  0.00  0.00    +0.000 HD
ENDBRANCH  38  39
ENDBRANCH  21  38
ENDBRANCH   3  21
TORSDOF 10
ENDMDL
