MODEL 1
REMARK VINA RESULT:    -7.467      0.000      0.000
REMARK INTER + INTRA:         -11.892
REMARK INTER:                 -10.086
REMARK INTRA:                  -1.805
REMARK UNBOUND:                -1.805
REMARK  Name = 
REMARK  10 active torsions:
REMARK  status: ('A' for Active; 'I' for Inactive)
REMARK    1  A    between atoms: C_1  and  C_2
REMARK    2  A    between atoms: C_2  and  N_3
REMARK    3  A    between atoms: C_2  and  C_17
REMARK    4  A    between atoms: C_4  and  C_6
REMARK    5  A    between atoms: N_12  and  C_13
REMARK    6  A    between atoms: C_20  and  C_21
REMARK    7  A    between atoms: C_21  and  C_22
REMARK    8  A    between atoms: C_22  and  C_23
REMARK    9  A    between atoms: C_22  and  C_24
REMARK   10  A    between atoms: C_22  and  C_25
REMARK                            x       y       z     vdW  Elec       q    Type
REMARK                         _______ _______ _______ _____ _____    ______ ____
ROOT
ATOM      1  C   UNL     1      48.736   8.306  11.405  0.00  0.00    +0.000 C 
ATOM      2  C   UNL     1      47.627   8.091  12.433  0.00  0.00    +0.000 C 
ENDROOT
BRANCH   2   3
ATOM      3  C   UNL     1      48.254   8.079  13.817  0.00  0.00    +0.000 A 
ATOM      4  C   UNL     1      49.177   7.081  14.117  0.00  0.00    +0.000 A 
ATOM      5  C   UNL     1      49.669   6.940  15.411  0.00  0.00    +0.000 A 
ATOM      6  C   UNL     1      49.255   7.775  16.458  0.00  0.00    +0.000 A 
ATOM      7  C   UNL     1      48.378   8.821  16.137  0.00  0.00    +0.000 A 
ATOM      8  C   UNL     1      47.878   8.968  14.837  0.00  0.00    +0.000 A 
BRANCH   6   9
ATOM      9  C   UNL     1      49.655   7.591  17.920  0.00  0.00    +0.000 C 
BRANCH   9  10
ATOM     10  C   UNL     1      48.864   6.595  18.832  0.00  0.00    +0.000 C 
ATOM     11  C   UNL     1      49.678   6.287  20.116  0.00  0.00    +0.000 C 
ATOM     12  C   UNL     1      47.445   7.159  19.086  0.00  0.00    +0.000 C 
BRANCH  10  13
ATOM     13  C   UNL     1      48.660   5.220  18.154  0.00  0.00    +0.000 A 
ATOM     14  C   UNL     1      47.373   4.823  17.762  0.00  0.00    +0.000 A 
ATOM     15  C   UNL     1      47.178   3.558  17.216  0.00  0.00    +0.000 A 
ATOM     16  C   UNL     1      48.264   2.718  17.066  0.00  0.00    +0.000 A 
ATOM     17  C   UNL     1      49.508   3.181  17.462  0.00  0.00    +0.000 A 
ATOM     18  N   UNL     1      49.728   4.403  17.999  0.00  0.00    +0.000 NA
ENDBRANCH  10  13
ENDBRANCH   9  10
ENDBRANCH   6   9
ENDBRANCH   2   3
BRANCH   2  19
ATOM     19  N   UNL     1      46.875   6.878  12.214  0.00  0.00    +0.000 N 
ATOM     20  C   UNL     1      45.541   6.865  11.899  0.00  0.00    +0.000 C 
ATOM     21  O   UNL     1      44.896   7.871  11.625  0.00  0.00    +0.000 OA
ATOM     22  H   UNL     1      47.204   6.095  12.765  0.00  0.00    +0.000 HD
BRANCH  20  23
ATOM     23  C   UNL     1      44.953   5.526  11.831  0.00  0.00    +0.000 A 
ATOM     24  C   UNL     1      44.266   4.996  12.912  0.00  0.00    +0.000 A 
ATOM     25  S   UNL     1      43.546   3.485  12.570  0.00  0.00    +0.000 S 
ATOM     26  C   UNL     1      44.176   3.472  10.988  0.00  0.00    +0.000 A 
ATOM     27  N   UNL     1      43.913   2.460  10.123  0.00  0.00    +0.000 NA
ATOM     28  C   UNL     1      44.474   2.586   8.964  0.00  0.00    +0.000 A 
ATOM     29  N   UNL     1      45.299   3.622   8.578  0.00  0.00    +0.000 N 
ATOM     30  C   UNL     1      45.886   3.661   7.253  0.00  0.00    +0.000 C 
ATOM     31  C   UNL     1      45.598   4.665   9.441  0.00  0.00    +0.000 A 
ATOM     32  O   UNL     1      46.337   5.598   9.134  0.00  0.00    +0.000 OA
ATOM     33  C   UNL     1      44.946   4.590  10.736  0.00  0.00    +0.000 A 
ENDBRANCH  20  23
ENDBRANCH   2  19
TORSDOF 6
ENDMDL
MODEL 2
REMARK VINA RESULT:    -6.928      3.109      8.158
REMARK INTER + INTRA:         -11.163
REMARK INTER:                  -9.424
REMARK INTRA:                  -1.740
REMARK UNBOUND:                -1.805
REMARK  Name = 
REMARK  10 active torsions:
REMARK  status: ('A' for Active; 'I' for Inactive)
REMARK    1  A    between atoms: C_1  and  C_2
REMARK    2  A    between atoms: C_2  and  N_3
REMARK    3  A    between atoms: C_2  and  C_17
REMARK    4  A    between atoms: C_4  and  C_6
REMARK    5  A    between atoms: N_12  and  C_13
REMARK    6  A    between atoms: C_20  and  C_21
REMARK    7  A    between atoms: C_21  and  C_22
REMARK    8  A    between atoms: C_22  and  C_23
REMARK    9  A    between atoms: C_22  and  C_24
REMARK   10  A    between atoms: C_22  and  C_25
REMARK                            x       y       z     vdW  Elec       q    Type
REMARK                         _______ _______ _______ _____ _____    ______ ____
ROOT
ATOM      1  C   UNL     1      49.648  10.336  13.360  0.00  0.00    +0.000 C 
ATOM      2  C   UNL     1      49.697   8.837  13.650  0.00  0.00    +0.000 C 
ENDROOT
BRANCH   2   3
ATOM      3  C   UNL     1      48.399   8.213  13.166  0.00  0.00    +0.000 A 
ATOM      4  C   UNL     1      48.462   7.243  12.169  0.00  0.00    +0.000 A 
ATOM      5  C   UNL     1      47.297   6.748  11.591  0.00  0.00    +0.000 A 
ATOM      6  C   UNL     1      46.027   7.205  11.972  0.00  0.00    +0.000 A 
ATOM      7  C   UNL     1      45.966   8.130  13.023  0.00  0.00    +0.000 A 
ATOM      8  C   UNL     1      47.135   8.634  13.608  0.00  0.00    +0.000 A 
BRANCH   6   9
ATOM      9  C   UNL     1      44.722   6.800  11.289  0.00  0.00    +0.000 C 
BRANCH   9  10
ATOM     10  C   UNL     1      44.144   5.359  11.491  0.00  0.00    +0.000 C 
ATOM     11  C   UNL     1      44.701   4.739  12.799  0.00  0.00    +0.000 C 
ATOM     12  C   UNL     1      42.599   5.418  11.411  0.00  0.00    +0.000 C 
BRANCH  10  13
ATOM     13  C   UNL     1      44.590   4.390  10.372  0.00  0.00    +0.000 A 
ATOM     14  C   UNL     1      45.288   4.886   9.261  0.00  0.00    +0.000 A 
ATOM     15  C   UNL     1      45.629   4.027   8.220  0.00  0.00    +0.000 A 
ATOM     16  C   UNL     1      45.274   2.694   8.308  0.00  0.00    +0.000 A 
ATOM     17  C   UNL     1      44.597   2.272   9.441  0.00  0.00    +0.000 A 
ATOM     18  N   UNL     1      44.250   3.083  10.466  0.00  0.00    +0.000 NA
ENDBRANCH  10  13
ENDBRANCH   9  10
ENDBRANCH   6   9
ENDBRANCH   2   3
BRANCH   2  19
ATOM     19  N   UNL     1      49.907   8.533  15.046  0.00  0.00    +0.000 N 
ATOM     20  C   UNL     1      51.049   7.945  15.526  0.00  0.00    +0.000 C 
ATOM     21  O   UNL     1      52.054   7.759  14.850  0.00  0.00    +0.000 OA
ATOM     22  H   UNL     1      49.054   8.306  15.541  0.00  0.00    +0.000 HD
BRANCH  20  23
ATOM     23  C   UNL     1      51.005   7.627  16.954  0.00  0.00    +0.000 A 
ATOM     24  C   UNL     1      51.855   8.259  17.849  0.00  0.00    +0.000 A 
ATOM     25  S   UNL     1      51.541   7.841  19.476  0.00  0.00    +0.000 S 
ATOM     26  C   UNL     1      50.300   6.764  19.026  0.00  0.00    +0.000 A 
ATOM     27  N   UNL     1      49.579   6.081  19.950  0.00  0.00    +0.000 NA
ATOM     28  C   UNL     1      48.681   5.293  19.453  0.00  0.00    +0.000 A 
ATOM     29  N   UNL     1      48.438   5.097  18.109  0.00  0.00    +0.000 N 
ATOM     30  C   UNL     1      47.411   4.179  17.658  0.00  0.00    +0.000 C 
ATOM     31  C   UNL     1      49.165   5.770  17.139  0.00  0.00    +0.000 A 
ATOM     32  O   UNL     1      48.982   5.612  15.934  0.00  0.00    +0.000 OA
ATOM     33  C   UNL     1      50.147   6.706  17.655  0.00  0.00    +0.000 A 
ENDBRANCH  20  23
ENDBRANCH   2  19
TORSDOF 6
ENDMDL
MODEL 3
REMARK VINA RESULT:    -6.678      3.867      5.578
REMARK INTER + INTRA:         -10.826
REMARK INTER:                  -9.621
REMARK INTRA:                  -1.205
REMARK UNBOUND:                -1.805
REMARK  Name = 
REMARK  10 active torsions:
REMARK  status: ('A' for Active; 'I' for Inactive)
REMARK    1  A    between atoms: C_1  and  C_2
REMARK    2  A    between atoms: C_2  and  N_3
REMARK    3  A    between atoms: C_2  and  C_17
REMARK    4  A    between atoms: C_4  and  C_6
REMARK    5  A    between atoms: N_12  and  C_13
REMARK    6  A    between atoms: C_20  and  C_21
REMARK    7  A    between atoms: C_21  and  C_22
REMARK    8  A    between atoms: C_22  and  C_23
REMARK    9  A    between atoms: C_22  and  C_24
REMARK   10  A    between atoms: C_22  and  C_25
REMARK                            x       y       z     vdW  Elec       q    Type
REMARK                         _______ _______ _______ _____ _____    ______ ____
ROOT
ATOM      1  C   UNL     1      47.081   5.136  18.627  0.00  0.00    +0.000 C 
ATOM      2  C   UNL     1      47.656   4.399  17.418  0.00  0.00    +0.000 C 
ENDROOT
BRANCH   2   3
ATOM      3  C   UNL     1      49.157   4.261  17.611  0.00  0.00    +0.000 A 
ATOM      4  C   UNL     1      49.898   5.410  17.877  0.00  0.00    +0.000 A 
ATOM      5  C   UNL     1      51.288   5.358  17.918  0.00  0.00    +0.000 A 
ATOM      6  C   UNL     1      51.994   4.170  17.685  0.00  0.00    +0.000 A 
ATOM      7  C   UNL     1      51.242   3.004  17.486  0.00  0.00    +0.000 A 
ATOM      8  C   UNL     1      49.843   3.048  17.442  0.00  0.00    +0.000 A 
BRANCH   6   9
ATOM      9  C   UNL     1      53.515   4.074  17.587  0.00  0.00    +0.000 C 
BRANCH   9  10
ATOM     10  C   UNL     1      54.324   3.279  18.666  0.00  0.00    +0.000 C 
ATOM     11  C   UNL     1      55.763   3.848  18.780  0.00  0.00    +0.000 C 
ATOM     12  C   UNL     1      53.526   3.271  19.992  0.00  0.00    +0.000 C 
BRANCH  10  13
ATOM     13  C   UNL     1      54.515   1.795  18.276  0.00  0.00    +0.000 A 
ATOM     14  C   UNL     1      54.781   1.456  16.941  0.00  0.00    +0.000 A 
ATOM     15  C   UNL     1      54.883   0.117  16.576  0.00  0.00    +0.000 A 
ATOM     16  C   UNL     1      54.725  -0.855  17.545  0.00  0.00    +0.000 A 
ATOM     17  C   UNL     1      54.477  -0.447  18.845  0.00  0.00    +0.000 A 
ATOM     18  N   UNL     1      54.370   0.845  19.229  0.00  0.00    +0.000 NA
ENDBRANCH  10  13
ENDBRANCH   9  10
ENDBRANCH   6   9
ENDBRANCH   2   3
BRANCH   2  19
ATOM     19  N   UNL     1      47.371   5.055  16.163  0.00  0.00    +0.000 N 
ATOM     20  C   UNL     1      47.398   4.410  14.953  0.00  0.00    +0.000 C 
ATOM     21  O   UNL     1      47.517   3.197  14.831  0.00  0.00    +0.000 OA
ATOM     22  H   UNL     1      47.641   6.030  16.149  0.00  0.00    +0.000 HD
BRANCH  20  23
ATOM     23  C   UNL     1      47.188   5.288  13.801  0.00  0.00    +0.000 A 
ATOM     24  C   UNL     1      47.961   6.426  13.624  0.00  0.00    +0.000 A 
ATOM     25  S   UNL     1      47.644   7.226  12.149  0.00  0.00    +0.000 S 
ATOM     26  C   UNL     1      46.429   6.107  11.731  0.00  0.00    +0.000 A 
ATOM     27  N   UNL     1      45.757   6.190  10.555  0.00  0.00    +0.000 NA
ATOM     28  C   UNL     1      44.856   5.277  10.387  0.00  0.00    +0.000 A 
ATOM     29  N   UNL     1      44.536   4.287  11.293  0.00  0.00    +0.000 N 
ATOM     30  C   UNL     1      43.497   3.317  11.010  0.00  0.00    +0.000 C 
ATOM     31  C   UNL     1      45.194   4.183  12.509  0.00  0.00    +0.000 A 
ATOM     32  O   UNL     1      44.928   3.320  13.344  0.00  0.00    +0.000 OA
ATOM     33  C   UNL     1      46.251   5.156  12.715  0.00  0.00    +0.000 A 
ENDBRANCH  20  23
ENDBRANCH   2  19
TORSDOF 6
ENDMDL
MODEL 4
REMARK VINA RESULT:    -6.604      3.921      9.046
REMARK INTER + INTRA:         -10.725
REMARK INTER:                 -10.349
REMARK INTRA:                  -0.376
REMARK UNBOUND:                -1.805
REMARK  Name = 
REMARK  10 active torsions:
REMARK  status: ('A' for Active; 'I' for Inactive)
REMARK    1  A    between atoms: C_1  and  C_2
REMARK    2  A    between atoms: C_2  and  N_3
REMARK    3  A    between atoms: C_2  and  C_17
REMARK    4  A    between atoms: C_4  and  C_6
REMARK    5  A    between atoms: N_12  and  C_13
REMARK    6  A    between atoms: C_20  and  C_21
REMARK    7  A    between atoms: C_21  and  C_22
REMARK    8  A    between atoms: C_22  and  C_23
REMARK    9  A    between atoms: C_22  and  C_24
REMARK   10  A    between atoms: C_22  and  C_25
REMARK                            x       y       z     vdW  Elec       q    Type
REMARK                         _______ _______ _______ _____ _____    ______ ____
ROOT
ATOM      1  C   UNL     1      47.165   2.621  17.756  0.00  0.00    +0.000 C 
ATOM      2  C   UNL     1      48.108   3.805  17.547  0.00  0.00    +0.000 C 
ENDROOT
BRANCH   2   3
ATOM      3  C   UNL     1      47.889   4.350  16.145  0.00  0.00    +0.000 A 
ATOM      4  C   UNL     1      48.312   5.646  15.866  0.00  0.00    +0.000 A 
ATOM      5  C   UNL     1      48.006   6.240  14.645  0.00  0.00    +0.000 A 
ATOM      6  C   UNL     1      47.259   5.576  13.662  0.00  0.00    +0.000 A 
ATOM      7  C   UNL     1      46.895   4.246  13.921  0.00  0.00    +0.000 A 
ATOM      8  C   UNL     1      47.199   3.643  15.148  0.00  0.00    +0.000 A 
BRANCH   6   9
ATOM      9  C   UNL     1      46.780   6.215  12.361  0.00  0.00    +0.000 C 
BRANCH   9  10
ATOM     10  C   UNL     1      45.287   6.065  11.914  0.00  0.00    +0.000 C 
ATOM     11  C   UNL     1      44.416   5.605  13.113  0.00  0.00    +0.000 C 
ATOM     12  C   UNL     1      44.824   7.382  11.246  0.00  0.00    +0.000 C 
BRANCH  10  13
ATOM     13  C   UNL     1      45.106   4.960  10.847  0.00  0.00    +0.000 A 
ATOM     14  C   UNL     1      45.601   5.160   9.549  0.00  0.00    +0.000 A 
ATOM     15  C   UNL     1      45.377   4.198   8.570  0.00  0.00    +0.000 A 
ATOM     16  C   UNL     1      44.673   3.056   8.901  0.00  0.00    +0.000 A 
ATOM     17  C   UNL     1      44.226   2.919  10.205  0.00  0.00    +0.000 A 
ATOM     18  N   UNL     1      44.425   3.838  11.177  0.00  0.00    +0.000 NA
ENDBRANCH  10  13
ENDBRANCH   9  10
ENDBRANCH   6   9
ENDBRANCH   2   3
BRANCH   2  19
ATOM     19  N   UNL     1      49.498   3.467  17.741  0.00  0.00    +0.000 N 
ATOM     20  C   UNL     1      50.137   2.476  17.042  0.00  0.00    +0.000 C 
ATOM     21  O   UNL     1      49.640   1.886  16.089  0.00  0.00    +0.000 OA
ATOM     22  H   UNL     1      49.819   3.614  18.690  0.00  0.00    +0.000 HD
BRANCH  20  23
ATOM     23  C   UNL     1      51.513   2.227  17.476  0.00  0.00    +0.000 A 
ATOM     24  C   UNL     1      51.947   0.941  17.758  0.00  0.00    +0.000 A 
ATOM     25  S   UNL     1      53.617   0.862  18.110  0.00  0.00    +0.000 S 
ATOM     26  C   UNL     1      53.794   2.548  17.948  0.00  0.00    +0.000 A 
ATOM     27  N   UNL     1      54.999   3.156  18.092  0.00  0.00    +0.000 NA
ATOM     28  C   UNL     1      54.971   4.442  17.953  0.00  0.00    +0.000 A 
ATOM     29  N   UNL     1      53.845   5.199  17.702  0.00  0.00    +0.000 N 
ATOM     30  C   UNL     1      53.923   6.641  17.575  0.00  0.00    +0.000 C 
ATOM     31  C   UNL     1      52.597   4.611  17.562  0.00  0.00    +0.000 A 
ATOM     32  O   UNL     1      51.573   5.255  17.349  0.00  0.00    +0.000 OA
ATOM     33  C   UNL     1      52.593   3.163  17.657  0.00  0.00    +0.000 A 
ENDBRANCH  20  23
ENDBRANCH   2  19
TORSDOF 6
ENDMDL
MODEL 5
REMARK VINA RESULT:    -6.490      2.884      5.286
REMARK INTER + INTRA:         -10.572
REMARK INTER:                  -8.468
REMARK INTRA:                  -2.104
REMARK UNBOUND:                -1.805
REMARK  Name = 
REMARK  10 active torsions:
REMARK  status: ('A' for Active; 'I' for Inactive)
REMARK    1  A    between atoms: C_1  and  C_2
REMARK    2  A    between atoms: C_2  and  N_3
REMARK    3  A    between atoms: C_2  and  C_17
REMARK    4  A    between atoms: C_4  and  C_6
REMARK    5  A    between atoms: N_12  and  C_13
REMARK    6  A    between atoms: C_20  and  C_21
REMARK    7  A    between atoms: C_21  and  C_22
REMARK    8  A    between atoms: C_22  and  C_23
REMARK    9  A    between atoms: C_22  and  C_24
REMARK   10  A    between atoms: C_22  and  C_25
REMARK                            x       y       z     vdW  Elec       q    Type
REMARK                         _______ _______ _______ _____ _____    ______ ____
ROOT
ATOM      1  C   UNL     1      47.432   2.820  17.378  0.00  0.00    +0.000 C 
ATOM      2  C   UNL     1      47.936   4.137  16.790  0.00  0.00    +0.000 C 
ENDROOT
BRANCH   2   3
ATOM      3  C   UNL     1      48.156   5.116  17.931  0.00  0.00    +0.000 A 
ATOM      4  C   UNL     1      47.054   5.518  18.681  0.00  0.00    +0.000 A 
ATOM      5  C   UNL     1      47.180   6.519  19.639  0.00  0.00    +0.000 A 
ATOM      6  C   UNL     1      48.399   7.168  19.880  0.00  0.00    +0.000 A 
ATOM      7  C   UNL     1      49.520   6.713  19.171  0.00  0.00    +0.000 A 
ATOM      8  C   UNL     1      49.400   5.706  18.205  0.00  0.00    +0.000 A 
BRANCH   6   9
ATOM      9  C   UNL     1      48.573   8.359  20.820  0.00  0.00    +0.000 C 
BRANCH   9  10
ATOM     10  C   UNL     1      48.332   9.815  20.297  0.00  0.00    +0.000 C 
ATOM     11  C   UNL     1      46.813  10.127  20.270  0.00  0.00    +0.000 C 
ATOM     12  C   UNL     1      49.179  10.801  21.137  0.00  0.00    +0.000 C 
BRANCH  10  13
ATOM     13  C   UNL     1      48.799   9.993  18.834  0.00  0.00    +0.000 A 
ATOM     14  C   UNL     1      47.900   9.753  17.783  0.00  0.00    +0.000 A 
ATOM     15  C   UNL     1      48.339   9.845  16.466  0.00  0.00    +0.000 A 
ATOM     16  C   UNL     1      49.657  10.178  16.220  0.00  0.00    +0.000 A 
ATOM     17  C   UNL     1      50.484  10.415  17.305  0.00  0.00    +0.000 A 
ATOM     18  N   UNL     1      50.088  10.330  18.595  0.00  0.00    +0.000 NA
ENDBRANCH  10  13
ENDBRANCH   9  10
ENDBRANCH   6   9
ENDBRANCH   2   3
BRANCH   2  19
ATOM     19  N   UNL     1      47.039   4.703  15.811  0.00  0.00    +0.000 N 
ATOM     20  C   UNL     1      46.965   4.264  14.514  0.00  0.00    +0.000 C 
ATOM     21  O   UNL     1      47.536   3.261  14.102  0.00  0.00    +0.000 OA
ATOM     22  H   UNL     1      46.860   5.689  15.952  0.00  0.00    +0.000 HD
BRANCH  20  23
ATOM     23  C   UNL     1      46.071   5.052  13.664  0.00  0.00    +0.000 A 
ATOM     24  C   UNL     1      44.848   4.542  13.256  0.00  0.00    +0.000 A 
ATOM     25  S   UNL     1      43.908   5.676  12.389  0.00  0.00    +0.000 S 
ATOM     26  C   UNL     1      45.130   6.859  12.488  0.00  0.00    +0.000 A 
ATOM     27  N   UNL     1      44.964   8.100  11.968  0.00  0.00    +0.000 NA
ATOM     28  C   UNL     1      45.985   8.882  12.110  0.00  0.00    +0.000 A 
ATOM     29  N   UNL     1      47.181   8.542  12.708  0.00  0.00    +0.000 N 
ATOM     30  C   UNL     1      48.269   9.494  12.805  0.00  0.00    +0.000 C 
ATOM     31  C   UNL     1      47.388   7.278  13.238  0.00  0.00    +0.000 A 
ATOM     32  O   UNL     1      48.443   6.937  13.768  0.00  0.00    +0.000 OA
ATOM     33  C   UNL     1      46.246   6.385  13.148  0.00  0.00    +0.000 A 
ENDBRANCH  20  23
ENDBRANCH   2  19
TORSDOF 6
ENDMDL
MODEL 6
REMARK VINA RESULT:    -6.212      4.250      9.258
REMARK INTER + INTRA:         -10.196
REMARK INTER:                  -9.237
REMARK INTRA:                  -0.959
REMARK UNBOUND:                -1.805
REMARK  Name = 
REMARK  10 active torsions:
REMARK  status: ('A' for Active; 'I' for Inactive)
REMARK    1  A    between atoms: C_1  and  C_2
REMARK    2  A    between atoms: C_2  and  N_3
REMARK    3  A    between atoms: C_2  and  C_17
REMARK    4  A    between atoms: C_4  and  C_6
REMARK    5  A    between atoms: N_12  and  C_13
REMARK    6  A    between atoms: C_20  and  C_21
REMARK    7  A    between atoms: C_21  and  C_22
REMARK    8  A    between atoms: C_22  and  C_23
REMARK    9  A    between atoms: C_22  and  C_24
REMARK   10  A    between atoms: C_22  and  C_25
REMARK                            x       y       z     vdW  Elec       q    Type
REMARK                         _______ _______ _______ _____ _____    ______ ____
ROOT
ATOM      1  C   UNL     1      47.620   2.863  17.552  0.00  0.00    +0.000 C 
ATOM      2  C   UNL     1      48.213   4.258  17.357  0.00  0.00    +0.000 C 
ENDROOT
BRANCH   2   3
ATOM      3  C   UNL     1      47.918   4.709  15.937  0.00  0.00    +0.000 A 
ATOM      4  C   UNL     1      48.316   5.986  15.551  0.00  0.00    +0.000 A 
ATOM      5  C   UNL     1      47.943   6.498  14.312  0.00  0.00    +0.000 A 
ATOM      6  C   UNL     1      47.151   5.768  13.415  0.00  0.00    +0.000 A 
ATOM      7  C   UNL     1      46.811   4.457  13.779  0.00  0.00    +0.000 A 
ATOM      8  C   UNL     1      47.183   3.936  15.024  0.00  0.00    +0.000 A 
BRANCH   6   9
ATOM      9  C   UNL     1      46.601   6.319  12.102  0.00  0.00    +0.000 C 
BRANCH   9  10
ATOM     10  C   UNL     1      45.105   6.072  11.711  0.00  0.00    +0.000 C 
ATOM     11  C   UNL     1      44.300   5.604  12.953  0.00  0.00    +0.000 C 
ATOM     12  C   UNL     1      44.547   7.338  11.019  0.00  0.00    +0.000 C 
BRANCH  10  13
ATOM     13  C   UNL     1      44.952   4.924  10.686  0.00  0.00    +0.000 A 
ATOM     14  C   UNL     1      45.452   5.084   9.385  0.00  0.00    +0.000 A 
ATOM     15  C   UNL     1      45.252   4.081   8.441  0.00  0.00    +0.000 A 
ATOM     16  C   UNL     1      44.567   2.940   8.811  0.00  0.00    +0.000 A 
ATOM     17  C   UNL     1      44.114   2.844  10.116  0.00  0.00    +0.000 A 
ATOM     18  N   UNL     1      44.290   3.803  11.054  0.00  0.00    +0.000 NA
ENDBRANCH  10  13
ENDBRANCH   9  10
ENDBRANCH   6   9
ENDBRANCH   2   3
BRANCH   2  19
ATOM     19  N   UNL     1      49.633   4.315  17.615  0.00  0.00    +0.000 N 
ATOM     20  C   UNL     1      50.164   4.542  18.858  0.00  0.00    +0.000 C 
ATOM     21  O   UNL     1      49.500   4.569  19.888  0.00  0.00    +0.000 OA
ATOM     22  H   UNL     1      50.170   4.672  16.835  0.00  0.00    +0.000 HD
BRANCH  20  23
ATOM     23  C   UNL     1      51.623   4.670  18.873  0.00  0.00    +0.000 A 
ATOM     24  C   UNL     1      52.229   5.841  19.301  0.00  0.00    +0.000 A 
ATOM     25  S   UNL     1      53.932   5.726  19.369  0.00  0.00    +0.000 S 
ATOM     26  C   UNL     1      53.910   4.128  18.778  0.00  0.00    +0.000 A 
ATOM     27  N   UNL     1      55.050   3.411  18.619  0.00  0.00    +0.000 NA
ATOM     28  C   UNL     1      54.872   2.218  18.149  0.00  0.00    +0.000 A 
ATOM     29  N   UNL     1      53.658   1.667  17.795  0.00  0.00    +0.000 N 
ATOM     30  C   UNL     1      53.571   0.320  17.265  0.00  0.00    +0.000 C 
ATOM     31  C   UNL     1      52.476   2.378  17.932  0.00  0.00    +0.000 A 
ATOM     32  O   UNL     1      51.379   1.921  17.617  0.00  0.00    +0.000 OA
ATOM     33  C   UNL     1      52.625   3.702  18.508  0.00  0.00    +0.000 A 
ENDBRANCH  20  23
ENDBRANCH   2  19
TORSDOF 6
ENDMDL
MODEL 7
REMARK VINA RESULT:    -6.076      2.986      5.302
REMARK INTER + INTRA:         -10.013
REMARK INTER:                  -7.881
REMARK INTRA:                  -2.131
REMARK UNBOUND:                -1.805
REMARK  Name = 
REMARK  10 active torsions:
REMARK  status: ('A' for Active; 'I' for Inactive)
REMARK    1  A    between atoms: C_1  and  C_2
REMARK    2  A    between atoms: C_2  and  N_3
REMARK    3  A    between atoms: C_2  and  C_17
REMARK    4  A    between atoms: C_4  and  C_6
REMARK    5  A    between atoms: N_12  and  C_13
REMARK    6  A    between atoms: C_20  and  C_21
REMARK    7  A    between atoms: C_21  and  C_22
REMARK    8  A    between atoms: C_22  and  C_23
REMARK    9  A    between atoms: C_22  and  C_24
REMARK   10  A    between atoms: C_22  and  C_25
REMARK                            x       y       z     vdW  Elec       q    Type
REMARK                         _______ _______ _______ _____ _____    ______ ____
ROOT
ATOM      1  C   UNL     1      47.176   2.895  17.497  0.00  0.00    +0.000 C 
ATOM      2  C   UNL     1      47.987   3.915  16.699  0.00  0.00    +0.000 C 
ENDROOT
BRANCH   2   3
ATOM      3  C   UNL     1      48.634   4.882  17.677  0.00  0.00    +0.000 A 
ATOM      4  C   UNL     1      48.734   6.223  17.315  0.00  0.00    +0.000 A 
ATOM      5  C   UNL     1      49.444   7.117  18.109  0.00  0.00    +0.000 A 
ATOM      6  C   UNL     1      50.093   6.714  19.284  0.00  0.00    +0.000 A 
ATOM      7  C   UNL     1      49.932   5.378  19.681  0.00  0.00    +0.000 A 
ATOM      8  C   UNL     1      49.219   4.472  18.886  0.00  0.00    +0.000 A 
BRANCH   6   9
ATOM      9  C   UNL     1      50.994   7.614  20.127  0.00  0.00    +0.000 C 
BRANCH   9  10
ATOM     10  C   UNL     1      52.535   7.658  19.857  0.00  0.00    +0.000 C 
ATOM     11  C   UNL     1      53.067   9.104  20.038  0.00  0.00    +0.000 C 
ATOM     12  C   UNL     1      53.235   6.597  20.740  0.00  0.00    +0.000 C 
BRANCH  10  13
ATOM     13  C   UNL     1      52.881   7.289  18.395  0.00  0.00    +0.000 A 
ATOM     14  C   UNL     1      53.287   5.983  18.085  0.00  0.00    +0.000 A 
ATOM     15  C   UNL     1      53.666   5.668  16.783  0.00  0.00    +0.000 A 
ATOM     16  C   UNL     1      53.628   6.656  15.817  0.00  0.00    +0.000 A 
ATOM     17  C   UNL     1      53.204   7.920  16.192  0.00  0.00    +0.000 A 
ATOM     18  N   UNL     1      52.833   8.256  17.448  0.00  0.00    +0.000 NA
ENDBRANCH  10  13
ENDBRANCH   9  10
ENDBRANCH   6   9
ENDBRANCH   2   3
BRANCH   2  19
ATOM     19  N   UNL     1      47.197   4.638  15.731  0.00  0.00    +0.000 N 
ATOM     20  C   UNL     1      46.988   4.198  14.449  0.00  0.00    +0.000 C 
ATOM     21  O   UNL     1      47.319   3.087  14.049  0.00  0.00    +0.000 OA
ATOM     22  H   UNL     1      47.235   5.643  15.850  0.00  0.00    +0.000 HD
BRANCH  20  23
ATOM     23  C   UNL     1      46.251   5.139  13.604  0.00  0.00    +0.000 A 
ATOM     24  C   UNL     1      44.971   4.843  13.160  0.00  0.00    +0.000 A 
ATOM     25  S   UNL     1      44.246   6.133  12.306  0.00  0.00    +0.000 S 
ATOM     26  C   UNL     1      45.639   7.100  12.459  0.00  0.00    +0.000 A 
ATOM     27  N   UNL     1      45.687   8.364  11.969  0.00  0.00    +0.000 NA
ATOM     28  C   UNL     1      46.818   8.968  12.151  0.00  0.00    +0.000 A 
ATOM     29  N   UNL     1      47.929   8.425  12.762  0.00  0.00    +0.000 N 
ATOM     30  C   UNL     1      49.154   9.186  12.905  0.00  0.00    +0.000 C 
ATOM     31  C   UNL     1      47.918   7.132  13.262  0.00  0.00    +0.000 A 
ATOM     32  O   UNL     1      48.892   6.613  13.803  0.00  0.00    +0.000 OA
ATOM     33  C   UNL     1      46.650   6.438  13.127  0.00  0.00    +0.000 A 
ENDBRANCH  20  23
ENDBRANCH   2  19
TORSDOF 6
ENDMDL
MODEL 8
REMARK VINA RESULT:    -5.962      1.577      2.496
REMARK INTER + INTRA:          -9.859
REMARK INTER:                  -8.411
REMARK INTRA:                  -1.448
REMARK UNBOUND:                -1.805
REMARK  Name = 
REMARK  10 active torsions:
REMARK  status: ('A' for Active; 'I' for Inactive)
REMARK    1  A    between atoms: C_1  and  C_2
REMARK    2  A    between atoms: C_2  and  N_3
REMARK    3  A    between atoms: C_2  and  C_17
REMARK    4  A    between atoms: C_4  and  C_6
REMARK    5  A    between atoms: N_12  and  C_13
REMARK    6  A    between atoms: C_20  and  C_21
REMARK    7  A    between atoms: C_21  and  C_22
REMARK    8  A    between atoms: C_22  and  C_23
REMARK    9  A    between atoms: C_22  and  C_24
REMARK   10  A    between atoms: C_22  and  C_25
REMARK                            x       y       z     vdW  Elec       q    Type
REMARK                         _______ _______ _______ _____ _____    ______ ____
ROOT
ATOM      1  C   UNL     1      48.658   7.990  11.416  0.00  0.00    +0.000 C 
ATOM      2  C   UNL     1      47.419   7.743  12.275  0.00  0.00    +0.000 C 
ENDROOT
BRANCH   2   3
ATOM      3  C   UNL     1      47.846   7.714  13.733  0.00  0.00    +0.000 A 
ATOM      4  C   UNL     1      48.002   8.925  14.401  0.00  0.00    +0.000 A 
ATOM      5  C   UNL     1      48.528   8.958  15.689  0.00  0.00    +0.000 A 
ATOM      6  C   UNL     1      48.931   7.793  16.356  0.00  0.00    +0.000 A 
ATOM      7  C   UNL     1      48.709   6.571  15.706  0.00  0.00    +0.000 A 
ATOM      8  C   UNL     1      48.180   6.531  14.410  0.00  0.00    +0.000 A 
BRANCH   6   9
ATOM      9  C   UNL     1      49.634   7.773  17.711  0.00  0.00    +0.000 C 
BRANCH   9  10
ATOM     10  C   UNL     1      51.196   7.697  17.786  0.00  0.00    +0.000 C 
ATOM     11  C   UNL     1      51.804   7.809  16.363  0.00  0.00    +0.000 C 
ATOM     12  C   UNL     1      51.708   8.756  18.792  0.00  0.00    +0.000 C 
BRANCH  10  13
ATOM     13  C   UNL     1      51.689   6.331  18.320  0.00  0.00    +0.000 A 
ATOM     14  C   UNL     1      52.739   6.286  19.248  0.00  0.00    +0.000 A 
ATOM     15  C   UNL     1      53.229   5.055  19.675  0.00  0.00    +0.000 A 
ATOM     16  C   UNL     1      52.663   3.898  19.176  0.00  0.00    +0.000 A 
ATOM     17  C   UNL     1      51.620   4.019  18.272  0.00  0.00    +0.000 A 
ATOM     18  N   UNL     1      51.125   5.199  17.837  0.00  0.00    +0.000 NA
ENDBRANCH  10  13
ENDBRANCH   9  10
ENDBRANCH   6   9
ENDBRANCH   2   3
BRANCH   2  19
ATOM     19  N   UNL     1      46.722   6.525  11.933  0.00  0.00    +0.000 N 
ATOM     20  C   UNL     1      45.384   6.480  11.638  0.00  0.00    +0.000 C 
ATOM     21  O   UNL     1      44.686   7.476  11.488  0.00  0.00    +0.000 OA
ATOM     22  H   UNL     1      47.101   5.704  12.389  0.00  0.00    +0.000 HD
BRANCH  20  23
ATOM     23  C   UNL     1      44.861   5.129  11.430  0.00  0.00    +0.000 A 
ATOM     24  C   UNL     1      44.123   4.493  12.416  0.00  0.00    +0.000 A 
ATOM     25  S   UNL     1      43.495   2.986  11.913  0.00  0.00    +0.000 S 
ATOM     26  C   UNL     1      44.236   3.116  10.385  0.00  0.00    +0.000 A 
ATOM     27  N   UNL     1      44.079   2.163   9.433  0.00  0.00    +0.000 NA
ATOM     28  C   UNL     1      44.714   2.397   8.330  0.00  0.00    +0.000 A 
ATOM     29  N   UNL     1      45.519   3.490   8.082  0.00  0.00    +0.000 N 
ATOM     30  C   UNL     1      46.196   3.651   6.811  0.00  0.00    +0.000 C 
ATOM     31  C   UNL     1      45.711   4.475   9.038  0.00  0.00    +0.000 A 
ATOM     32  O   UNL     1      46.429   5.456   8.856  0.00  0.00    +0.000 OA
ATOM     33  C   UNL     1      44.973   4.278  10.272  0.00  0.00    +0.000 A 
ENDBRANCH  20  23
ENDBRANCH   2  19
TORSDOF 6
ENDMDL
MODEL 9
REMARK VINA RESULT:    -5.841      3.848      9.317
REMARK INTER + INTRA:          -9.696
REMARK INTER:                  -8.295
REMARK INTRA:                  -1.401
REMARK UNBOUND:                -1.805
REMARK  Name = 
REMARK  10 active torsions:
REMARK  status: ('A' for Active; 'I' for Inactive)
REMARK    1  A    between atoms: C_1  and  C_2
REMARK    2  A    between atoms: C_2  and  N_3
REMARK    3  A    between atoms: C_2  and  C_17
REMARK    4  A    between atoms: C_4  and  C_6
REMARK    5  A    between atoms: N_12  and  C_13
REMARK    6  A    between atoms: C_20  and  C_21
REMARK    7  A    between atoms: C_21  and  C_22
REMARK    8  A    between atoms: C_22  and  C_23
REMARK    9  A    between atoms: C_22  and  C_24
REMARK   10  A    between atoms: C_22  and  C_25
REMARK                            x       y       z     vdW  Elec       q    Type
REMARK                         _______ _______ _______ _____ _____    ______ ____
ROOT
ATOM      1  C   UNL     1      49.209   2.655  17.339  0.00  0.00    +0.000 C 
ATOM      2  C   UNL     1      48.472   3.960  17.639  0.00  0.00    +0.000 C 
ENDROOT
BRANCH   2   3
ATOM      3  C   UNL     1      47.945   4.523  16.330  0.00  0.00    +0.000 A 
ATOM      4  C   UNL     1      47.215   3.683  15.494  0.00  0.00    +0.000 A 
ATOM      5  C   UNL     1      46.835   4.108  14.224  0.00  0.00    +0.000 A 
ATOM      6  C   UNL     1      47.177   5.375  13.732  0.00  0.00    +0.000 A 
ATOM      7  C   UNL     1      47.852   6.242  14.602  0.00  0.00    +0.000 A 
ATOM      8  C   UNL     1      48.238   5.821  15.881  0.00  0.00    +0.000 A 
BRANCH   6   9
ATOM      9  C   UNL     1      46.906   5.850  12.306  0.00  0.00    +0.000 C 
BRANCH   9  10
ATOM     10  C   UNL     1      45.438   5.917  11.765  0.00  0.00    +0.000 C 
ATOM     11  C   UNL     1      44.432   5.669  12.920  0.00  0.00    +0.000 C 
ATOM     12  C   UNL     1      45.238   7.253  11.009  0.00  0.00    +0.000 C 
BRANCH  10  13
ATOM     13  C   UNL     1      45.144   4.800  10.737  0.00  0.00    +0.000 A 
ATOM     14  C   UNL     1      45.411   5.018   9.377  0.00  0.00    +0.000 A 
ATOM     15  C   UNL     1      45.081   4.040   8.444  0.00  0.00    +0.000 A 
ATOM     16  C   UNL     1      44.500   2.865   8.881  0.00  0.00    +0.000 A 
ATOM     17  C   UNL     1      44.278   2.712  10.240  0.00  0.00    +0.000 A 
ATOM     18  N   UNL     1      44.585   3.645  11.169  0.00  0.00    +0.000 NA
ENDBRANCH  10  13
ENDBRANCH   9  10
ENDBRANCH   6   9
ENDBRANCH   2   3
BRANCH   2  19
ATOM     19  N   UNL     1      49.295   4.938  18.309  0.00  0.00    +0.000 N 
ATOM     20  C   UNL     1      49.275   5.137  19.665  0.00  0.00    +0.000 C 
ATOM     21  O   UNL     1      48.677   4.412  20.451  0.00  0.00    +0.000 OA
ATOM     22  H   UNL     1      49.484   5.758  17.746  0.00  0.00    +0.000 HD
BRANCH  20  23
ATOM     23  C   UNL     1      50.106   6.254  20.120  0.00  0.00    +0.000 A 
ATOM     24  C   UNL     1      51.276   6.026  20.829  0.00  0.00    +0.000 A 
ATOM     25  S   UNL     1      52.157   7.457  21.139  0.00  0.00    +0.000 S 
ATOM     26  C   UNL     1      50.976   8.423  20.383  0.00  0.00    +0.000 A 
ATOM     27  N   UNL     1      51.121   9.767  20.269  0.00  0.00    +0.000 NA
ATOM     28  C   UNL     1      50.134  10.365  19.682  0.00  0.00    +0.000 A 
ATOM     29  N   UNL     1      48.991   9.754  19.210  0.00  0.00    +0.000 N 
ATOM     30  C   UNL     1      47.937  10.521  18.577  0.00  0.00    +0.000 C 
ATOM     31  C   UNL     1      48.805   8.385  19.324  0.00  0.00    +0.000 A 
ATOM     32  O   UNL     1      47.795   7.810  18.924  0.00  0.00    +0.000 OA
ATOM     33  C   UNL     1      49.914   7.669  19.927  0.00  0.00    +0.000 A 
ENDBRANCH  20  23
ENDBRANCH   2  19
TORSDOF 6
ENDMDL
