MODEL 1
REMARK VINA RESULT:    -7.285      0.000      0.000
REMARK INTER + INTRA:         -11.890
REMARK INTER:                 -10.693
REMARK INTRA:                  -1.197
REMARK UNBOUND:                -1.197
REMARK  Name = 
REMARK  9 active torsions:
REMARK  status: ('A' for Active; 'I' for Inactive)
REMARK    1  A    between atoms: C_1  and  C_2
REMARK    2  A    between atoms: C_2  and  C_3
REMARK    3  A    between atoms: C_2  and  C_26
REMARK    4  A    between atoms: C_3  and  N_4
REMARK    5  A    between atoms: N_4  and  C_5
REMARK    6  A    between atoms: C_5  and  C_6
REMARK    7  A    between atoms: C_9  and  C_10
REMARK    8  A    between atoms: C_10  and  N_11
REMARK    9  A    between atoms: C_12  and  C_14
REMARK                            x       y       z     vdW  Elec       q    Type
REMARK                         _______ _______ _______ _____ _____    ______ ____
ROOT
ATOM      1  C   UNL     1      47.090   5.116  14.242  0.00  0.00    +0.000 A 
ATOM      2  C   UNL     1      47.890   6.256  14.135  0.00  0.00    +0.000 A 
ATOM      3  C   UNL     1      48.651   6.675  15.225  0.00  0.00    +0.000 A 
ATOM      4  C   UNL     1      48.617   5.931  16.403  0.00  0.00    +0.000 A 
ATOM      5  N   UNL     1      47.852   4.819  16.531  0.00  0.00    +0.000 NA
ATOM      6  C   UNL     1      47.132   4.432  15.454  0.00  0.00    +0.000 A 
ENDROOT
BRANCH   1   7
ATOM      7  C   UNL     1      46.258   4.642  13.079  0.00  0.00    +0.000 C 
BRANCH   7   8
ATOM      8  N   UNL     1      44.818   4.888  13.212  0.00  0.00    +0.000 NA
ATOM      9  H   UNL     1      44.610   5.084  14.193  0.00  0.00    +0.000 HD
BRANCH   8  10
ATOM     10  C   UNL     1      43.998   3.755  12.765  0.00  0.00    +0.000 C 
BRANCH  10  12
ATOM     11  C   UNL     1      42.774   5.515  11.351  0.00  0.00    +0.000 C 
ATOM     12  C   UNL     1      43.261   4.064  11.443  0.00  0.00    +0.000 C 
BRANCH  12  13
ATOM     13  C   UNL     1      44.135   3.734  10.249  0.00  0.00    +0.000 A 
ATOM     14  C   UNL     1      44.761   4.727   9.492  0.00  0.00    +0.000 A 
ATOM     15  N   UNL     1      45.521   4.465   8.406  0.00  0.00    +0.000 NA
ATOM     16  C   UNL     1      45.638   3.155   8.091  0.00  0.00    +0.000 A 
ATOM     17  C   UNL     1      45.024   2.158   8.832  0.00  0.00    +0.000 A 
ATOM     18  N   UNL     1      44.267   2.424   9.920  0.00  0.00    +0.000 NA
ENDBRANCH  12  13
ENDBRANCH  10  12
ENDBRANCH   8  10
ENDBRANCH   7   8
ENDBRANCH   1   7
BRANCH   4  19
ATOM     19  C   UNL     1      49.404   6.376  17.613  0.00  0.00    +0.000 C 
BRANCH  19  20
ATOM     20  N   UNL     1      50.416   5.404  17.963  0.00  0.00    +0.000 N 
ATOM     21  C   UNL     1      51.650   5.386  17.373  0.00  0.00    +0.000 C 
ATOM     22  O   UNL     1      52.002   6.239  16.565  0.00  0.00    +0.000 OA
ATOM     23  H   UNL     1      50.068   4.569  18.428  0.00  0.00    +0.000 HD
BRANCH  21  24
ATOM     24  C   UNL     1      52.570   4.330  17.820  0.00  0.00    +0.000 A 
ATOM     25  C   UNL     1      53.826   4.672  18.305  0.00  0.00    +0.000 A 
ATOM     26  S   UNL     1      54.731   3.338  18.862  0.00  0.00    +0.000 S 
ATOM     27  C   UNL     1      53.498   2.249  18.424  0.00  0.00    +0.000 A 
ATOM     28  N   UNL     1      53.641   0.912  18.626  0.00  0.00    +0.000 NA
ATOM     29  C   UNL     1      52.641   0.201  18.220  0.00  0.00    +0.000 A 
ATOM     30  N   UNL     1      51.514   0.706  17.627  0.00  0.00    +0.000 N 
ATOM     31  C   UNL     1      51.317   2.051  17.422  0.00  0.00    +0.000 A 
ATOM     32  O   UNL     1      50.282   2.474  16.919  0.00  0.00    +0.000 OA
ATOM     33  C   UNL     1      52.410   2.896  17.865  0.00  0.00    +0.000 A 
ATOM     34  H   UNL     1      50.764   0.096  17.336  0.00  0.00    +0.000 HD
ENDBRANCH  21  24
ENDBRANCH  19  20
ENDBRANCH   4  19
TORSDOF 8
ENDMDL
MODEL 2
REMARK VINA RESULT:    -7.094      3.953      4.551
REMARK INTER + INTRA:         -11.609
REMARK INTER:                 -10.456
REMARK INTRA:                  -1.153
REMARK UNBOUND:                -1.197
REMARK  Name = 
REMARK  9 active torsions:
REMARK  status: ('A' for Active; 'I' for Inactive)
REMARK    1  A    between atoms: C_1  and  C_2
REMARK    2  A    between atoms: C_2  and  C_3
REMARK    3  A    between atoms: C_2  and  C_26
REMARK    4  A    between atoms: C_3  and  N_4
REMARK    5  A    between atoms: N_4  and  C_5
REMARK    6  A    between atoms: C_5  and  C_6
REMARK    7  A    between atoms: C_9  and  C_10
REMARK    8  A    between atoms: C_10  and  N_11
REMARK    9  A    between atoms: C_12  and  C_14
REMARK                            x       y       z     vdW  Elec       q    Type
REMARK                         _______ _______ _______ _____ _____    ______ ____
ROOT
ATOM      1  C   UNL     1      45.841   4.344  12.861  0.00  0.00    +0.000 A 
ATOM      2  C   UNL     1      45.949   5.508  12.097  0.00  0.00    +0.000 A 
ATOM      3  C   UNL     1      46.823   6.519  12.493  0.00  0.00    +0.000 A 
ATOM      4  C   UNL     1      47.595   6.339  13.639  0.00  0.00    +0.000 A 
ATOM      5  N   UNL     1      47.512   5.217  14.395  0.00  0.00    +0.000 NA
ATOM      6  C   UNL     1      46.661   4.250  13.981  0.00  0.00    +0.000 A 
ENDROOT
BRANCH   1   7
ATOM      7  C   UNL     1      44.904   3.236  12.456  0.00  0.00    +0.000 C 
BRANCH   7   8
ATOM      8  N   UNL     1      44.080   3.527  11.277  0.00  0.00    +0.000 NA
ATOM      9  H   UNL     1      43.098   3.525  11.557  0.00  0.00    +0.000 HD
BRANCH   8  10
ATOM     10  C   UNL     1      44.270   2.556  10.190  0.00  0.00    +0.000 C 
BRANCH  10  12
ATOM     11  C   UNL     1      44.815   4.759   8.987  0.00  0.00    +0.000 C 
ATOM     12  C   UNL     1      44.568   3.252   8.843  0.00  0.00    +0.000 C 
BRANCH  12  13
ATOM     13  C   UNL     1      45.744   2.597   8.147  0.00  0.00    +0.000 A 
ATOM     14  C   UNL     1      46.604   3.314   7.310  0.00  0.00    +0.000 A 
ATOM     15  N   UNL     1      47.642   2.751   6.654  0.00  0.00    +0.000 NA
ATOM     16  C   UNL     1      47.798   1.424   6.861  0.00  0.00    +0.000 A 
ATOM     17  C   UNL     1      46.956   0.699   7.688  0.00  0.00    +0.000 A 
ATOM     18  N   UNL     1      45.920   1.266   8.346  0.00  0.00    +0.000 NA
ENDBRANCH  12  13
ENDBRANCH  10  12
ENDBRANCH   8  10
ENDBRANCH   7   8
ENDBRANCH   1   7
BRANCH   4  19
ATOM     19  C   UNL     1      48.528   7.428  14.113  0.00  0.00    +0.000 C 
BRANCH  19  20
ATOM     20  N   UNL     1      48.370   7.671  15.530  0.00  0.00    +0.000 N 
ATOM     21  C   UNL     1      49.436   7.738  16.384  0.00  0.00    +0.000 C 
ATOM     22  O   UNL     1      50.596   7.671  15.991  0.00  0.00    +0.000 OA
ATOM     23  H   UNL     1      47.440   7.484  15.897  0.00  0.00    +0.000 HD
BRANCH  21  24
ATOM     24  C   UNL     1      49.120   7.976  17.801  0.00  0.00    +0.000 A 
ATOM     25  C   UNL     1      49.504   9.169  18.400  0.00  0.00    +0.000 A 
ATOM     26  S   UNL     1      48.984   9.320  20.016  0.00  0.00    +0.000 S 
ATOM     27  C   UNL     1      48.276   7.773  19.992  0.00  0.00    +0.000 A 
ATOM     28  N   UNL     1      47.652   7.271  21.091  0.00  0.00    +0.000 NA
ATOM     29  C   UNL     1      47.187   6.075  20.941  0.00  0.00    +0.000 A 
ATOM     30  N   UNL     1      47.291   5.335  19.793  0.00  0.00    +0.000 N 
ATOM     31  C   UNL     1      47.892   5.810  18.651  0.00  0.00    +0.000 A 
ATOM     32  O   UNL     1      47.940   5.136  17.628  0.00  0.00    +0.000 OA
ATOM     33  C   UNL     1      48.430   7.152  18.765  0.00  0.00    +0.000 A 
ATOM     34  H   UNL     1      46.900   4.407  19.737  0.00  0.00    +0.000 HD
ENDBRANCH  21  24
ENDBRANCH  19  20
ENDBRANCH   4  19
TORSDOF 8
ENDMDL
MODEL 3
REMARK VINA RESULT:    -7.028      3.174      4.771
REMARK INTER + INTRA:         -11.512
REMARK INTER:                 -10.404
REMARK INTRA:                  -1.109
REMARK UNBOUND:                -1.197
REMARK  Name = 
REMARK  9 active torsions:
REMARK  status: ('A' for Active; 'I' for Inactive)
REMARK    1  A    between atoms: C_1  and  C_2
REMARK    2  A    between atoms: C_2  and  C_3
REMARK    3  A    between atoms: C_2  and  C_26
REMARK    4  A    between atoms: C_3  and  N_4
REMARK    5  A    between atoms: N_4  and  C_5
REMARK    6  A    between atoms: C_5  and  C_6
REMARK    7  A    between atoms: C_9  and  C_10
REMARK    8  A    between atoms: C_10  and  N_11
REMARK    9  A    between atoms: C_12  and  C_14
REMARK                            x       y       z     vdW  Elec       q    Type
REMARK                         _______ _______ _______ _____ _____    ______ ____
ROOT
ATOM      1  C   UNL     1      45.423   6.200  11.665  0.00  0.00    +0.000 A 
ATOM      2  C   UNL     1      46.456   5.667  12.438  0.00  0.00    +0.000 A 
ATOM      3  C   UNL     1      47.212   6.503  13.259  0.00  0.00    +0.000 A 
ATOM      4  C   UNL     1      46.904   7.862  13.310  0.00  0.00    +0.000 A 
ATOM      5  N   UNL     1      45.904   8.403  12.572  0.00  0.00    +0.000 NA
ATOM      6  C   UNL     1      45.183   7.565  11.793  0.00  0.00    +0.000 A 
ENDROOT
BRANCH   1   7
ATOM      7  C   UNL     1      44.592   5.318  10.770  0.00  0.00    +0.000 C 
BRANCH   7   8
ATOM      8  N   UNL     1      45.070   5.222   9.386  0.00  0.00    +0.000 NA
ATOM      9  H   UNL     1      44.824   6.083   8.895  0.00  0.00    +0.000 HD
BRANCH   8  10
ATOM     10  C   UNL     1      44.501   4.077   8.661  0.00  0.00    +0.000 C 
BRANCH  10  12
ATOM     11  C   UNL     1      44.531   1.543   9.078  0.00  0.00    +0.000 C 
ATOM     12  C   UNL     1      45.364   2.806   8.824  0.00  0.00    +0.000 C 
BRANCH  12  13
ATOM     13  C   UNL     1      46.258   2.604   7.616  0.00  0.00    +0.000 A 
ATOM     14  C   UNL     1      47.086   1.485   7.486  0.00  0.00    +0.000 A 
ATOM     15  N   UNL     1      47.914   1.293   6.436  0.00  0.00    +0.000 NA
ATOM     16  C   UNL     1      47.893   2.272   5.503  0.00  0.00    +0.000 A 
ATOM     17  C   UNL     1      47.078   3.386   5.617  0.00  0.00    +0.000 A 
ATOM     18  N   UNL     1      46.247   3.574   6.667  0.00  0.00    +0.000 NA
ENDBRANCH  12  13
ENDBRANCH  10  12
ENDBRANCH   8  10
ENDBRANCH   7   8
ENDBRANCH   1   7
BRANCH   4  19
ATOM     19  C   UNL     1      47.724   8.800  14.164  0.00  0.00    +0.000 C 
BRANCH  19  20
ATOM     20  N   UNL     1      47.908   8.267  15.496  0.00  0.00    +0.000 N 
ATOM     21  C   UNL     1      48.421   9.016  16.519  0.00  0.00    +0.000 C 
ATOM     22  O   UNL     1      48.687  10.207  16.391  0.00  0.00    +0.000 OA
ATOM     23  H   UNL     1      47.930   7.253  15.554  0.00  0.00    +0.000 HD
BRANCH  21  24
ATOM     24  C   UNL     1      48.565   8.336  17.815  0.00  0.00    +0.000 A 
ATOM     25  C   UNL     1      48.184   8.987  18.980  0.00  0.00    +0.000 A 
ATOM     26  S   UNL     1      48.333   8.027  20.381  0.00  0.00    +0.000 S 
ATOM     27  C   UNL     1      48.965   6.724  19.487  0.00  0.00    +0.000 A 
ATOM     28  N   UNL     1      49.322   5.563  20.099  0.00  0.00    +0.000 NA
ATOM     29  C   UNL     1      49.814   4.671  19.305  0.00  0.00    +0.000 A 
ATOM     30  N   UNL     1      49.985   4.835  17.956  0.00  0.00    +0.000 N 
ATOM     31  C   UNL     1      49.619   5.982  17.291  0.00  0.00    +0.000 A 
ATOM     32  O   UNL     1      49.754   6.086  16.078  0.00  0.00    +0.000 OA
ATOM     33  C   UNL     1      49.056   7.016  18.138  0.00  0.00    +0.000 A 
ATOM     34  H   UNL     1      50.371   4.095  17.388  0.00  0.00    +0.000 HD
ENDBRANCH  21  24
ENDBRANCH  19  20
ENDBRANCH   4  19
TORSDOF 8
ENDMDL
MODEL 4
REMARK VINA RESULT:    -7.025      4.103      9.126
REMARK INTER + INTRA:         -11.508
REMARK INTER:                  -9.783
REMARK INTRA:                  -1.725
REMARK UNBOUND:                -1.197
REMARK  Name = 
REMARK  9 active torsions:
REMARK  status: ('A' for Active; 'I' for Inactive)
REMARK    1  A    between atoms: C_1  and  C_2
REMARK    2  A    between atoms: C_2  and  C_3
REMARK    3  A    between atoms: C_2  and  C_26
REMARK    4  A    between atoms: C_3  and  N_4
REMARK    5  A    between atoms: N_4  and  C_5
REMARK    6  A    between atoms: C_5  and  C_6
REMARK    7  A    between atoms: C_9  and  C_10
REMARK    8  A    between atoms: C_10  and  N_11
REMARK    9  A    between atoms: C_12  and  C_14
REMARK                            x       y       z     vdW  Elec       q    Type
REMARK                         _______ _______ _______ _____ _____    ______ ____
ROOT
ATOM      1  C   UNL     1      48.954   8.041  15.995  0.00  0.00    +0.000 A 
ATOM      2  C   UNL     1      48.953   6.837  15.288  0.00  0.00    +0.000 A 
ATOM      3  C   UNL     1      48.410   6.786  14.005  0.00  0.00    +0.000 A 
ATOM      4  C   UNL     1      47.894   7.951  13.439  0.00  0.00    +0.000 A 
ATOM      5  N   UNL     1      47.887   9.133  14.103  0.00  0.00    +0.000 NA
ATOM      6  C   UNL     1      48.429   9.153  15.343  0.00  0.00    +0.000 A 
ENDROOT
BRANCH   1   7
ATOM      7  C   UNL     1      49.534   8.124  17.383  0.00  0.00    +0.000 C 
BRANCH   7   8
ATOM      8  N   UNL     1      48.716   7.502  18.430  0.00  0.00    +0.000 NA
ATOM      9  H   UNL     1      48.114   8.217  18.841  0.00  0.00    +0.000 HD
BRANCH   8  10
ATOM     10  C   UNL     1      49.518   6.881  19.493  0.00  0.00    +0.000 C 
BRANCH  10  12
ATOM     11  C   UNL     1      47.807   5.519  20.840  0.00  0.00    +0.000 C 
ATOM     12  C   UNL     1      48.991   5.478  19.866  0.00  0.00    +0.000 C 
BRANCH  12  13
ATOM     13  C   UNL     1      48.613   4.696  18.623  0.00  0.00    +0.000 A 
ATOM     14  C   UNL     1      49.528   3.877  17.956  0.00  0.00    +0.000 A 
ATOM     15  N   UNL     1      49.227   3.193  16.830  0.00  0.00    +0.000 NA
ATOM     16  C   UNL     1      47.963   3.355  16.381  0.00  0.00    +0.000 A 
ATOM     17  C   UNL     1      47.044   4.163  17.031  0.00  0.00    +0.000 A 
ATOM     18  N   UNL     1      47.346   4.843  18.160  0.00  0.00    +0.000 NA
ENDBRANCH  12  13
ENDBRANCH  10  12
ENDBRANCH   8  10
ENDBRANCH   7   8
ENDBRANCH   1   7
BRANCH   4  19
ATOM     19  C   UNL     1      47.270   7.923  12.064  0.00  0.00    +0.000 C 
BRANCH  19  20
ATOM     20  N   UNL     1      46.643   6.647  11.802  0.00  0.00    +0.000 N 
ATOM     21  C   UNL     1      45.288   6.508  11.679  0.00  0.00    +0.000 C 
ATOM     22  O   UNL     1      44.525   7.469  11.709  0.00  0.00    +0.000 OA
ATOM     23  H   UNL     1      47.215   5.834  12.018  0.00  0.00    +0.000 HD
BRANCH  21  24
ATOM     24  C   UNL     1      44.793   5.146  11.427  0.00  0.00    +0.000 A 
ATOM     25  C   UNL     1      44.087   4.477  12.419  0.00  0.00    +0.000 A 
ATOM     26  S   UNL     1      43.511   2.947  11.934  0.00  0.00    +0.000 S 
ATOM     27  C   UNL     1      44.231   3.102  10.399  0.00  0.00    +0.000 A 
ATOM     28  N   UNL     1      44.124   2.111   9.473  0.00  0.00    +0.000 NA
ATOM     29  C   UNL     1      44.743   2.349   8.365  0.00  0.00    +0.000 A 
ATOM     30  N   UNL     1      45.462   3.484   8.099  0.00  0.00    +0.000 N 
ATOM     31  C   UNL     1      45.579   4.520   8.995  0.00  0.00    +0.000 A 
ATOM     32  O   UNL     1      46.202   5.538   8.716  0.00  0.00    +0.000 OA
ATOM     33  C   UNL     1      44.897   4.306  10.258  0.00  0.00    +0.000 A 
ATOM     34  H   UNL     1      45.919   3.612   7.208  0.00  0.00    +0.000 HD
ENDBRANCH  21  24
ENDBRANCH  19  20
ENDBRANCH   4  19
TORSDOF 8
ENDMDL
MODEL 5
REMARK VINA RESULT:    -6.276      3.164      4.456
REMARK INTER + INTRA:         -10.409
REMARK INTER:                  -9.199
REMARK INTRA:                  -1.210
REMARK UNBOUND:                -1.197
REMARK  Name = 
REMARK  9 active torsions:
REMARK  status: ('A' for Active; 'I' for Inactive)
REMARK    1  A    between atoms: C_1  and  C_2
REMARK    2  A    between atoms: C_2  and  C_3
REMARK    3  A    between atoms: C_2  and  C_26
REMARK    4  A    between atoms: C_3  and  N_4
REMARK    5  A    between atoms: N_4  and  C_5
REMARK    6  A    between atoms: C_5  and  C_6
REMARK    7  A    between atoms: C_9  and  C_10
REMARK    8  A    between atoms: C_10  and  N_11
REMARK    9  A    between atoms: C_12  and  C_14
REMARK                            x       y       z     vdW  Elec       q    Type
REMARK                         _______ _______ _______ _____ _____    ______ ____
ROOT
ATOM      1  C   UNL     1      45.742   6.631  11.589  0.00  0.00    +0.000 A 
ATOM      2  C   UNL     1      47.043   6.157  11.775  0.00  0.00    +0.000 A 
ATOM      3  C   UNL     1      47.929   6.861  12.588  0.00  0.00    +0.000 A 
ATOM      4  C   UNL     1      47.490   8.021  13.224  0.00  0.00    +0.000 A 
ATOM      5  N   UNL     1      46.232   8.500  13.064  0.00  0.00    +0.000 NA
ATOM      6  C   UNL     1      45.393   7.790  12.275  0.00  0.00    +0.000 A 
ENDROOT
BRANCH   1   7
ATOM      7  C   UNL     1      44.765   5.888  10.715  0.00  0.00    +0.000 C 
BRANCH   7   8
ATOM      8  N   UNL     1      45.322   5.396   9.450  0.00  0.00    +0.000 NA
ATOM      9  H   UNL     1      45.336   6.166   8.779  0.00  0.00    +0.000 HD
BRANCH   8  10
ATOM     10  C   UNL     1      44.556   4.278   8.882  0.00  0.00    +0.000 C 
BRANCH  10  12
ATOM     11  C   UNL     1      44.374   1.744   9.254  0.00  0.00    +0.000 C 
ATOM     12  C   UNL     1      45.310   2.937   9.019  0.00  0.00    +0.000 C 
BRANCH  12  13
ATOM     13  C   UNL     1      46.180   2.681   7.804  0.00  0.00    +0.000 A 
ATOM     14  C   UNL     1      46.956   1.526   7.677  0.00  0.00    +0.000 A 
ATOM     15  N   UNL     1      47.763   1.286   6.621  0.00  0.00    +0.000 NA
ATOM     16  C   UNL     1      47.776   2.254   5.678  0.00  0.00    +0.000 A 
ATOM     17  C   UNL     1      47.013   3.405   5.788  0.00  0.00    +0.000 A 
ATOM     18  N   UNL     1      46.202   3.641   6.845  0.00  0.00    +0.000 NA
ENDBRANCH  12  13
ENDBRANCH  10  12
ENDBRANCH   8  10
ENDBRANCH   7   8
ENDBRANCH   1   7
BRANCH   4  19
ATOM     19  C   UNL     1      48.434   8.825  14.086  0.00  0.00    +0.000 C 
BRANCH  19  20
ATOM     20  N   UNL     1      49.445   7.980  14.682  0.00  0.00    +0.000 N 
ATOM     21  C   UNL     1      49.401   7.598  15.995  0.00  0.00    +0.000 C 
ATOM     22  O   UNL     1      48.462   7.887  16.729  0.00  0.00    +0.000 OA
ATOM     23  H   UNL     1      50.327   7.941  14.176  0.00  0.00    +0.000 HD
BRANCH  21  24
ATOM     24  C   UNL     1      50.506   6.749  16.464  0.00  0.00    +0.000 A 
ATOM     25  C   UNL     1      50.229   5.604  17.199  0.00  0.00    +0.000 A 
ATOM     26  S   UNL     1      51.615   4.690  17.587  0.00  0.00    +0.000 S 
ATOM     27  C   UNL     1      52.640   5.821  16.835  0.00  0.00    +0.000 A 
ATOM     28  N   UNL     1      53.988   5.640  16.816  0.00  0.00    +0.000 NA
ATOM     29  C   UNL     1      54.645   6.590  16.238  0.00  0.00    +0.000 A 
ATOM     30  N   UNL     1      54.078   7.706  15.681  0.00  0.00    +0.000 N 
ATOM     31  C   UNL     1      52.720   7.920  15.657  0.00  0.00    +0.000 A 
ATOM     32  O   UNL     1      52.241   8.912  15.121  0.00  0.00    +0.000 OA
ATOM     33  C   UNL     1      51.934   6.879  16.290  0.00  0.00    +0.000 A 
ATOM     34  H   UNL     1      54.648   8.411  15.237  0.00  0.00    +0.000 HD
ENDBRANCH  21  24
ENDBRANCH  19  20
ENDBRANCH   4  19
TORSDOF 8
ENDMDL
MODEL 6
REMARK VINA RESULT:    -5.747      3.760      8.535
REMARK INTER + INTRA:          -9.632
REMARK INTER:                  -8.479
REMARK INTRA:                  -1.153
REMARK UNBOUND:                -1.197
REMARK  Name = 
REMARK  9 active torsions:
REMARK  status: ('A' for Active; 'I' for Inactive)
REMARK    1  A    between atoms: C_1  and  C_2
REMARK    2  A    between atoms: C_2  and  C_3
REMARK    3  A    between atoms: C_2  and  C_26
REMARK    4  A    between atoms: C_3  and  N_4
REMARK    5  A    between atoms: N_4  and  C_5
REMARK    6  A    between atoms: C_5  and  C_6
REMARK    7  A    between atoms: C_9  and  C_10
REMARK    8  A    between atoms: C_10  and  N_11
REMARK    9  A    between atoms: C_12  and  C_14
REMARK                            x       y       z     vdW  Elec       q    Type
REMARK                         _______ _______ _______ _____ _____    ______ ____
ROOT
ATOM      1  C   UNL     1      51.313   7.061  15.935  0.00  0.00    +0.000 A 
ATOM      2  C   UNL     1      51.537   8.156  15.098  0.00  0.00    +0.000 A 
ATOM      3  C   UNL     1      50.455   8.870  14.585  0.00  0.00    +0.000 A 
ATOM      4  C   UNL     1      49.161   8.489  14.938  0.00  0.00    +0.000 A 
ATOM      5  N   UNL     1      48.918   7.432  15.752  0.00  0.00    +0.000 NA
ATOM      6  C   UNL     1      49.988   6.764  16.241  0.00  0.00    +0.000 A 
ENDROOT
BRANCH   1   7
ATOM      7  C   UNL     1      52.465   6.273  16.503  0.00  0.00    +0.000 C 
BRANCH   7   8
ATOM      8  N   UNL     1      52.077   5.149  17.362  0.00  0.00    +0.000 NA
ATOM      9  H   UNL     1      51.324   4.632  16.904  0.00  0.00    +0.000 HD
BRANCH   8  10
ATOM     10  C   UNL     1      51.624   5.573  18.694  0.00  0.00    +0.000 C 
BRANCH  10  12
ATOM     11  C   UNL     1      50.231   4.929  20.753  0.00  0.00    +0.000 C 
ATOM     12  C   UNL     1      50.734   4.505  19.367  0.00  0.00    +0.000 C 
BRANCH  12  13
ATOM     13  C   UNL     1      49.561   4.143  18.478  0.00  0.00    +0.000 A 
ATOM     14  C   UNL     1      49.645   3.136  17.512  0.00  0.00    +0.000 A 
ATOM     15  N   UNL     1      48.626   2.812  16.687  0.00  0.00    +0.000 NA
ATOM     16  C   UNL     1      47.499   3.539  16.855  0.00  0.00    +0.000 A 
ATOM     17  C   UNL     1      47.398   4.539  17.808  0.00  0.00    +0.000 A 
ATOM     18  N   UNL     1      48.418   4.859  18.636  0.00  0.00    +0.000 NA
ENDBRANCH  12  13
ENDBRANCH  10  12
ENDBRANCH   8  10
ENDBRANCH   7   8
ENDBRANCH   1   7
BRANCH   4  19
ATOM     19  C   UNL     1      47.967   9.221  14.374  0.00  0.00    +0.000 C 
BRANCH  19  20
ATOM     20  N   UNL     1      46.964   8.294  13.896  0.00  0.00    +0.000 N 
ATOM     21  C   UNL     1      46.861   7.942  12.578  0.00  0.00    +0.000 C 
ATOM     22  O   UNL     1      47.658   8.332  11.732  0.00  0.00    +0.000 OA
ATOM     23  H   UNL     1      46.169   8.163  14.516  0.00  0.00    +0.000 HD
BRANCH  21  24
ATOM     24  C   UNL     1      45.784   7.001  12.239  0.00  0.00    +0.000 A 
ATOM     25  C   UNL     1      44.650   7.461  11.582  0.00  0.00    +0.000 A 
ATOM     26  S   UNL     1      43.541   6.228  11.185  0.00  0.00    +0.000 S 
ATOM     27  C   UNL     1      44.511   5.042  11.926  0.00  0.00    +0.000 A 
ATOM     28  N   UNL     1      44.125   3.738  11.951  0.00  0.00    +0.000 NA
ATOM     29  C   UNL     1      44.942   2.952  12.571  0.00  0.00    +0.000 A 
ATOM     30  N   UNL     1      46.106   3.352  13.172  0.00  0.00    +0.000 N 
ATOM     31  C   UNL     1      46.547   4.654  13.153  0.00  0.00    +0.000 A 
ATOM     32  O   UNL     1      47.610   4.975  13.671  0.00  0.00    +0.000 OA
ATOM     33  C   UNL     1      45.667   5.579  12.464  0.00  0.00    +0.000 A 
ATOM     34  H   UNL     1      46.705   2.686  13.637  0.00  0.00    +0.000 HD
ENDBRANCH  21  24
ENDBRANCH  19  20
ENDBRANCH   4  19
TORSDOF 8
ENDMDL
MODEL 7
REMARK VINA RESULT:    -5.175      1.713      2.263
REMARK INTER + INTRA:          -8.793
REMARK INTER:                  -8.056
REMARK INTRA:                  -0.737
REMARK UNBOUND:                -1.197
REMARK  Name = 
REMARK  9 active torsions:
REMARK  status: ('A' for Active; 'I' for Inactive)
REMARK    1  A    between atoms: C_1  and  C_2
REMARK    2  A    between atoms: C_2  and  C_3
REMARK    3  A    between atoms: C_2  and  C_26
REMARK    4  A    between atoms: C_3  and  N_4
REMARK    5  A    between atoms: N_4  and  C_5
REMARK    6  A    between atoms: C_5  and  C_6
REMARK    7  A    between atoms: C_9  and  C_10
REMARK    8  A    between atoms: C_10  and  N_11
REMARK    9  A    between atoms: C_12  and  C_14
REMARK                            x       y       z     vdW  Elec       q    Type
REMARK                         _______ _______ _______ _____ _____    ______ ____
ROOT
ATOM      1  C   UNL     1      47.984   4.719  16.125  0.00  0.00    +0.000 A 
ATOM      2  C   UNL     1      48.329   6.072  16.136  0.00  0.00    +0.000 A 
ATOM      3  C   UNL     1      49.475   6.490  16.811  0.00  0.00    +0.000 A 
ATOM      4  C   UNL     1      50.273   5.541  17.448  0.00  0.00    +0.000 A 
ATOM      5  N   UNL     1      49.961   4.222  17.449  0.00  0.00    +0.000 NA
ATOM      6  C   UNL     1      48.849   3.845  16.778  0.00  0.00    +0.000 A 
ENDROOT
BRANCH   1   7
ATOM      7  C   UNL     1      46.751   4.240  15.403  0.00  0.00    +0.000 C 
BRANCH   7   8
ATOM      8  N   UNL     1      47.009   3.555  14.132  0.00  0.00    +0.000 NA
ATOM      9  H   UNL     1      48.019   3.456  14.014  0.00  0.00    +0.000 HD
BRANCH   8  10
ATOM     10  C   UNL     1      46.459   4.271  12.973  0.00  0.00    +0.000 C 
BRANCH  10  12
ATOM     11  C   UNL     1      43.895   4.241  13.106  0.00  0.00    +0.000 C 
ATOM     12  C   UNL     1      45.148   3.628  12.468  0.00  0.00    +0.000 C 
BRANCH  12  13
ATOM     13  C   UNL     1      45.055   3.709  10.957  0.00  0.00    +0.000 A 
ATOM     14  C   UNL     1      44.608   2.635  10.183  0.00  0.00    +0.000 A 
ATOM     15  N   UNL     1      44.542   2.669   8.834  0.00  0.00    +0.000 NA
ATOM     16  C   UNL     1      44.946   3.830   8.270  0.00  0.00    +0.000 A 
ATOM     17  C   UNL     1      45.390   4.904   9.023  0.00  0.00    +0.000 A 
ATOM     18  N   UNL     1      45.451   4.869  10.373  0.00  0.00    +0.000 NA
ENDBRANCH  12  13
ENDBRANCH  10  12
ENDBRANCH   8  10
ENDBRANCH   7   8
ENDBRANCH   1   7
BRANCH   4  19
ATOM     19  C   UNL     1      51.502   5.965  18.215  0.00  0.00    +0.000 C 
BRANCH  19  20
ATOM     20  N   UNL     1      52.443   4.874  18.337  0.00  0.00    +0.000 N 
ATOM     21  C   UNL     1      52.643   4.207  19.515  0.00  0.00    +0.000 C 
ATOM     22  O   UNL     1      51.983   4.444  20.522  0.00  0.00    +0.000 OA
ATOM     23  H   UNL     1      53.152   4.834  17.610  0.00  0.00    +0.000 HD
BRANCH  21  24
ATOM     24  C   UNL     1      53.643   3.129  19.492  0.00  0.00    +0.000 A 
ATOM     25  C   UNL     1      54.760   3.210  20.312  0.00  0.00    +0.000 A 
ATOM     26  S   UNL     1      55.771   1.840  20.228  0.00  0.00    +0.000 S 
ATOM     27  C   UNL     1      54.780   1.113  19.050  0.00  0.00    +0.000 A 
ATOM     28  N   UNL     1      55.091  -0.104  18.528  0.00  0.00    +0.000 NA
ATOM     29  C   UNL     1      54.268  -0.521  17.624  0.00  0.00    +0.000 A 
ATOM     30  N   UNL     1      53.166   0.168  17.192  0.00  0.00    +0.000 N 
ATOM     31  C   UNL     1      52.801   1.389  17.707  0.00  0.00    +0.000 A 
ATOM     32  O   UNL     1      51.790   1.966  17.323  0.00  0.00    +0.000 OA
ATOM     33  C   UNL     1      53.690   1.903  18.730  0.00  0.00    +0.000 A 
ATOM     34  H   UNL     1      52.558  -0.217  16.484  0.00  0.00    +0.000 HD
ENDBRANCH  21  24
ENDBRANCH  19  20
ENDBRANCH   4  19
TORSDOF 8
ENDMDL
MODEL 8
REMARK VINA RESULT:    -5.052      6.791      9.833
REMARK INTER + INTRA:          -8.612
REMARK INTER:                  -7.653
REMARK INTRA:                  -0.959
REMARK UNBOUND:                -1.197
REMARK  Name = 
REMARK  9 active torsions:
REMARK  status: ('A' for Active; 'I' for Inactive)
REMARK    1  A    between atoms: C_1  and  C_2
REMARK    2  A    between atoms: C_2  and  C_3
REMARK    3  A    between atoms: C_2  and  C_26
REMARK    4  A    between atoms: C_3  and  N_4
REMARK    5  A    between atoms: N_4  and  C_5
REMARK    6  A    between atoms: C_5  and  C_6
REMARK    7  A    between atoms: C_9  and  C_10
REMARK    8  A    between atoms: C_10  and  N_11
REMARK    9  A    between atoms: C_12  and  C_14
REMARK                            x       y       z     vdW  Elec       q    Type
REMARK                         _______ _______ _______ _____ _____    ______ ____
ROOT
ATOM      1  C   UNL     1      44.190  11.226   7.688  0.00  0.00    +0.000 A 
ATOM      2  C   UNL     1      43.042  10.755   8.329  0.00  0.00    +0.000 A 
ATOM      3  C   UNL     1      43.047  10.562   9.709  0.00  0.00    +0.000 A 
ATOM      4  C   UNL     1      44.199  10.866  10.433  0.00  0.00    +0.000 A 
ATOM      5  N   UNL     1      45.325  11.328   9.835  0.00  0.00    +0.000 NA
ATOM      6  C   UNL     1      45.287  11.513   8.495  0.00  0.00    +0.000 A 
ENDROOT
BRANCH   1   7
ATOM      7  C   UNL     1      44.210  11.443   6.197  0.00  0.00    +0.000 C 
BRANCH   7   8
ATOM      8  N   UNL     1      42.994  11.017   5.496  0.00  0.00    +0.000 NA
ATOM      9  H   UNL     1      42.551  10.271   6.036  0.00  0.00    +0.000 HD
BRANCH   8  10
ATOM     10  C   UNL     1      43.256  10.533   4.134  0.00  0.00    +0.000 C 
BRANCH  10  12
ATOM     11  C   UNL     1      42.518  11.383   1.826  0.00  0.00    +0.000 C 
ATOM     12  C   UNL     1      42.074  10.823   3.183  0.00  0.00    +0.000 C 
BRANCH  12  13
ATOM     13  C   UNL     1      41.229   9.581   2.979  0.00  0.00    +0.000 A 
ATOM     14  C   UNL     1      40.097   9.580   2.159  0.00  0.00    +0.000 A 
ATOM     15  N   UNL     1      39.309   8.497   1.982  0.00  0.00    +0.000 NA
ATOM     16  C   UNL     1      39.690   7.394   2.665  0.00  0.00    +0.000 A 
ATOM     17  C   UNL     1      40.809   7.378   3.481  0.00  0.00    +0.000 A 
ATOM     18  N   UNL     1      41.598   8.462   3.653  0.00  0.00    +0.000 NA
ENDBRANCH  12  13
ENDBRANCH  10  12
ENDBRANCH   8  10
ENDBRANCH   7   8
ENDBRANCH   1   7
BRANCH   4  19
ATOM     19  C   UNL     1      44.249  10.638  11.925  0.00  0.00    +0.000 C 
BRANCH  19  20
ATOM     20  N   UNL     1      44.412   9.234  12.233  0.00  0.00    +0.000 N 
ATOM     21  C   UNL     1      45.639   8.629  12.263  0.00  0.00    +0.000 C 
ATOM     22  O   UNL     1      46.682   9.255  12.105  0.00  0.00    +0.000 OA
ATOM     23  H   UNL     1      43.574   8.669  12.122  0.00  0.00    +0.000 HD
BRANCH  21  24
ATOM     24  C   UNL     1      45.648   7.193  12.577  0.00  0.00    +0.000 A 
ATOM     25  C   UNL     1      46.720   6.647  13.272  0.00  0.00    +0.000 A 
ATOM     26  S   UNL     1      46.532   4.991  13.629  0.00  0.00    +0.000 S 
ATOM     27  C   UNL     1      45.036   4.930  12.820  0.00  0.00    +0.000 A 
ATOM     28  N   UNL     1      44.329   3.770  12.742  0.00  0.00    +0.000 NA
ATOM     29  C   UNL     1      43.228   3.862  12.073  0.00  0.00    +0.000 A 
ATOM     30  N   UNL     1      42.770   5.005  11.473  0.00  0.00    +0.000 N 
ATOM     31  C   UNL     1      43.439   6.204  11.544  0.00  0.00    +0.000 A 
ATOM     32  O   UNL     1      42.987   7.218  11.025  0.00  0.00    +0.000 OA
ATOM     33  C   UNL     1      44.683   6.158  12.289  0.00  0.00    +0.000 A 
ATOM     34  H   UNL     1      41.896   5.012  10.969  0.00  0.00    +0.000 HD
ENDBRANCH  21  24
ENDBRANCH  19  20
ENDBRANCH   4  19
TORSDOF 8
ENDMDL
MODEL 9
REMARK VINA RESULT:    -5.008     11.845     15.632
REMARK INTER + INTRA:          -8.547
REMARK INTER:                  -7.281
REMARK INTRA:                  -1.266
REMARK UNBOUND:                -1.197
REMARK  Name = 
REMARK  9 active torsions:
REMARK  status: ('A' for Active; 'I' for Inactive)
REMARK    1  A    between atoms: C_1  and  C_2
REMARK    2  A    between atoms: C_2  and  C_3
REMARK    3  A    between atoms: C_2  and  C_26
REMARK    4  A    between atoms: C_3  and  N_4
REMARK    5  A    between atoms: N_4  and  C_5
REMARK    6  A    between atoms: C_5  and  C_6
REMARK    7  A    between atoms: C_9  and  C_10
REMARK    8  A    between atoms: C_10  and  N_11
REMARK    9  A    between atoms: C_12  and  C_14
REMARK                            x       y       z     vdW  Elec       q    Type
REMARK                         _______ _______ _______ _____ _____    ______ ____
ROOT
ATOM      1  C   UNL     1      37.000   0.280   9.507  0.00  0.00    +0.000 A 
ATOM      2  C   UNL     1      37.035  -0.966   8.877  0.00  0.00    +0.000 A 
ATOM      3  C   UNL     1      36.812  -1.057   7.504  0.00  0.00    +0.000 A 
ATOM      4  C   UNL     1      36.579   0.109   6.776  0.00  0.00    +0.000 A 
ATOM      5  N   UNL     1      36.543   1.330   7.363  0.00  0.00    +0.000 NA
ATOM      6  C   UNL     1      36.773   1.387   8.695  0.00  0.00    +0.000 A 
ENDROOT
BRANCH   1   7
ATOM      7  C   UNL     1      37.238   0.405  10.989  0.00  0.00    +0.000 C 
BRANCH   7   8
ATOM      8  N   UNL     1      38.360  -0.390  11.502  0.00  0.00    +0.000 NA
ATOM      9  H   UNL     1      38.919  -0.712  10.711  0.00  0.00    +0.000 HD
BRANCH   8  10
ATOM     10  C   UNL     1      37.928  -1.553  12.289  0.00  0.00    +0.000 C 
BRANCH  10  12
ATOM     11  C   UNL     1      39.904  -2.583  11.014  0.00  0.00    +0.000 C 
ATOM     12  C   UNL     1      38.938  -2.718  12.198  0.00  0.00    +0.000 C 
BRANCH  12  13
ATOM     13  C   UNL     1      39.718  -2.857  13.490  0.00  0.00    +0.000 A 
ATOM     14  C   UNL     1      40.574  -3.936  13.727  0.00  0.00    +0.000 A 
ATOM     15  N   UNL     1      41.258  -4.101  14.880  0.00  0.00    +0.000 NA
ATOM     16  C   UNL     1      41.056  -3.140  15.809  0.00  0.00    +0.000 A 
ATOM     17  C   UNL     1      40.212  -2.064  15.590  0.00  0.00    +0.000 A 
ATOM     18  N   UNL     1      39.531  -1.899  14.433  0.00  0.00    +0.000 NA
ENDBRANCH  12  13
ENDBRANCH  10  12
ENDBRANCH   8  10
ENDBRANCH   7   8
ENDBRANCH   1   7
BRANCH   4  19
ATOM     19  C   UNL     1      36.301   0.043   5.293  0.00  0.00    +0.000 C 
BRANCH  19  20
ATOM     20  N   UNL     1      37.130   0.977   4.565  0.00  0.00    +0.000 N 
ATOM     21  C   UNL     1      38.436   0.712   4.258  0.00  0.00    +0.000 C 
ATOM     22  O   UNL     1      38.964  -0.364   4.516  0.00  0.00    +0.000 OA
ATOM     23  H   UNL     1      36.797   1.938   4.566  0.00  0.00    +0.000 HD
BRANCH  21  24
ATOM     24  C   UNL     1      39.159   1.763   3.526  0.00  0.00    +0.000 A 
ATOM     25  C   UNL     1      39.744   1.471   2.301  0.00  0.00    +0.000 A 
ATOM     26  S   UNL     1      40.464   2.820   1.547  0.00  0.00    +0.000 S 
ATOM     27  C   UNL     1      40.069   3.832   2.857  0.00  0.00    +0.000 A 
ATOM     28  N   UNL     1      40.415   5.147   2.855  0.00  0.00    +0.000 NA
ATOM     29  C   UNL     1      40.079   5.789   3.925  0.00  0.00    +0.000 A 
ATOM     30  N   UNL     1      39.432   5.235   4.997  0.00  0.00    +0.000 N 
ATOM     31  C   UNL     1      39.041   3.917   5.034  0.00  0.00    +0.000 A 
ATOM     32  O   UNL     1      38.433   3.459   5.994  0.00  0.00    +0.000 OA
ATOM     33  C   UNL     1      39.392   3.151   3.853  0.00  0.00    +0.000 A 
ATOM     34  H   UNL     1      39.191   5.793   5.802  0.00  0.00    +0.000 HD
ENDBRANCH  21  24
ENDBRANCH  19  20
ENDBRANCH   4  19
TORSDOF 8
ENDMDL
