MODEL 1
REMARK VINA RESULT:    -7.196      0.000      0.000
REMARK INTER + INTRA:         -10.175
REMARK INTER:                  -9.720
REMARK INTRA:                  -0.455
REMARK UNBOUND:                -0.455
REMARK  Name = 
REMARK  7 active torsions:
REMARK  status: ('A' for Active; 'I' for Inactive)
REMARK    1  A    between atoms: N_1  and  C_2
REMARK    2  A    between atoms: C_2  and  C_3
REMARK    3  A    between atoms: C_6  and  C_7
REMARK    4  A    between atoms: C_7  and  N_8
REMARK    5  A    between atoms: N_8  and  C_9
REMARK    6  A    between atoms: C_13  and  C_14
REMARK    7  A    between atoms: C_14  and  O_15
REMARK                            x       y       z     vdW  Elec       q    Type
REMARK                         _______ _______ _______ _____ _____    ______ ____
ROOT
ATOM      1  C   UNL     1      43.926   4.636  10.139  0.00  0.00    +0.000 C 
ENDROOT
BRANCH   1   5
ATOM      2  C   UNL     1      45.255   7.142  12.720  0.00  0.00    +0.000 C 
ATOM      3  C   UNL     1      45.319   7.299  11.191  0.00  0.00    +0.000 C 
ATOM      4  C   UNL     1      45.992   6.112  10.505  0.00  0.00    +0.000 C 
ATOM      5  C   UNL     1      45.305   4.776  10.834  0.00  0.00    +0.000 C 
ATOM      6  C   UNL     1      45.227   4.589  12.357  0.00  0.00    +0.000 C 
ATOM      7  C   UNL     1      44.632   5.785  13.101  0.00  0.00    +0.000 C 
BRANCH   2   8
ATOM      8  C   UNL     1      46.625   7.347  13.400  0.00  0.00    +0.000 C 
BRANCH   8   9
ATOM      9  N   UNL     1      46.736   8.684  13.979  0.00  0.00    +0.000 NA
ATOM     10  H   UNL     1      47.156   8.626  14.906  0.00  0.00    +0.000 HD
ATOM     11  H   UNL     1      45.808   9.084  14.108  0.00  0.00    +0.000 HD
ENDBRANCH   8   9
ENDBRANCH   2   8
ENDBRANCH   1   5
BRANCH   1  12
ATOM     12  N   UNL     1      44.148   4.276   8.740  0.00  0.00    +0.000 N 
ATOM     13  H   UNL     1      44.213   5.088   8.131  0.00  0.00    +0.000 HD
BRANCH  12  14
ATOM     14  C   UNL     1      45.027   3.271   8.348  0.00  0.00    +0.000 A 
ATOM     15  C   UNL     1      45.071   1.998   8.922  0.00  0.00    +0.000 A 
ATOM     16  C   UNL     1      45.918   1.006   8.412  0.00  0.00    +0.000 A 
ATOM     17  C   UNL     1      46.725   1.265   7.304  0.00  0.00    +0.000 A 
ATOM     18  C   UNL     1      46.681   2.516   6.687  0.00  0.00    +0.000 A 
ATOM     19  C   UNL     1      45.820   3.496   7.210  0.00  0.00    +0.000 A 
BRANCH  18  20
ATOM     20  C   UNL     1      47.543   2.832   5.495  0.00  0.00    +0.000 C 
BRANCH  20  21
ATOM     21  O   UNL     1      48.584   1.874   5.351  0.00  0.00    +0.000 OA
ATOM     22  H   UNL     1      49.249   2.074   6.032  0.00  0.00    +0.000 HD
ENDBRANCH  20  21
ENDBRANCH  18  20
ENDBRANCH  12  14
ENDBRANCH   1  12
TORSDOF 7
ENDMDL
MODEL 2
REMARK VINA RESULT:    -6.730      2.868      6.641
REMARK INTER + INTRA:          -9.545
REMARK INTER:                  -9.054
REMARK INTRA:                  -0.491
REMARK UNBOUND:                -0.455
REMARK  Name = 
REMARK  7 active torsions:
REMARK  status: ('A' for Active; 'I' for Inactive)
REMARK    1  A    between atoms: N_1  and  C_2
REMARK    2  A    between atoms: C_2  and  C_3
REMARK    3  A    between atoms: C_6  and  C_7
REMARK    4  A    between atoms: C_7  and  N_8
REMARK    5  A    between atoms: N_8  and  C_9
REMARK    6  A    between atoms: C_13  and  C_14
REMARK    7  A    between atoms: C_14  and  O_15
REMARK                            x       y       z     vdW  Elec       q    Type
REMARK                         _______ _______ _______ _____ _____    ______ ____
ROOT
ATOM      1  C   UNL     1      44.828   2.690  10.268  0.00  0.00    +0.000 C 
ENDROOT
BRANCH   1   5
ATOM      2  C   UNL     1      47.135   2.875   7.210  0.00  0.00    +0.000 C 
ATOM      3  C   UNL     1      46.346   4.046   7.819  0.00  0.00    +0.000 C 
ATOM      4  C   UNL     1      44.851   3.753   7.934  0.00  0.00    +0.000 C 
ATOM      5  C   UNL     1      44.562   2.485   8.755  0.00  0.00    +0.000 C 
ATOM      6  C   UNL     1      45.337   1.294   8.170  0.00  0.00    +0.000 C 
ATOM      7  C   UNL     1      46.828   1.564   7.960  0.00  0.00    +0.000 C 
BRANCH   2   8
ATOM      8  C   UNL     1      46.907   2.725   5.691  0.00  0.00    +0.000 C 
BRANCH   8   9
ATOM      9  N   UNL     1      48.166   2.510   4.983  0.00  0.00    +0.000 NA
ATOM     10  H   UNL     1      48.573   1.619   5.262  0.00  0.00    +0.000 HD
ATOM     11  H   UNL     1      48.838   3.229   5.246  0.00  0.00    +0.000 HD
ENDBRANCH   8   9
ENDBRANCH   2   8
ENDBRANCH   1   5
BRANCH   1  12
ATOM     12  N   UNL     1      44.490   4.068  10.614  0.00  0.00    +0.000 N 
ATOM     13  H   UNL     1      43.508   4.184  10.854  0.00  0.00    +0.000 HD
BRANCH  12  14
ATOM     14  C   UNL     1      45.306   4.872  11.405  0.00  0.00    +0.000 A 
ATOM     15  C   UNL     1      45.595   6.211  11.127  0.00  0.00    +0.000 A 
ATOM     16  C   UNL     1      46.348   6.985  12.018  0.00  0.00    +0.000 A 
ATOM     17  C   UNL     1      46.813   6.437  13.214  0.00  0.00    +0.000 A 
ATOM     18  C   UNL     1      46.515   5.113  13.537  0.00  0.00    +0.000 A 
ATOM     19  C   UNL     1      45.751   4.354  12.633  0.00  0.00    +0.000 A 
BRANCH  18  20
ATOM     20  C   UNL     1      47.005   4.488  14.815  0.00  0.00    +0.000 C 
BRANCH  20  21
ATOM     21  O   UNL     1      47.483   3.168  14.586  0.00  0.00    +0.000 OA
ATOM     22  H   UNL     1      47.613   3.077  13.627  0.00  0.00    +0.000 HD
ENDBRANCH  20  21
ENDBRANCH  18  20
ENDBRANCH  12  14
ENDBRANCH   1  12
TORSDOF 7
ENDMDL
MODEL 3
REMARK VINA RESULT:    -6.346      1.573      2.203
REMARK INTER + INTRA:          -9.027
REMARK INTER:                  -8.469
REMARK INTRA:                  -0.558
REMARK UNBOUND:                -0.455
REMARK  Name = 
REMARK  7 active torsions:
REMARK  status: ('A' for Active; 'I' for Inactive)
REMARK    1  A    between atoms: N_1  and  C_2
REMARK    2  A    between atoms: C_2  and  C_3
REMARK    3  A    between atoms: C_6  and  C_7
REMARK    4  A    between atoms: C_7  and  N_8
REMARK    5  A    between atoms: N_8  and  C_9
REMARK    6  A    between atoms: C_13  and  C_14
REMARK    7  A    between atoms: C_14  and  O_15
REMARK                            x       y       z     vdW  Elec       q    Type
REMARK                         _______ _______ _______ _____ _____    ______ ____
ROOT
ATOM      1  C   UNL     1      45.779   5.853  10.311  0.00  0.00    +0.000 C 
ENDROOT
BRANCH   1   5
ATOM      2  C   UNL     1      47.151   4.487  13.622  0.00  0.00    +0.000 C 
ATOM      3  C   UNL     1      46.178   3.760  12.678  0.00  0.00    +0.000 C 
ATOM      4  C   UNL     1      44.929   4.584  12.372  0.00  0.00    +0.000 C 
ATOM      5  C   UNL     1      45.264   5.959  11.769  0.00  0.00    +0.000 C 
ATOM      6  C   UNL     1      46.236   6.711  12.692  0.00  0.00    +0.000 C 
ATOM      7  C   UNL     1      47.468   5.899  13.094  0.00  0.00    +0.000 C 
BRANCH   2   8
ATOM      8  C   UNL     1      46.651   4.527  15.081  0.00  0.00    +0.000 C 
BRANCH   8   9
ATOM      9  N   UNL     1      47.589   5.240  15.945  0.00  0.00    +0.000 NA
ATOM     10  H   UNL     1      48.395   4.650  16.144  0.00  0.00    +0.000 HD
ATOM     11  H   UNL     1      47.149   5.439  16.843  0.00  0.00    +0.000 HD
ENDBRANCH   8   9
ENDBRANCH   2   8
ENDBRANCH   1   5
BRANCH   1  12
ATOM     12  N   UNL     1      44.909   4.937   9.579  0.00  0.00    +0.000 N 
ATOM     13  H   UNL     1      44.253   5.419   8.969  0.00  0.00    +0.000 HD
BRANCH  12  14
ATOM     14  C   UNL     1      45.368   3.756   9.002  0.00  0.00    +0.000 A 
ATOM     15  C   UNL     1      44.945   2.480   9.381  0.00  0.00    +0.000 A 
ATOM     16  C   UNL     1      45.380   1.341   8.692  0.00  0.00    +0.000 A 
ATOM     17  C   UNL     1      46.235   1.461   7.596  0.00  0.00    +0.000 A 
ATOM     18  C   UNL     1      46.651   2.723   7.170  0.00  0.00    +0.000 A 
ATOM     19  C   UNL     1      46.198   3.854   7.871  0.00  0.00    +0.000 A 
BRANCH  18  20
ATOM     20  C   UNL     1      47.578   2.888   5.997  0.00  0.00    +0.000 C 
BRANCH  20  21
ATOM     21  O   UNL     1      48.365   1.720   5.800  0.00  0.00    +0.000 OA
ATOM     22  H   UNL     1      48.628   1.710   4.864  0.00  0.00    +0.000 HD
ENDBRANCH  20  21
ENDBRANCH  18  20
ENDBRANCH  12  14
ENDBRANCH   1  12
TORSDOF 7
ENDMDL
MODEL 4
REMARK VINA RESULT:    -6.341      3.246      6.756
REMARK INTER + INTRA:          -9.021
REMARK INTER:                  -8.489
REMARK INTRA:                  -0.532
REMARK UNBOUND:                -0.455
REMARK  Name = 
REMARK  7 active torsions:
REMARK  status: ('A' for Active; 'I' for Inactive)
REMARK    1  A    between atoms: N_1  and  C_2
REMARK    2  A    between atoms: C_2  and  C_3
REMARK    3  A    between atoms: C_6  and  C_7
REMARK    4  A    between atoms: C_7  and  N_8
REMARK    5  A    between atoms: N_8  and  C_9
REMARK    6  A    between atoms: C_13  and  C_14
REMARK    7  A    between atoms: C_14  and  O_15
REMARK                            x       y       z     vdW  Elec       q    Type
REMARK                         _______ _______ _______ _____ _____    ______ ____
ROOT
ATOM      1  C   UNL     1      44.862   2.973  10.396  0.00  0.00    +0.000 C 
ENDROOT
BRANCH   1   5
ATOM      2  C   UNL     1      47.085   2.932   7.271  0.00  0.00    +0.000 C 
ATOM      3  C   UNL     1      46.376   4.164   7.859  0.00  0.00    +0.000 C 
ATOM      4  C   UNL     1      44.872   3.954   8.025  0.00  0.00    +0.000 C 
ATOM      5  C   UNL     1      44.541   2.731   8.899  0.00  0.00    +0.000 C 
ATOM      6  C   UNL     1      45.236   1.482   8.335  0.00  0.00    +0.000 C 
ATOM      7  C   UNL     1      46.732   1.666   8.075  0.00  0.00    +0.000 C 
BRANCH   2   8
ATOM      8  C   UNL     1      46.805   2.743   5.765  0.00  0.00    +0.000 C 
BRANCH   8   9
ATOM      9  N   UNL     1      48.040   2.512   5.020  0.00  0.00    +0.000 NA
ATOM     10  H   UNL     1      48.685   1.956   5.580  0.00  0.00    +0.000 HD
ATOM     11  H   UNL     1      48.506   3.400   4.839  0.00  0.00    +0.000 HD
ENDBRANCH   8   9
ENDBRANCH   2   8
ENDBRANCH   1   5
BRANCH   1  12
ATOM     12  N   UNL     1      44.265   4.245  10.797  0.00  0.00    +0.000 N 
ATOM     13  H   UNL     1      43.290   4.153  11.070  0.00  0.00    +0.000 HD
BRANCH  12  14
ATOM     14  C   UNL     1      44.931   5.178  11.587  0.00  0.00    +0.000 A 
ATOM     15  C   UNL     1      45.897   4.851  12.541  0.00  0.00    +0.000 A 
ATOM     16  C   UNL     1      46.594   5.849  13.233  0.00  0.00    +0.000 A 
ATOM     17  C   UNL     1      46.348   7.197  12.969  0.00  0.00    +0.000 A 
ATOM     18  C   UNL     1      45.411   7.558  11.999  0.00  0.00    +0.000 A 
ATOM     19  C   UNL     1      44.728   6.541  11.310  0.00  0.00    +0.000 A 
BRANCH  18  20
ATOM     20  C   UNL     1      45.116   9.001  11.694  0.00  0.00    +0.000 C 
BRANCH  20  21
ATOM     21  O   UNL     1      44.514   9.645  12.810  0.00  0.00    +0.000 OA
ATOM     22  H   UNL     1      43.915   8.998  13.221  0.00  0.00    +0.000 HD
ENDBRANCH  20  21
ENDBRANCH  18  20
ENDBRANCH  12  14
ENDBRANCH   1  12
TORSDOF 7
ENDMDL
MODEL 5
REMARK VINA RESULT:    -6.103      1.465      2.420
REMARK INTER + INTRA:          -8.699
REMARK INTER:                  -8.356
REMARK INTRA:                  -0.342
REMARK UNBOUND:                -0.455
REMARK  Name = 
REMARK  7 active torsions:
REMARK  status: ('A' for Active; 'I' for Inactive)
REMARK    1  A    between atoms: N_1  and  C_2
REMARK    2  A    between atoms: C_2  and  C_3
REMARK    3  A    between atoms: C_6  and  C_7
REMARK    4  A    between atoms: C_7  and  N_8
REMARK    5  A    between atoms: N_8  and  C_9
REMARK    6  A    between atoms: C_13  and  C_14
REMARK    7  A    between atoms: C_14  and  O_15
REMARK                            x       y       z     vdW  Elec       q    Type
REMARK                         _______ _______ _______ _____ _____    ______ ____
ROOT
ATOM      1  C   UNL     1      43.690   3.969  10.878  0.00  0.00    +0.000 C 
ENDROOT
BRANCH   1   5
ATOM      2  C   UNL     1      46.747   5.698  12.418  0.00  0.00    +0.000 C 
ATOM      3  C   UNL     1      46.038   4.452  12.975  0.00  0.00    +0.000 C 
ATOM      4  C   UNL     1      44.542   4.674  13.193  0.00  0.00    +0.000 C 
ATOM      5  C   UNL     1      43.821   5.119  11.909  0.00  0.00    +0.000 C 
ATOM      6  C   UNL     1      44.507   6.365  11.329  0.00  0.00    +0.000 C 
ATOM      7  C   UNL     1      46.021   6.223  11.165  0.00  0.00    +0.000 C 
BRANCH   2   8
ATOM      8  C   UNL     1      46.925   6.808  13.476  0.00  0.00    +0.000 C 
BRANCH   8   9
ATOM      9  N   UNL     1      47.576   6.296  14.679  0.00  0.00    +0.000 NA
ATOM     10  H   UNL     1      47.304   5.327  14.835  0.00  0.00    +0.000 HD
ATOM     11  H   UNL     1      47.257   6.820  15.494  0.00  0.00    +0.000 HD
ENDBRANCH   8   9
ENDBRANCH   2   8
ENDBRANCH   1   5
BRANCH   1  12
ATOM     12  N   UNL     1      44.027   4.493   9.557  0.00  0.00    +0.000 N 
ATOM     13  H   UNL     1      44.101   5.507   9.542  0.00  0.00    +0.000 HD
BRANCH  12  14
ATOM     14  C   UNL     1      44.975   3.900   8.728  0.00  0.00    +0.000 A 
ATOM     15  C   UNL     1      45.915   4.610   7.977  0.00  0.00    +0.000 A 
ATOM     16  C   UNL     1      46.900   3.943   7.238  0.00  0.00    +0.000 A 
ATOM     17  C   UNL     1      46.974   2.550   7.252  0.00  0.00    +0.000 A 
ATOM     18  C   UNL     1      46.071   1.811   8.018  0.00  0.00    +0.000 A 
ATOM     19  C   UNL     1      45.093   2.500   8.758  0.00  0.00    +0.000 A 
BRANCH  18  20
ATOM     20  C   UNL     1      46.117   0.308   8.050  0.00  0.00    +0.000 C 
BRANCH  20  21
ATOM     21  O   UNL     1      47.434  -0.167   7.799  0.00  0.00    +0.000 OA
ATOM     22  H   UNL     1      47.474  -1.080   8.132  0.00  0.00    +0.000 HD
ENDBRANCH  20  21
ENDBRANCH  18  20
ENDBRANCH  12  14
ENDBRANCH   1  12
TORSDOF 7
ENDMDL
MODEL 6
REMARK VINA RESULT:    -5.734      4.315      7.783
REMARK INTER + INTRA:          -8.201
REMARK INTER:                  -7.682
REMARK INTRA:                  -0.519
REMARK UNBOUND:                -0.455
REMARK  Name = 
REMARK  7 active torsions:
REMARK  status: ('A' for Active; 'I' for Inactive)
REMARK    1  A    between atoms: N_1  and  C_2
REMARK    2  A    between atoms: C_2  and  C_3
REMARK    3  A    between atoms: C_6  and  C_7
REMARK    4  A    between atoms: C_7  and  N_8
REMARK    5  A    between atoms: N_8  and  C_9
REMARK    6  A    between atoms: C_13  and  C_14
REMARK    7  A    between atoms: C_14  and  O_15
REMARK                            x       y       z     vdW  Elec       q    Type
REMARK                         _______ _______ _______ _____ _____    ______ ____
ROOT
ATOM      1  C   UNL     1      47.196   6.151  13.040  0.00  0.00    +0.000 C 
ENDROOT
BRANCH   1   5
ATOM      2  C   UNL     1      44.944   3.763  11.057  0.00  0.00    +0.000 C 
ATOM      3  C   UNL     1      45.356   5.182  10.628  0.00  0.00    +0.000 C 
ATOM      4  C   UNL     1      45.021   6.236  11.682  0.00  0.00    +0.000 C 
ATOM      5  C   UNL     1      45.662   5.928  13.046  0.00  0.00    +0.000 C 
ATOM      6  C   UNL     1      45.268   4.515  13.502  0.00  0.00    +0.000 C 
ATOM      7  C   UNL     1      45.509   3.430  12.451  0.00  0.00    +0.000 C 
BRANCH   2   8
ATOM      8  C   UNL     1      43.418   3.539  10.996  0.00  0.00    +0.000 C 
BRANCH   8   9
ATOM      9  N   UNL     1      43.041   2.277  11.627  0.00  0.00    +0.000 NA
ATOM     10  H   UNL     1      42.040   2.118  11.514  0.00  0.00    +0.000 HD
ATOM     11  H   UNL     1      43.213   2.326  12.630  0.00  0.00    +0.000 HD
ENDBRANCH   8   9
ENDBRANCH   2   8
ENDBRANCH   1   5
BRANCH   1  12
ATOM     12  N   UNL     1      47.571   6.821  14.283  0.00  0.00    +0.000 N 
ATOM     13  H   UNL     1      46.800   7.339  14.698  0.00  0.00    +0.000 HD
BRANCH  12  14
ATOM     14  C   UNL     1      48.366   6.221  15.255  0.00  0.00    +0.000 A 
ATOM     15  C   UNL     1      49.587   6.736  15.698  0.00  0.00    +0.000 A 
ATOM     16  C   UNL     1      50.287   6.128  16.747  0.00  0.00    +0.000 A 
ATOM     17  C   UNL     1      49.768   5.002  17.387  0.00  0.00    +0.000 A 
ATOM     18  C   UNL     1      48.535   4.482  16.991  0.00  0.00    +0.000 A 
ATOM     19  C   UNL     1      47.844   5.111  15.940  0.00  0.00    +0.000 A 
BRANCH  18  20
ATOM     20  C   UNL     1      47.948   3.265  17.654  0.00  0.00    +0.000 C 
BRANCH  20  21
ATOM     21  O   UNL     1      46.539   3.214  17.469  0.00  0.00    +0.000 OA
ATOM     22  H   UNL     1      46.288   2.275  17.465  0.00  0.00    +0.000 HD
ENDBRANCH  20  21
ENDBRANCH  18  20
ENDBRANCH  12  14
ENDBRANCH   1  12
TORSDOF 7
ENDMDL
MODEL 7
REMARK VINA RESULT:    -5.693      2.166      3.089
REMARK INTER + INTRA:          -8.145
REMARK INTER:                  -7.571
REMARK INTRA:                  -0.574
REMARK UNBOUND:                -0.455
REMARK  Name = 
REMARK  7 active torsions:
REMARK  status: ('A' for Active; 'I' for Inactive)
REMARK    1  A    between atoms: N_1  and  C_2
REMARK    2  A    between atoms: C_2  and  C_3
REMARK    3  A    between atoms: C_6  and  C_7
REMARK    4  A    between atoms: C_7  and  N_8
REMARK    5  A    between atoms: N_8  and  C_9
REMARK    6  A    between atoms: C_13  and  C_14
REMARK    7  A    between atoms: C_14  and  O_15
REMARK                            x       y       z     vdW  Elec       q    Type
REMARK                         _______ _______ _______ _____ _____    ______ ____
ROOT
ATOM      1  C   UNL     1      45.584   6.868  11.886  0.00  0.00    +0.000 C 
ENDROOT
BRANCH   1   5
ATOM      2  C   UNL     1      48.660   8.146  13.785  0.00  0.00    +0.000 C 
ATOM      3  C   UNL     1      48.179   8.638  12.410  0.00  0.00    +0.000 C 
ATOM      4  C   UNL     1      48.022   7.502  11.401  0.00  0.00    +0.000 C 
ATOM      5  C   UNL     1      47.063   6.405  11.895  0.00  0.00    +0.000 C 
ATOM      6  C   UNL     1      47.519   5.892  13.269  0.00  0.00    +0.000 C 
ATOM      7  C   UNL     1      47.768   6.998  14.296  0.00  0.00    +0.000 C 
BRANCH   2   8
ATOM      8  C   UNL     1      50.152   7.749  13.791  0.00  0.00    +0.000 C 
BRANCH   8   9
ATOM      9  N   UNL     1      50.496   6.992  14.992  0.00  0.00    +0.000 NA
ATOM     10  H   UNL     1      51.426   6.587  14.891  0.00  0.00    +0.000 HD
ATOM     11  H   UNL     1      49.852   6.210  15.104  0.00  0.00    +0.000 HD
ENDBRANCH   8   9
ENDBRANCH   2   8
ENDBRANCH   1   5
BRANCH   1  12
ATOM     12  N   UNL     1      44.971   6.435  10.632  0.00  0.00    +0.000 N 
ATOM     13  H   UNL     1      45.198   7.046   9.852  0.00  0.00    +0.000 HD
BRANCH  12  14
ATOM     14  C   UNL     1      44.919   5.101  10.237  0.00  0.00    +0.000 A 
ATOM     15  C   UNL     1      44.150   4.124  10.874  0.00  0.00    +0.000 A 
ATOM     16  C   UNL     1      44.073   2.822  10.364  0.00  0.00    +0.000 A 
ATOM     17  C   UNL     1      44.751   2.479   9.193  0.00  0.00    +0.000 A 
ATOM     18  C   UNL     1      45.501   3.440   8.515  0.00  0.00    +0.000 A 
ATOM     19  C   UNL     1      45.561   4.743   9.040  0.00  0.00    +0.000 A 
BRANCH  18  20
ATOM     20  C   UNL     1      46.251   3.103   7.254  0.00  0.00    +0.000 C 
BRANCH  20  21
ATOM     21  O   UNL     1      46.700   4.282   6.598  0.00  0.00    +0.000 OA
ATOM     22  H   UNL     1      45.926   4.671   6.156  0.00  0.00    +0.000 HD
ENDBRANCH  20  21
ENDBRANCH  18  20
ENDBRANCH  12  14
ENDBRANCH   1  12
TORSDOF 7
ENDMDL
MODEL 8
REMARK VINA RESULT:    -5.449      5.202      8.219
REMARK INTER + INTRA:          -7.816
REMARK INTER:                  -7.416
REMARK INTRA:                  -0.400
REMARK UNBOUND:                -0.455
REMARK  Name = 
REMARK  7 active torsions:
REMARK  status: ('A' for Active; 'I' for Inactive)
REMARK    1  A    between atoms: N_1  and  C_2
REMARK    2  A    between atoms: C_2  and  C_3
REMARK    3  A    between atoms: C_6  and  C_7
REMARK    4  A    between atoms: C_7  and  N_8
REMARK    5  A    between atoms: N_8  and  C_9
REMARK    6  A    between atoms: C_13  and  C_14
REMARK    7  A    between atoms: C_14  and  O_15
REMARK                            x       y       z     vdW  Elec       q    Type
REMARK                         _______ _______ _______ _____ _____    ______ ____
ROOT
ATOM      1  C   UNL     1      47.434   5.620  13.674  0.00  0.00    +0.000 C 
ENDROOT
BRANCH   1   5
ATOM      2  C   UNL     1      45.077   4.487  10.870  0.00  0.00    +0.000 C 
ATOM      3  C   UNL     1      45.812   5.836  10.942  0.00  0.00    +0.000 C 
ATOM      4  C   UNL     1      45.538   6.587  12.243  0.00  0.00    +0.000 C 
ATOM      5  C   UNL     1      45.902   5.760  13.488  0.00  0.00    +0.000 C 
ATOM      6  C   UNL     1      45.180   4.404  13.445  0.00  0.00    +0.000 C 
ATOM      7  C   UNL     1      45.358   3.645  12.129  0.00  0.00    +0.000 C 
BRANCH   2   8
ATOM      8  C   UNL     1      43.562   4.644  10.621  0.00  0.00    +0.000 C 
BRANCH   8   9
ATOM      9  N   UNL     1      42.803   3.576  11.267  0.00  0.00    +0.000 NA
ATOM     10  H   UNL     1      43.000   3.566  12.266  0.00  0.00    +0.000 HD
ATOM     11  H   UNL     1      43.102   2.671  10.905  0.00  0.00    +0.000 HD
ENDBRANCH   8   9
ENDBRANCH   2   8
ENDBRANCH   1   5
BRANCH   1  12
ATOM     12  N   UNL     1      47.758   5.900  15.071  0.00  0.00    +0.000 N 
ATOM     13  H   UNL     1      47.272   6.718  15.431  0.00  0.00    +0.000 HD
BRANCH  12  14
ATOM     14  C   UNL     1      47.864   4.903  16.037  0.00  0.00    +0.000 A 
ATOM     15  C   UNL     1      47.810   3.535  15.763  0.00  0.00    +0.000 A 
ATOM     16  C   UNL     1      48.019   2.588  16.773  0.00  0.00    +0.000 A 
ATOM     17  C   UNL     1      48.305   2.995  18.077  0.00  0.00    +0.000 A 
ATOM     18  C   UNL     1      48.398   4.355  18.378  0.00  0.00    +0.000 A 
ATOM     19  C   UNL     1      48.191   5.289  17.348  0.00  0.00    +0.000 A 
BRANCH  18  20
ATOM     20  C   UNL     1      48.697   4.829  19.775  0.00  0.00    +0.000 C 
BRANCH  20  21
ATOM     21  O   UNL     1      48.439   3.805  20.727  0.00  0.00    +0.000 OA
ATOM     22  H   UNL     1      48.760   4.130  21.585  0.00  0.00    +0.000 HD
ENDBRANCH  20  21
ENDBRANCH  18  20
ENDBRANCH  12  14
ENDBRANCH   1  12
TORSDOF 7
ENDMDL
MODEL 9
REMARK VINA RESULT:    -5.435      4.968      6.962
REMARK INTER + INTRA:          -7.797
REMARK INTER:                  -7.322
REMARK INTRA:                  -0.475
REMARK UNBOUND:                -0.455
REMARK  Name = 
REMARK  7 active torsions:
REMARK  status: ('A' for Active; 'I' for Inactive)
REMARK    1  A    between atoms: N_1  and  C_2
REMARK    2  A    between atoms: C_2  and  C_3
REMARK    3  A    between atoms: C_6  and  C_7
REMARK    4  A    between atoms: C_7  and  N_8
REMARK    5  A    between atoms: N_8  and  C_9
REMARK    6  A    between atoms: C_13  and  C_14
REMARK    7  A    between atoms: C_14  and  O_15
REMARK                            x       y       z     vdW  Elec       q    Type
REMARK                         _______ _______ _______ _____ _____    ______ ____
ROOT
ATOM      1  C   UNL     1      47.628   3.628  14.922  0.00  0.00    +0.000 C 
ENDROOT
BRANCH   1   5
ATOM      2  C   UNL     1      49.390   3.953  18.313  0.00  0.00    +0.000 C 
ATOM      3  C   UNL     1      48.370   2.869  17.925  0.00  0.00    +0.000 C 
ATOM      4  C   UNL     1      47.054   3.455  17.416  0.00  0.00    +0.000 C 
ATOM      5  C   UNL     1      47.254   4.396  16.216  0.00  0.00    +0.000 C 
ATOM      6  C   UNL     1      48.269   5.492  16.574  0.00  0.00    +0.000 C 
ATOM      7  C   UNL     1      49.577   4.962  17.163  0.00  0.00    +0.000 C 
BRANCH   2   8
ATOM      8  C   UNL     1      49.034   4.663  19.636  0.00  0.00    +0.000 C 
BRANCH   8   9
ATOM      9  N   UNL     1      48.464   3.729  20.604  0.00  0.00    +0.000 NA
ATOM     10  H   UNL     1      47.896   4.237  21.282  0.00  0.00    +0.000 HD
ATOM     11  H   UNL     1      49.210   3.280  21.133  0.00  0.00    +0.000 HD
ENDBRANCH   8   9
ENDBRANCH   2   8
ENDBRANCH   1   5
BRANCH   1  12
ATOM     12  N   UNL     1      46.481   3.657  14.019  0.00  0.00    +0.000 N 
ATOM     13  H   UNL     1      45.649   3.237  14.426  0.00  0.00    +0.000 HD
BRANCH  12  14
ATOM     14  C   UNL     1      46.163   4.762  13.234  0.00  0.00    +0.000 A 
ATOM     15  C   UNL     1      47.088   5.723  12.821  0.00  0.00    +0.000 A 
ATOM     16  C   UNL     1      46.714   6.758  11.954  0.00  0.00    +0.000 A 
ATOM     17  C   UNL     1      45.408   6.838  11.469  0.00  0.00    +0.000 A 
ATOM     18  C   UNL     1      44.467   5.875  11.837  0.00  0.00    +0.000 A 
ATOM     19  C   UNL     1      44.864   4.841  12.703  0.00  0.00    +0.000 A 
BRANCH  18  20
ATOM     20  C   UNL     1      43.048   5.935  11.339  0.00  0.00    +0.000 C 
BRANCH  20  21
ATOM     21  O   UNL     1      42.292   4.832  11.823  0.00  0.00    +0.000 OA
ATOM     22  H   UNL     1      41.548   4.707  11.208  0.00  0.00    +0.000 HD
ENDBRANCH  20  21
ENDBRANCH  18  20
ENDBRANCH  12  14
ENDBRANCH   1  12
TORSDOF 7
ENDMDL
