MODEL 1
REMARK VINA RESULT:    -8.200      0.000      0.000
REMARK INTER + INTRA:         -10.089
REMARK INTER:                  -9.638
REMARK INTRA:                  -0.451
REMARK UNBOUND:                -0.451
REMARK  Name = 
REMARK  3 active torsions:
REMARK  status: ('A' for Active; 'I' for Inactive)
REMARK    1  A    between atoms: C_3  and  C_4
REMARK    2  A    between atoms: C_4  and  N_5
REMARK    3  A    between atoms: C_10  and  C_11
REMARK                            x       y       z     vdW  Elec       q    Type
REMARK                         _______ _______ _______ _____ _____    ______ ____
ROOT
ATOM      1  N   UNL     1      44.286   3.309   9.651  0.00  0.00    +0.000 N 
ATOM      2  C   UNL     1      44.864   3.847  10.792  0.00  0.00    +0.000 A 
ATOM      3  N   UNL     1      44.963   3.018  11.855  0.00  0.00    +0.000 NA
ATOM      4  N   UNL     1      45.455   3.471  13.035  0.00  0.00    +0.000 NA
ATOM      5  C   UNL     1      45.834   4.756  13.105  0.00  0.00    +0.000 A 
ATOM      6  C   UNL     1      45.757   5.589  12.006  0.00  0.00    +0.000 A 
ATOM      7  N   UNL     1      45.261   5.131  10.827  0.00  0.00    +0.000 NA
ATOM      8  H   UNL     1      44.326   2.299   9.738  0.00  0.00    +0.000 HD
ENDROOT
BRANCH   6   9
ATOM      9  C   UNL     1      46.183   7.005  12.042  0.00  0.00    +0.000 A 
ATOM     10  C   UNL     1      47.536   7.382  11.989  0.00  0.00    +0.000 A 
ATOM     11  C   UNL     1      47.877   8.726  12.043  0.00  0.00    +0.000 A 
ATOM     12  N   UNL     1      46.976   9.721  12.143  0.00  0.00    +0.000 NA
ATOM     13  C   UNL     1      45.681   9.360  12.184  0.00  0.00    +0.000 A 
ATOM     14  C   UNL     1      45.244   8.043  12.136  0.00  0.00    +0.000 A 
ENDBRANCH   6   9
BRANCH   1  15
ATOM     15  C   UNL     1      44.760   3.830   8.389  0.00  0.00    +0.000 C 
BRANCH  15  18
ATOM     16  C   UNL     1      47.812   2.553   6.528  0.00  0.00    +0.000 A 
ATOM     17  C   UNL     1      46.828   3.415   6.988  0.00  0.00    +0.000 A 
ATOM     18  C   UNL     1      45.851   2.923   7.860  0.00  0.00    +0.000 A 
ATOM     19  C   UNL     1      45.913   1.575   8.226  0.00  0.00    +0.000 A 
ATOM     20  C   UNL     1      46.939   0.791   7.716  0.00  0.00    +0.000 A 
ATOM     21  N   UNL     1      47.889   1.251   6.876  0.00  0.00    +0.000 NA
ENDBRANCH  15  18
ENDBRANCH   1  15
TORSDOF 3
ENDMDL
MODEL 2
REMARK VINA RESULT:    -7.736      1.907      2.619
REMARK INTER + INTRA:          -9.544
REMARK INTER:                  -9.107
REMARK INTRA:                  -0.437
REMARK UNBOUND:                -0.451
REMARK  Name = 
REMARK  3 active torsions:
REMARK  status: ('A' for Active; 'I' for Inactive)
REMARK    1  A    between atoms: C_3  and  C_4
REMARK    2  A    between atoms: C_4  and  N_5
REMARK    3  A    between atoms: C_10  and  C_11
REMARK                            x       y       z     vdW  Elec       q    Type
REMARK                         _______ _______ _______ _____ _____    ______ ____
ROOT
ATOM      1  N   UNL     1      44.095   3.236   9.388  0.00  0.00    +0.000 N 
ATOM      2  C   UNL     1      43.987   3.983  10.553  0.00  0.00    +0.000 A 
ATOM      3  N   UNL     1      42.765   4.494  10.820  0.00  0.00    +0.000 NA
ATOM      4  N   UNL     1      42.575   5.290  11.901  0.00  0.00    +0.000 NA
ATOM      5  C   UNL     1      43.633   5.548  12.685  0.00  0.00    +0.000 A 
ATOM      6  C   UNL     1      44.873   4.998  12.421  0.00  0.00    +0.000 A 
ATOM      7  N   UNL     1      45.058   4.203  11.336  0.00  0.00    +0.000 NA
ATOM      8  H   UNL     1      43.157   2.962   9.116  0.00  0.00    +0.000 HD
ENDROOT
BRANCH   6   9
ATOM      9  C   UNL     1      46.056   5.246  13.274  0.00  0.00    +0.000 A 
ATOM     10  C   UNL     1      46.367   4.434  14.378  0.00  0.00    +0.000 A 
ATOM     11  C   UNL     1      47.482   4.724  15.151  0.00  0.00    +0.000 A 
ATOM     12  N   UNL     1      48.311   5.756  14.908  0.00  0.00    +0.000 NA
ATOM     13  C   UNL     1      48.018   6.527  13.845  0.00  0.00    +0.000 A 
ATOM     14  C   UNL     1      46.926   6.316  13.015  0.00  0.00    +0.000 A 
ENDBRANCH   6   9
BRANCH   1  15
ATOM     15  C   UNL     1      45.062   2.162   9.406  0.00  0.00    +0.000 C 
BRANCH  15  18
ATOM     16  C   UNL     1      46.772   3.498   6.292  0.00  0.00    +0.000 A 
ATOM     17  C   UNL     1      45.955   3.439   7.411  0.00  0.00    +0.000 A 
ATOM     18  C   UNL     1      45.937   2.268   8.176  0.00  0.00    +0.000 A 
ATOM     19  C   UNL     1      46.750   1.204   7.770  0.00  0.00    +0.000 A 
ATOM     20  C   UNL     1      47.536   1.360   6.637  0.00  0.00    +0.000 A 
ATOM     21  N   UNL     1      47.565   2.482   5.890  0.00  0.00    +0.000 NA
ENDBRANCH  15  18
ENDBRANCH   1  15
TORSDOF 3
ENDMDL
MODEL 3
REMARK VINA RESULT:    -7.729      0.939      1.723
REMARK INTER + INTRA:          -9.536
REMARK INTER:                  -8.993
REMARK INTRA:                  -0.542
REMARK UNBOUND:                -0.451
REMARK  Name = 
REMARK  3 active torsions:
REMARK  status: ('A' for Active; 'I' for Inactive)
REMARK    1  A    between atoms: C_3  and  C_4
REMARK    2  A    between atoms: C_4  and  N_5
REMARK    3  A    between atoms: C_10  and  C_11
REMARK                            x       y       z     vdW  Elec       q    Type
REMARK                         _______ _______ _______ _____ _____    ______ ____
ROOT
ATOM      1  N   UNL     1      44.258   2.867  10.938  0.00  0.00    +0.000 N 
ATOM      2  C   UNL     1      45.050   3.634  11.783  0.00  0.00    +0.000 A 
ATOM      3  N   UNL     1      45.735   2.957  12.731  0.00  0.00    +0.000 NA
ATOM      4  N   UNL     1      46.485   3.624  13.642  0.00  0.00    +0.000 NA
ATOM      5  C   UNL     1      46.521   4.962  13.568  0.00  0.00    +0.000 A 
ATOM      6  C   UNL     1      45.841   5.646  12.577  0.00  0.00    +0.000 A 
ATOM      7  N   UNL     1      45.089   4.973  11.668  0.00  0.00    +0.000 NA
ATOM      8  H   UNL     1      44.584   1.909  11.004  0.00  0.00    +0.000 HD
ENDROOT
BRANCH   6   9
ATOM      9  C   UNL     1      45.872   7.119  12.454  0.00  0.00    +0.000 A 
ATOM     10  C   UNL     1      44.883   7.835  11.758  0.00  0.00    +0.000 A 
ATOM     11  C   UNL     1      44.974   9.216  11.662  0.00  0.00    +0.000 A 
ATOM     12  N   UNL     1      45.970   9.938  12.207  0.00  0.00    +0.000 NA
ATOM     13  C   UNL     1      46.912   9.253  12.882  0.00  0.00    +0.000 A 
ATOM     14  C   UNL     1      46.905   7.873  13.031  0.00  0.00    +0.000 A 
ENDBRANCH   6   9
BRANCH   1  15
ATOM     15  C   UNL     1      44.094   3.365   9.591  0.00  0.00    +0.000 C 
BRANCH  15  18
ATOM     16  C   UNL     1      46.528   0.997   7.893  0.00  0.00    +0.000 A 
ATOM     17  C   UNL     1      45.496   1.454   8.700  0.00  0.00    +0.000 A 
ATOM     18  C   UNL     1      45.213   2.824   8.727  0.00  0.00    +0.000 A 
ATOM     19  C   UNL     1      45.992   3.673   7.934  0.00  0.00    +0.000 A 
ATOM     20  C   UNL     1      47.001   3.121   7.157  0.00  0.00    +0.000 A 
ATOM     21  N   UNL     1      47.285   1.803   7.119  0.00  0.00    +0.000 NA
ENDBRANCH  15  18
ENDBRANCH   1  15
TORSDOF 3
ENDMDL
MODEL 4
REMARK VINA RESULT:    -6.990      1.387      6.394
REMARK INTER + INTRA:          -8.667
REMARK INTER:                  -8.172
REMARK INTRA:                  -0.495
REMARK UNBOUND:                -0.451
REMARK  Name = 
REMARK  3 active torsions:
REMARK  status: ('A' for Active; 'I' for Inactive)
REMARK    1  A    between atoms: C_3  and  C_4
REMARK    2  A    between atoms: C_4  and  N_5
REMARK    3  A    between atoms: C_10  and  C_11
REMARK                            x       y       z     vdW  Elec       q    Type
REMARK                         _______ _______ _______ _____ _____    ______ ____
ROOT
ATOM      1  N   UNL     1      44.496   5.883  12.299  0.00  0.00    +0.000 N 
ATOM      2  C   UNL     1      44.290   4.706  11.591  0.00  0.00    +0.000 A 
ATOM      3  N   UNL     1      43.345   3.875  12.083  0.00  0.00    +0.000 NA
ATOM      4  N   UNL     1      43.116   2.674  11.498  0.00  0.00    +0.000 NA
ATOM      5  C   UNL     1      43.853   2.347  10.426  0.00  0.00    +0.000 A 
ATOM      6  C   UNL     1      44.797   3.215   9.911  0.00  0.00    +0.000 A 
ATOM      7  N   UNL     1      45.024   4.416  10.502  0.00  0.00    +0.000 NA
ATOM      8  H   UNL     1      43.681   6.032  12.882  0.00  0.00    +0.000 HD
ENDROOT
BRANCH   6   9
ATOM      9  C   UNL     1      45.614   2.895   8.720  0.00  0.00    +0.000 A 
ATOM     10  C   UNL     1      46.053   1.590   8.441  0.00  0.00    +0.000 A 
ATOM     11  C   UNL     1      46.831   1.352   7.317  0.00  0.00    +0.000 A 
ATOM     12  N   UNL     1      47.201   2.312   6.449  0.00  0.00    +0.000 NA
ATOM     13  C   UNL     1      46.772   3.560   6.712  0.00  0.00    +0.000 A 
ATOM     14  C   UNL     1      45.992   3.894   7.810  0.00  0.00    +0.000 A 
ENDBRANCH   6   9
BRANCH   1  15
ATOM     15  C   UNL     1      44.910   7.030  11.523  0.00  0.00    +0.000 C 
BRANCH  15  18
ATOM     16  C   UNL     1      48.611   7.561  12.177  0.00  0.00    +0.000 A 
ATOM     17  C   UNL     1      47.439   7.048  11.642  0.00  0.00    +0.000 A 
ATOM     18  C   UNL     1      46.213   7.559  12.083  0.00  0.00    +0.000 A 
ATOM     19  C   UNL     1      46.230   8.569  13.050  0.00  0.00    +0.000 A 
ATOM     20  C   UNL     1      47.455   9.020  13.523  0.00  0.00    +0.000 A 
ATOM     21  N   UNL     1      48.644   8.538  13.108  0.00  0.00    +0.000 NA
ENDBRANCH  15  18
ENDBRANCH   1  15
TORSDOF 3
ENDMDL
MODEL 5
REMARK VINA RESULT:    -6.762      2.831      7.120
REMARK INTER + INTRA:          -8.399
REMARK INTER:                  -8.076
REMARK INTRA:                  -0.323
REMARK UNBOUND:                -0.451
REMARK  Name = 
REMARK  3 active torsions:
REMARK  status: ('A' for Active; 'I' for Inactive)
REMARK    1  A    between atoms: C_3  and  C_4
REMARK    2  A    between atoms: C_4  and  N_5
REMARK    3  A    between atoms: C_10  and  C_11
REMARK                            x       y       z     vdW  Elec       q    Type
REMARK                         _______ _______ _______ _____ _____    ______ ____
ROOT
ATOM      1  N   UNL     1      45.499   4.780  14.139  0.00  0.00    +0.000 N 
ATOM      2  C   UNL     1      44.824   4.783  12.925  0.00  0.00    +0.000 A 
ATOM      3  N   UNL     1      43.597   5.347  12.930  0.00  0.00    +0.000 NA
ATOM      4  N   UNL     1      42.835   5.341  11.809  0.00  0.00    +0.000 NA
ATOM      5  C   UNL     1      43.339   4.761  10.710  0.00  0.00    +0.000 A 
ATOM      6  C   UNL     1      44.607   4.211  10.705  0.00  0.00    +0.000 A 
ATOM      7  N   UNL     1      45.366   4.218  11.831  0.00  0.00    +0.000 NA
ATOM      8  H   UNL     1      45.062   5.478  14.730  0.00  0.00    +0.000 HD
ENDROOT
BRANCH   6   9
ATOM      9  C   UNL     1      45.202   3.580   9.507  0.00  0.00    +0.000 A 
ATOM     10  C   UNL     1      45.308   2.186   9.368  0.00  0.00    +0.000 A 
ATOM     11  C   UNL     1      45.890   1.651   8.228  0.00  0.00    +0.000 A 
ATOM     12  N   UNL     1      46.371   2.396   7.216  0.00  0.00    +0.000 NA
ATOM     13  C   UNL     1      46.261   3.731   7.345  0.00  0.00    +0.000 A 
ATOM     14  C   UNL     1      45.695   4.357   8.447  0.00  0.00    +0.000 A 
ENDBRANCH   6   9
BRANCH   1  15
ATOM     15  C   UNL     1      46.941   4.858  14.067  0.00  0.00    +0.000 C 
BRANCH  15  18
ATOM     16  C   UNL     1      47.683   3.899  17.664  0.00  0.00    +0.000 A 
ATOM     17  C   UNL     1      47.143   3.864  16.387  0.00  0.00    +0.000 A 
ATOM     18  C   UNL     1      47.504   4.860  15.472  0.00  0.00    +0.000 A 
ATOM     19  C   UNL     1      48.397   5.850  15.894  0.00  0.00    +0.000 A 
ATOM     20  C   UNL     1      48.886   5.797  17.193  0.00  0.00    +0.000 A 
ATOM     21  N   UNL     1      48.549   4.844  18.085  0.00  0.00    +0.000 NA
ENDBRANCH  15  18
ENDBRANCH   1  15
TORSDOF 3
ENDMDL
MODEL 6
REMARK VINA RESULT:    -6.515      2.037      3.511
REMARK INTER + INTRA:          -8.109
REMARK INTER:                  -7.677
REMARK INTRA:                  -0.432
REMARK UNBOUND:                -0.451
REMARK  Name = 
REMARK  3 active torsions:
REMARK  status: ('A' for Active; 'I' for Inactive)
REMARK    1  A    between atoms: C_3  and  C_4
REMARK    2  A    between atoms: C_4  and  N_5
REMARK    3  A    between atoms: C_10  and  C_11
REMARK                            x       y       z     vdW  Elec       q    Type
REMARK                         _______ _______ _______ _____ _____    ______ ____
ROOT
ATOM      1  N   UNL     1      45.069   5.315   9.649  0.00  0.00    +0.000 N 
ATOM      2  C   UNL     1      45.321   6.037  10.807  0.00  0.00    +0.000 A 
ATOM      3  N   UNL     1      44.881   7.314  10.819  0.00  0.00    +0.000 NA
ATOM      4  N   UNL     1      45.135   8.118  11.880  0.00  0.00    +0.000 NA
ATOM      5  C   UNL     1      45.831   7.604  12.905  0.00  0.00    +0.000 A 
ATOM      6  C   UNL     1      46.253   6.288  12.899  0.00  0.00    +0.000 A 
ATOM      7  N   UNL     1      45.997   5.487  11.832  0.00  0.00    +0.000 NA
ATOM      8  H   UNL     1      44.331   5.796   9.146  0.00  0.00    +0.000 HD
ENDROOT
BRANCH   6   9
ATOM      9  C   UNL     1      47.005   5.682  14.019  0.00  0.00    +0.000 A 
ATOM     10  C   UNL     1      46.751   4.377  14.474  0.00  0.00    +0.000 A 
ATOM     11  C   UNL     1      47.478   3.868  15.540  0.00  0.00    +0.000 A 
ATOM     12  N   UNL     1      48.439   4.555  16.184  0.00  0.00    +0.000 NA
ATOM     13  C   UNL     1      48.689   5.801  15.742  0.00  0.00    +0.000 A 
ATOM     14  C   UNL     1      48.014   6.395  14.684  0.00  0.00    +0.000 A 
ENDBRANCH   6   9
BRANCH   1  15
ATOM     15  C   UNL     1      44.868   3.893   9.814  0.00  0.00    +0.000 C 
BRANCH  15  18
ATOM     16  C   UNL     1      46.452   1.130   7.748  0.00  0.00    +0.000 A 
ATOM     17  C   UNL     1      45.746   1.765   8.759  0.00  0.00    +0.000 A 
ATOM     18  C   UNL     1      45.632   3.159   8.732  0.00  0.00    +0.000 A 
ATOM     19  C   UNL     1      46.241   3.850   7.679  0.00  0.00    +0.000 A 
ATOM     20  C   UNL     1      46.924   3.125   6.712  0.00  0.00    +0.000 A 
ATOM     21  N   UNL     1      47.041   1.781   6.723  0.00  0.00    +0.000 NA
ENDBRANCH  15  18
ENDBRANCH   1  15
TORSDOF 3
ENDMDL
MODEL 7
REMARK VINA RESULT:    -6.282      4.650      6.435
REMARK INTER + INTRA:          -7.835
REMARK INTER:                  -7.478
REMARK INTRA:                  -0.357
REMARK UNBOUND:                -0.451
REMARK  Name = 
REMARK  3 active torsions:
REMARK  status: ('A' for Active; 'I' for Inactive)
REMARK    1  A    between atoms: C_3  and  C_4
REMARK    2  A    between atoms: C_4  and  N_5
REMARK    3  A    between atoms: C_10  and  C_11
REMARK                            x       y       z     vdW  Elec       q    Type
REMARK                         _______ _______ _______ _____ _____    ______ ____
ROOT
ATOM      1  N   UNL     1      46.731   3.543  14.256  0.00  0.00    +0.000 N 
ATOM      2  C   UNL     1      47.542   3.631  15.379  0.00  0.00    +0.000 A 
ATOM      3  N   UNL     1      48.377   2.590  15.592  0.00  0.00    +0.000 NA
ATOM      4  N   UNL     1      49.162   2.555  16.696  0.00  0.00    +0.000 NA
ATOM      5  C   UNL     1      49.080   3.580  17.558  0.00  0.00    +0.000 A 
ATOM      6  C   UNL     1      48.245   4.655  17.319  0.00  0.00    +0.000 A 
ATOM      7  N   UNL     1      47.459   4.684  16.211  0.00  0.00    +0.000 NA
ATOM      8  H   UNL     1      47.140   2.848  13.640  0.00  0.00    +0.000 HD
ENDROOT
BRANCH   6   9
ATOM      9  C   UNL     1      48.143   5.810  18.237  0.00  0.00    +0.000 A 
ATOM     10  C   UNL     1      47.646   5.685  19.546  0.00  0.00    +0.000 A 
ATOM     11  C   UNL     1      47.559   6.808  20.357  0.00  0.00    +0.000 A 
ATOM     12  N   UNL     1      47.929   8.041  19.967  0.00  0.00    +0.000 NA
ATOM     13  C   UNL     1      48.414   8.158  18.717  0.00  0.00    +0.000 A 
ATOM     14  C   UNL     1      48.539   7.094  17.834  0.00  0.00    +0.000 A 
ENDBRANCH   6   9
BRANCH   1  15
ATOM     15  C   UNL     1      46.385   4.794  13.618  0.00  0.00    +0.000 C 
BRANCH  15  18
ATOM     16  C   UNL     1      43.703   3.282  11.399  0.00  0.00    +0.000 A 
ATOM     17  C   UNL     1      44.883   3.418  12.114  0.00  0.00    +0.000 A 
ATOM     18  C   UNL     1      45.113   4.604  12.821  0.00  0.00    +0.000 A 
ATOM     19  C   UNL     1      44.134   5.602  12.770  0.00  0.00    +0.000 A 
ATOM     20  C   UNL     1      42.983   5.370  12.028  0.00  0.00    +0.000 A 
ATOM     21  N   UNL     1      42.747   4.233  11.342  0.00  0.00    +0.000 NA
ENDBRANCH  15  18
ENDBRANCH   1  15
TORSDOF 3
ENDMDL
MODEL 8
REMARK VINA RESULT:    -5.873      1.949      3.029
REMARK INTER + INTRA:          -7.354
REMARK INTER:                  -6.835
REMARK INTRA:                  -0.519
REMARK UNBOUND:                -0.451
REMARK  Name = 
REMARK  3 active torsions:
REMARK  status: ('A' for Active; 'I' for Inactive)
REMARK    1  A    between atoms: C_3  and  C_4
REMARK    2  A    between atoms: C_4  and  N_5
REMARK    3  A    between atoms: C_10  and  C_11
REMARK                            x       y       z     vdW  Elec       q    Type
REMARK                         _______ _______ _______ _____ _____    ______ ____
ROOT
ATOM      1  N   UNL     1      44.836   5.530  12.158  0.00  0.00    +0.000 N 
ATOM      2  C   UNL     1      46.115   5.869  12.581  0.00  0.00    +0.000 A 
ATOM      3  N   UNL     1      46.645   5.092  13.551  0.00  0.00    +0.000 NA
ATOM      4  N   UNL     1      47.862   5.382  14.074  0.00  0.00    +0.000 NA
ATOM      5  C   UNL     1      48.511   6.454  13.596  0.00  0.00    +0.000 A 
ATOM      6  C   UNL     1      47.975   7.227  12.583  0.00  0.00    +0.000 A 
ATOM      7  N   UNL     1      46.755   6.933  12.064  0.00  0.00    +0.000 NA
ATOM      8  H   UNL     1      44.664   4.574  12.449  0.00  0.00    +0.000 HD
ENDROOT
BRANCH   6   9
ATOM      9  C   UNL     1      48.671   8.404  12.020  0.00  0.00    +0.000 A 
ATOM     10  C   UNL     1      50.038   8.382  11.694  0.00  0.00    +0.000 A 
ATOM     11  C   UNL     1      50.640   9.523  11.183  0.00  0.00    +0.000 A 
ATOM     12  N   UNL     1      49.988  10.680  10.970  0.00  0.00    +0.000 NA
ATOM     13  C   UNL     1      48.677  10.697  11.273  0.00  0.00    +0.000 A 
ATOM     14  C   UNL     1      47.988   9.607  11.788  0.00  0.00    +0.000 A 
ENDBRANCH   6   9
BRANCH   1  15
ATOM     15  C   UNL     1      44.526   5.811  10.775  0.00  0.00    +0.000 C 
BRANCH  15  18
ATOM     16  C   UNL     1      45.887   3.584   8.019  0.00  0.00    +0.000 A 
ATOM     17  C   UNL     1      45.598   4.723   8.756  0.00  0.00    +0.000 A 
ATOM     18  C   UNL     1      44.861   4.595   9.938  0.00  0.00    +0.000 A 
ATOM     19  C   UNL     1      44.447   3.315  10.321  0.00  0.00    +0.000 A 
ATOM     20  C   UNL     1      44.788   2.235   9.518  0.00  0.00    +0.000 A 
ATOM     21  N   UNL     1      45.499   2.342   8.377  0.00  0.00    +0.000 NA
ENDBRANCH  15  18
ENDBRANCH   1  15
TORSDOF 3
ENDMDL
MODEL 9
REMARK VINA RESULT:    -5.708      3.259      5.334
REMARK INTER + INTRA:          -7.161
REMARK INTER:                  -6.742
REMARK INTRA:                  -0.418
REMARK UNBOUND:                -0.451
REMARK  Name = 
REMARK  3 active torsions:
REMARK  status: ('A' for Active; 'I' for Inactive)
REMARK    1  A    between atoms: C_3  and  C_4
REMARK    2  A    between atoms: C_4  and  N_5
REMARK    3  A    between atoms: C_10  and  C_11
REMARK                            x       y       z     vdW  Elec       q    Type
REMARK                         _______ _______ _______ _____ _____    ______ ____
ROOT
ATOM      1  N   UNL     1      46.709   6.467  11.733  0.00  0.00    +0.000 N 
ATOM      2  C   UNL     1      47.488   6.707  12.857  0.00  0.00    +0.000 A 
ATOM      3  N   UNL     1      48.308   7.779  12.793  0.00  0.00    +0.000 NA
ATOM      4  N   UNL     1      49.153   8.058  13.816  0.00  0.00    +0.000 NA
ATOM      5  C   UNL     1      49.143   7.240  14.879  0.00  0.00    +0.000 A 
ATOM      6  C   UNL     1      48.281   6.162  14.950  0.00  0.00    +0.000 A 
ATOM      7  N   UNL     1      47.438   5.886  13.921  0.00  0.00    +0.000 NA
ATOM      8  H   UNL     1      46.685   7.324  11.192  0.00  0.00    +0.000 HD
ENDROOT
BRANCH   6   9
ATOM      9  C   UNL     1      48.230   5.252  16.114  0.00  0.00    +0.000 A 
ATOM     10  C   UNL     1      47.407   4.113  16.139  0.00  0.00    +0.000 A 
ATOM     11  C   UNL     1      47.389   3.303  17.266  0.00  0.00    +0.000 A 
ATOM     12  N   UNL     1      48.128   3.538  18.365  0.00  0.00    +0.000 NA
ATOM     13  C   UNL     1      48.924   4.623  18.336  0.00  0.00    +0.000 A 
ATOM     14  C   UNL     1      49.009   5.490  17.256  0.00  0.00    +0.000 A 
ENDBRANCH   6   9
BRANCH   1  15
ATOM     15  C   UNL     1      45.420   5.857  11.968  0.00  0.00    +0.000 C 
BRANCH  15  18
ATOM     16  C   UNL     1      45.268   4.192   8.560  0.00  0.00    +0.000 A 
ATOM     17  C   UNL     1      45.545   5.126   9.547  0.00  0.00    +0.000 A 
ATOM     18  C   UNL     1      45.135   4.866  10.859  0.00  0.00    +0.000 A 
ATOM     19  C   UNL     1      44.460   3.668  11.113  0.00  0.00    +0.000 A 
ATOM     20  C   UNL     1      44.232   2.794  10.059  0.00  0.00    +0.000 A 
ATOM     21  N   UNL     1      44.621   3.029   8.790  0.00  0.00    +0.000 NA
ENDBRANCH  15  18
ENDBRANCH   1  15
TORSDOF 3
ENDMDL
