MODEL 1
REMARK VINA RESULT:    -8.371      0.000      0.000
REMARK INTER + INTRA:         -12.268
REMARK INTER:                 -11.551
REMARK INTRA:                  -0.717
REMARK UNBOUND:                -0.717
REMARK  Name = 
REMARK  7 active torsions:
REMARK  status: ('A' for Active; 'I' for Inactive)
REMARK    1  A    between atoms: C_2  and  C_4
REMARK    2  A    between atoms: C_7  and  O_8
REMARK    3  A    between atoms: O_8  and  C_9
REMARK    4  A    between atoms: C_9  and  C_10
REMARK    5  A    between atoms: C_10  and  C_11
REMARK    6  A    between atoms: CA_15  and  C_16
REMARK    7  A    between atoms: C_16  and  OXT_18
REMARK                            x       y       z     vdW  Elec       q    Type
REMARK                         _______ _______ _______ _____ _____    ______ ____
ROOT
ATOM      1  O   UNL     1      43.519   3.327  10.537  0.00  0.00    +0.000 OA
ENDROOT
BRANCH   1   5
ATOM      2  C   UNL     1      46.411   2.701   7.591  0.00  0.00    +0.000 A 
ATOM      3  C   UNL     1      45.986   4.010   7.843  0.00  0.00    +0.000 A 
ATOM      4  C   UNL     1      45.020   4.260   8.826  0.00  0.00    +0.000 A 
ATOM      5  C   UNL     1      44.470   3.208   9.561  0.00  0.00    +0.000 A 
ATOM      6  C   UNL     1      44.894   1.901   9.302  0.00  0.00    +0.000 A 
ATOM      7  C   UNL     1      45.855   1.644   8.318  0.00  0.00    +0.000 A 
BRANCH   2   9
ATOM      8  N   UNL     1      47.352   3.138   5.388  0.00  0.00    +0.000 N 
ATOM      9  C   UNL     1      47.414   2.400   6.538  0.00  0.00    +0.000 C 
ATOM     10  O   UNL     1      48.281   1.550   6.698  0.00  0.00    +0.000 OA
ATOM     11  H   UNL     1      48.096   2.986   4.717  0.00  0.00    +0.000 HD
ATOM     12  H   UNL     1      46.832   4.001   5.325  0.00  0.00    +0.000 HD
ENDBRANCH   2   9
ENDBRANCH   1   5
BRANCH   1  13
ATOM     13  C   UNL     1      43.160   4.656  10.931  0.00  0.00    +0.000 C 
BRANCH  13  14
ATOM     14  C   UNL     1      43.333   4.783  12.438  0.00  0.00    +0.000 C 
BRANCH  14  15
ATOM     15  C   UNL     1      44.766   5.075  12.777  0.00  0.00    +0.000 A 
ATOM     16  N   UNL     1      45.394   6.012  12.038  0.00  0.00    +0.000 NA
ATOM     17  C   UNL     1      46.674   6.295  12.355  0.00  0.00    +0.000 A 
ATOM     18  C   UNL     1      47.343   5.695  13.386  0.00  0.00    +0.000 A 
ATOM     19  CA  UNL     1      46.611   4.762  14.088  0.00  0.00    +0.000 A 
ATOM     20  N   UNL     1      45.320   4.428  13.819  0.00  0.00    +0.000 NA
BRANCH  19  21
ATOM     21  C   UNL     1      47.246   4.056  15.236  0.00  0.00    +0.000 C 
ATOM     22  O   UNL     1      47.784   2.966  15.158  0.00  0.00    +0.000 OA
BRANCH  21  23
ATOM     23  OXT UNL     1      47.152   4.775  16.381  0.00  0.00    +0.000 OA
ATOM     24  HXT UNL     1      47.999   5.240  16.558  0.00  0.00    +0.000 HD
ENDBRANCH  21  23
ENDBRANCH  19  21
ENDBRANCH  14  15
ENDBRANCH  13  14
ENDBRANCH   1  13
TORSDOF 7
ENDMDL
MODEL 2
REMARK VINA RESULT:    -8.112      1.852      2.574
REMARK INTER + INTRA:         -11.911
REMARK INTER:                 -11.251
REMARK INTRA:                  -0.660
REMARK UNBOUND:                -0.717
REMARK  Name = 
REMARK  7 active torsions:
REMARK  status: ('A' for Active; 'I' for Inactive)
REMARK    1  A    between atoms: C_2  and  C_4
REMARK    2  A    between atoms: C_7  and  O_8
REMARK    3  A    between atoms: O_8  and  C_9
REMARK    4  A    between atoms: C_9  and  C_10
REMARK    5  A    between atoms: C_10  and  C_11
REMARK    6  A    between atoms: CA_15  and  C_16
REMARK    7  A    between atoms: C_16  and  OXT_18
REMARK                            x       y       z     vdW  Elec       q    Type
REMARK                         _______ _______ _______ _____ _____    ______ ____
ROOT
ATOM      1  O   UNL     1      43.693   4.506  10.240  0.00  0.00    +0.000 OA
ENDROOT
BRANCH   1   5
ATOM      2  C   UNL     1      46.372   2.462   7.774  0.00  0.00    +0.000 A 
ATOM      3  C   UNL     1      45.589   1.723   8.667  0.00  0.00    +0.000 A 
ATOM      4  C   UNL     1      44.676   2.373   9.507  0.00  0.00    +0.000 A 
ATOM      5  C   UNL     1      44.541   3.762   9.466  0.00  0.00    +0.000 A 
ATOM      6  C   UNL     1      45.330   4.496   8.576  0.00  0.00    +0.000 A 
ATOM      7  C   UNL     1      46.247   3.853   7.736  0.00  0.00    +0.000 A 
BRANCH   2   9
ATOM      8  N   UNL     1      48.447   2.552   6.501  0.00  0.00    +0.000 N 
ATOM      9  C   UNL     1      47.367   1.805   6.888  0.00  0.00    +0.000 C 
ATOM     10  O   UNL     1      47.248   0.638   6.540  0.00  0.00    +0.000 OA
ATOM     11  H   UNL     1      49.161   2.065   5.973  0.00  0.00    +0.000 HD
ATOM     12  H   UNL     1      48.707   3.409   6.965  0.00  0.00    +0.000 HD
ENDBRANCH   2   9
ENDBRANCH   1   5
BRANCH   1  13
ATOM     13  C   UNL     1      43.165   3.873  11.411  0.00  0.00    +0.000 C 
BRANCH  13  14
ATOM     14  C   UNL     1      43.153   4.885  12.549  0.00  0.00    +0.000 C 
BRANCH  14  15
ATOM     15  C   UNL     1      44.556   5.254  12.935  0.00  0.00    +0.000 A 
ATOM     16  N   UNL     1      45.375   4.251  13.310  0.00  0.00    +0.000 NA
ATOM     17  C   UNL     1      46.643   4.575  13.635  0.00  0.00    +0.000 A 
ATOM     18  C   UNL     1      47.128   5.853  13.583  0.00  0.00    +0.000 A 
ATOM     19  CA  UNL     1      46.218   6.803  13.175  0.00  0.00    +0.000 A 
ATOM     20  N   UNL     1      44.926   6.544  12.838  0.00  0.00    +0.000 NA
BRANCH  19  21
ATOM     21  C   UNL     1      46.649   8.227  13.079  0.00  0.00    +0.000 C 
ATOM     22  O   UNL     1      46.857   8.811  12.031  0.00  0.00    +0.000 OA
BRANCH  21  23
ATOM     23  OXT UNL     1      46.785   8.792  14.303  0.00  0.00    +0.000 OA
ATOM     24  HXT UNL     1      46.603   9.757  14.251  0.00  0.00    +0.000 HD
ENDBRANCH  21  23
ENDBRANCH  19  21
ENDBRANCH  14  15
ENDBRANCH  13  14
ENDBRANCH   1  13
TORSDOF 7
ENDMDL
MODEL 3
REMARK VINA RESULT:    -7.382      2.289      6.236
REMARK INTER + INTRA:         -10.905
REMARK INTER:                 -10.187
REMARK INTRA:                  -0.718
REMARK UNBOUND:                -0.717
REMARK  Name = 
REMARK  7 active torsions:
REMARK  status: ('A' for Active; 'I' for Inactive)
REMARK    1  A    between atoms: C_2  and  C_4
REMARK    2  A    between atoms: C_7  and  O_8
REMARK    3  A    between atoms: O_8  and  C_9
REMARK    4  A    between atoms: C_9  and  C_10
REMARK    5  A    between atoms: C_10  and  C_11
REMARK    6  A    between atoms: CA_15  and  C_16
REMARK    7  A    between atoms: C_16  and  OXT_18
REMARK                            x       y       z     vdW  Elec       q    Type
REMARK                         _______ _______ _______ _____ _____    ______ ____
ROOT
ATOM      1  O   UNL     1      43.860   4.138  12.536  0.00  0.00    +0.000 OA
ENDROOT
BRANCH   1   5
ATOM      2  C   UNL     1      47.490   6.177  12.850  0.00  0.00    +0.000 A 
ATOM      3  C   UNL     1      47.256   5.093  13.703  0.00  0.00    +0.000 A 
ATOM      4  C   UNL     1      46.053   4.381  13.625  0.00  0.00    +0.000 A 
ATOM      5  C   UNL     1      45.073   4.749  12.700  0.00  0.00    +0.000 A 
ATOM      6  C   UNL     1      45.309   5.837  11.854  0.00  0.00    +0.000 A 
ATOM      7  C   UNL     1      46.508   6.553  11.930  0.00  0.00    +0.000 A 
BRANCH   2   9
ATOM      8  N   UNL     1      49.012   7.817  11.887  0.00  0.00    +0.000 N 
ATOM      9  C   UNL     1      48.746   6.967  12.925  0.00  0.00    +0.000 C 
ATOM     10  O   UNL     1      49.500   6.888  13.887  0.00  0.00    +0.000 OA
ATOM     11  H   UNL     1      49.823   8.415  11.994  0.00  0.00    +0.000 HD
ATOM     12  H   UNL     1      48.307   8.096  11.220  0.00  0.00    +0.000 HD
ENDBRANCH   2   9
ENDBRANCH   1   5
BRANCH   1  13
ATOM     13  C   UNL     1      43.390   3.988  11.191  0.00  0.00    +0.000 C 
BRANCH  13  14
ATOM     14  C   UNL     1      43.896   2.660  10.643  0.00  0.00    +0.000 C 
BRANCH  14  15
ATOM     15  C   UNL     1      44.791   2.890   9.460  0.00  0.00    +0.000 A 
ATOM     16  N   UNL     1      44.879   4.152   8.992  0.00  0.00    +0.000 NA
ATOM     17  C   UNL     1      45.701   4.368   7.945  0.00  0.00    +0.000 A 
ATOM     18  C   UNL     1      46.448   3.382   7.361  0.00  0.00    +0.000 A 
ATOM     19  CA  UNL     1      46.298   2.131   7.920  0.00  0.00    +0.000 A 
ATOM     20  N   UNL     1      45.485   1.846   8.972  0.00  0.00    +0.000 NA
BRANCH  19  21
ATOM     21  C   UNL     1      47.074   0.989   7.360  0.00  0.00    +0.000 C 
ATOM     22  O   UNL     1      47.900   1.091   6.471  0.00  0.00    +0.000 OA
BRANCH  21  23
ATOM     23  OXT UNL     1      46.746  -0.181   7.961  0.00  0.00    +0.000 OA
ATOM     24  HXT UNL     1      47.556  -0.628   8.292  0.00  0.00    +0.000 HD
ENDBRANCH  21  23
ENDBRANCH  19  21
ENDBRANCH  14  15
ENDBRANCH  13  14
ENDBRANCH   1  13
TORSDOF 7
ENDMDL
MODEL 4
REMARK VINA RESULT:    -7.071      1.745      2.068
REMARK INTER + INTRA:         -10.475
REMARK INTER:                  -9.908
REMARK INTRA:                  -0.567
REMARK UNBOUND:                -0.717
REMARK  Name = 
REMARK  7 active torsions:
REMARK  status: ('A' for Active; 'I' for Inactive)
REMARK    1  A    between atoms: C_2  and  C_4
REMARK    2  A    between atoms: C_7  and  O_8
REMARK    3  A    between atoms: O_8  and  C_9
REMARK    4  A    between atoms: C_9  and  C_10
REMARK    5  A    between atoms: C_10  and  C_11
REMARK    6  A    between atoms: CA_15  and  C_16
REMARK    7  A    between atoms: C_16  and  OXT_18
REMARK                            x       y       z     vdW  Elec       q    Type
REMARK                         _______ _______ _______ _____ _____    ______ ____
ROOT
ATOM      1  O   UNL     1      43.684   3.960  10.430  0.00  0.00    +0.000 OA
ENDROOT
BRANCH   1   5
ATOM      2  C   UNL     1      46.421   2.723   7.530  0.00  0.00    +0.000 A 
ATOM      3  C   UNL     1      46.179   4.093   7.679  0.00  0.00    +0.000 A 
ATOM      4  C   UNL     1      45.271   4.547   8.644  0.00  0.00    +0.000 A 
ATOM      5  C   UNL     1      44.596   3.639   9.462  0.00  0.00    +0.000 A 
ATOM      6  C   UNL     1      44.837   2.271   9.305  0.00  0.00    +0.000 A 
ATOM      7  C   UNL     1      45.741   1.811   8.341  0.00  0.00    +0.000 A 
BRANCH   2   9
ATOM      8  N   UNL     1      47.401   2.875   5.305  0.00  0.00    +0.000 N 
ATOM      9  C   UNL     1      47.359   2.209   6.499  0.00  0.00    +0.000 C 
ATOM     10  O   UNL     1      48.088   1.248   6.713  0.00  0.00    +0.000 OA
ATOM     11  H   UNL     1      48.108   2.571   4.646  0.00  0.00    +0.000 HD
ATOM     12  H   UNL     1      47.017   3.801   5.187  0.00  0.00    +0.000 HD
ENDBRANCH   2   9
ENDBRANCH   1   5
BRANCH   1  13
ATOM     13  C   UNL     1      43.922   5.165  11.166  0.00  0.00    +0.000 C 
BRANCH  13  14
ATOM     14  C   UNL     1      44.944   4.877  12.258  0.00  0.00    +0.000 C 
BRANCH  14  15
ATOM     15  C   UNL     1      45.664   6.136  12.647  0.00  0.00    +0.000 A 
ATOM     16  N   UNL     1      44.999   7.298  12.485  0.00  0.00    +0.000 NA
ATOM     17  C   UNL     1      45.632   8.430  12.857  0.00  0.00    +0.000 A 
ATOM     18  C   UNL     1      46.889   8.445  13.395  0.00  0.00    +0.000 A 
ATOM     19  CA  UNL     1      47.477   7.207  13.532  0.00  0.00    +0.000 A 
ATOM     20  N   UNL     1      46.897   6.030  13.174  0.00  0.00    +0.000 NA
BRANCH  19  21
ATOM     21  C   UNL     1      48.845   7.114  14.115  0.00  0.00    +0.000 C 
ATOM     22  O   UNL     1      49.091   7.208  15.305  0.00  0.00    +0.000 OA
BRANCH  21  23
ATOM     23  OXT UNL     1      49.785   6.915  13.159  0.00  0.00    +0.000 OA
ATOM     24  HXT UNL     1      49.909   7.736  12.633  0.00  0.00    +0.000 HD
ENDBRANCH  21  23
ENDBRANCH  19  21
ENDBRANCH  14  15
ENDBRANCH  13  14
ENDBRANCH   1  13
TORSDOF 7
ENDMDL
MODEL 5
REMARK VINA RESULT:    -6.457      3.155      4.801
REMARK INTER + INTRA:          -9.627
REMARK INTER:                  -9.021
REMARK INTRA:                  -0.606
REMARK UNBOUND:                -0.717
REMARK  Name = 
REMARK  7 active torsions:
REMARK  status: ('A' for Active; 'I' for Inactive)
REMARK    1  A    between atoms: C_2  and  C_4
REMARK    2  A    between atoms: C_7  and  O_8
REMARK    3  A    between atoms: O_8  and  C_9
REMARK    4  A    between atoms: C_9  and  C_10
REMARK    5  A    between atoms: C_10  and  C_11
REMARK    6  A    between atoms: CA_15  and  C_16
REMARK    7  A    between atoms: C_16  and  OXT_18
REMARK                            x       y       z     vdW  Elec       q    Type
REMARK                         _______ _______ _______ _____ _____    ______ ____
ROOT
ATOM      1  O   UNL     1      47.396   7.117  12.664  0.00  0.00    +0.000 OA
ENDROOT
BRANCH   1   5
ATOM      2  C   UNL     1      44.927   4.050  11.274  0.00  0.00    +0.000 A 
ATOM      3  C   UNL     1      45.226   5.111  10.412  0.00  0.00    +0.000 A 
ATOM      4  C   UNL     1      46.053   6.156  10.840  0.00  0.00    +0.000 A 
ATOM      5  C   UNL     1      46.585   6.152  12.131  0.00  0.00    +0.000 A 
ATOM      6  C   UNL     1      46.279   5.093  12.991  0.00  0.00    +0.000 A 
ATOM      7  C   UNL     1      45.450   4.048  12.570  0.00  0.00    +0.000 A 
BRANCH   2   9
ATOM      8  N   UNL     1      44.473   2.129   9.847  0.00  0.00    +0.000 N 
ATOM      9  C   UNL     1      44.032   2.940  10.858  0.00  0.00    +0.000 C 
ATOM     10  O   UNL     1      42.960   2.735  11.411  0.00  0.00    +0.000 OA
ATOM     11  H   UNL     1      43.895   1.323   9.636  0.00  0.00    +0.000 HD
ATOM     12  H   UNL     1      45.437   2.107   9.552  0.00  0.00    +0.000 HD
ENDBRANCH   2   9
ENDBRANCH   1   5
BRANCH   1  13
ATOM     13  C   UNL     1      48.649   6.681  13.204  0.00  0.00    +0.000 C 
BRANCH  13  14
ATOM     14  C   UNL     1      48.966   7.516  14.438  0.00  0.00    +0.000 C 
BRANCH  14  15
ATOM     15  C   UNL     1      48.722   6.719  15.686  0.00  0.00    +0.000 A 
ATOM     16  N   UNL     1      48.816   7.373  16.861  0.00  0.00    +0.000 NA
ATOM     17  C   UNL     1      48.573   6.667  17.984  0.00  0.00    +0.000 A 
ATOM     18  C   UNL     1      48.227   5.344  17.979  0.00  0.00    +0.000 A 
ATOM     19  CA  UNL     1      48.145   4.770  16.729  0.00  0.00    +0.000 A 
ATOM     20  N   UNL     1      48.380   5.424  15.560  0.00  0.00    +0.000 NA
BRANCH  19  21
ATOM     21  C   UNL     1      47.767   3.333  16.615  0.00  0.00    +0.000 C 
ATOM     22  O   UNL     1      48.323   2.534  15.882  0.00  0.00    +0.000 OA
BRANCH  21  23
ATOM     23  OXT UNL     1      46.727   3.023  17.426  0.00  0.00    +0.000 OA
ATOM     24  HXT UNL     1      47.049   2.859  18.340  0.00  0.00    +0.000 HD
ENDBRANCH  21  23
ENDBRANCH  19  21
ENDBRANCH  14  15
ENDBRANCH  13  14
ENDBRANCH   1  13
TORSDOF 7
ENDMDL
MODEL 6
REMARK VINA RESULT:    -6.401      3.916      5.653
REMARK INTER + INTRA:          -9.550
REMARK INTER:                  -8.908
REMARK INTRA:                  -0.641
REMARK UNBOUND:                -0.717
REMARK  Name = 
REMARK  7 active torsions:
REMARK  status: ('A' for Active; 'I' for Inactive)
REMARK    1  A    between atoms: C_2  and  C_4
REMARK    2  A    between atoms: C_7  and  O_8
REMARK    3  A    between atoms: O_8  and  C_9
REMARK    4  A    between atoms: C_9  and  C_10
REMARK    5  A    between atoms: C_10  and  C_11
REMARK    6  A    between atoms: CA_15  and  C_16
REMARK    7  A    between atoms: C_16  and  OXT_18
REMARK                            x       y       z     vdW  Elec       q    Type
REMARK                         _______ _______ _______ _____ _____    ______ ____
ROOT
ATOM      1  O   UNL     1      48.470   6.336  13.093  0.00  0.00    +0.000 OA
ENDROOT
BRANCH   1   5
ATOM      2  C   UNL     1      44.540   5.372  12.061  0.00  0.00    +0.000 A 
ATOM      3  C   UNL     1      45.040   4.918  13.287  0.00  0.00    +0.000 A 
ATOM      4  C   UNL     1      46.352   5.225  13.670  0.00  0.00    +0.000 A 
ATOM      5  C   UNL     1      47.174   5.981  12.833  0.00  0.00    +0.000 A 
ATOM      6  C   UNL     1      46.672   6.427  11.607  0.00  0.00    +0.000 A 
ATOM      7  C   UNL     1      45.363   6.122  11.217  0.00  0.00    +0.000 A 
BRANCH   2   9
ATOM      8  N   UNL     1      42.226   6.037  11.695  0.00  0.00    +0.000 N 
ATOM      9  C   UNL     1      43.162   5.042  11.616  0.00  0.00    +0.000 C 
ATOM     10  O   UNL     1      42.876   3.939  11.168  0.00  0.00    +0.000 OA
ATOM     11  H   UNL     1      41.315   5.827  11.304  0.00  0.00    +0.000 HD
ATOM     12  H   UNL     1      42.475   7.008  11.810  0.00  0.00    +0.000 HD
ENDBRANCH   2   9
ENDBRANCH   1   5
BRANCH   1  13
ATOM     13  C   UNL     1      48.670   7.418  14.010  0.00  0.00    +0.000 C 
BRANCH  13  14
ATOM     14  C   UNL     1      49.720   7.005  15.032  0.00  0.00    +0.000 C 
BRANCH  14  15
ATOM     15  C   UNL     1      49.070   6.348  16.214  0.00  0.00    +0.000 A 
ATOM     16  N   UNL     1      48.789   7.131  17.275  0.00  0.00    +0.000 NA
ATOM     17  C   UNL     1      48.182   6.551  18.330  0.00  0.00    +0.000 A 
ATOM     18  C   UNL     1      47.831   5.230  18.361  0.00  0.00    +0.000 A 
ATOM     19  CA  UNL     1      48.148   4.518  17.225  0.00  0.00    +0.000 A 
ATOM     20  N   UNL     1      48.762   5.041  16.130  0.00  0.00    +0.000 NA
BRANCH  19  21
ATOM     21  C   UNL     1      47.801   3.070  17.155  0.00  0.00    +0.000 C 
ATOM     22  O   UNL     1      48.508   2.219  16.646  0.00  0.00    +0.000 OA
BRANCH  21  23
ATOM     23  OXT UNL     1      46.599   2.816  17.727  0.00  0.00    +0.000 OA
ATOM     24  HXT UNL     1      46.117   3.658  17.886  0.00  0.00    +0.000 HD
ENDBRANCH  21  23
ENDBRANCH  19  21
ENDBRANCH  14  15
ENDBRANCH  13  14
ENDBRANCH   1  13
TORSDOF 7
ENDMDL
MODEL 7
REMARK VINA RESULT:    -5.874      4.294      6.623
REMARK INTER + INTRA:          -8.823
REMARK INTER:                  -8.238
REMARK INTRA:                  -0.585
REMARK UNBOUND:                -0.717
REMARK  Name = 
REMARK  7 active torsions:
REMARK  status: ('A' for Active; 'I' for Inactive)
REMARK    1  A    between atoms: C_2  and  C_4
REMARK    2  A    between atoms: C_7  and  O_8
REMARK    3  A    between atoms: O_8  and  C_9
REMARK    4  A    between atoms: C_9  and  C_10
REMARK    5  A    between atoms: C_10  and  C_11
REMARK    6  A    between atoms: CA_15  and  C_16
REMARK    7  A    between atoms: C_16  and  OXT_18
REMARK                            x       y       z     vdW  Elec       q    Type
REMARK                         _______ _______ _______ _____ _____    ______ ____
ROOT
ATOM      1  O   UNL     1      48.828   5.995  14.560  0.00  0.00    +0.000 OA
ENDROOT
BRANCH   1   5
ATOM      2  C   UNL     1      45.037   5.559  12.866  0.00  0.00    +0.000 A 
ATOM      3  C   UNL     1      45.614   4.457  13.506  0.00  0.00    +0.000 A 
ATOM      4  C   UNL     1      46.882   4.565  14.090  0.00  0.00    +0.000 A 
ATOM      5  C   UNL     1      47.584   5.770  14.035  0.00  0.00    +0.000 A 
ATOM      6  C   UNL     1      47.007   6.867  13.390  0.00  0.00    +0.000 A 
ATOM      7  C   UNL     1      45.741   6.764  12.801  0.00  0.00    +0.000 A 
BRANCH   2   9
ATOM      8  N   UNL     1      42.606   5.595  13.021  0.00  0.00    +0.000 N 
ATOM      9  C   UNL     1      43.704   5.469  12.215  0.00  0.00    +0.000 C 
ATOM     10  O   UNL     1      43.587   5.318  11.006  0.00  0.00    +0.000 OA
ATOM     11  H   UNL     1      41.708   5.623  12.554  0.00  0.00    +0.000 HD
ATOM     12  H   UNL     1      42.661   5.970  13.957  0.00  0.00    +0.000 HD
ENDBRANCH   2   9
ENDBRANCH   1   5
BRANCH   1  13
ATOM     13  C   UNL     1      48.928   6.997  15.579  0.00  0.00    +0.000 C 
BRANCH  13  14
ATOM     14  C   UNL     1      48.630   6.354  16.927  0.00  0.00    +0.000 C 
BRANCH  14  15
ATOM     15  C   UNL     1      49.732   5.411  17.311  0.00  0.00    +0.000 A 
ATOM     16  N   UNL     1      50.761   5.923  18.017  0.00  0.00    +0.000 NA
ATOM     17  C   UNL     1      51.742   5.074  18.386  0.00  0.00    +0.000 A 
ATOM     18  C   UNL     1      51.728   3.738  18.094  0.00  0.00    +0.000 A 
ATOM     19  CA  UNL     1      50.628   3.311  17.382  0.00  0.00    +0.000 A 
ATOM     20  N   UNL     1      49.608   4.114  16.977  0.00  0.00    +0.000 NA
BRANCH  19  21
ATOM     21  C   UNL     1      50.514   1.870  17.020  0.00  0.00    +0.000 C 
ATOM     22  O   UNL     1      51.197   0.985  17.504  0.00  0.00    +0.000 OA
BRANCH  21  23
ATOM     23  OXT UNL     1      49.557   1.663  16.083  0.00  0.00    +0.000 OA
ATOM     24  HXT UNL     1      49.970   1.369  15.240  0.00  0.00    +0.000 HD
ENDBRANCH  21  23
ENDBRANCH  19  21
ENDBRANCH  14  15
ENDBRANCH  13  14
ENDBRANCH   1  13
TORSDOF 7
ENDMDL
MODEL 8
REMARK VINA RESULT:    -5.621      2.824      7.341
REMARK INTER + INTRA:          -8.474
REMARK INTER:                  -7.925
REMARK INTRA:                  -0.550
REMARK UNBOUND:                -0.717
REMARK  Name = 
REMARK  7 active torsions:
REMARK  status: ('A' for Active; 'I' for Inactive)
REMARK    1  A    between atoms: C_2  and  C_4
REMARK    2  A    between atoms: C_7  and  O_8
REMARK    3  A    between atoms: O_8  and  C_9
REMARK    4  A    between atoms: C_9  and  C_10
REMARK    5  A    between atoms: C_10  and  C_11
REMARK    6  A    between atoms: CA_15  and  C_16
REMARK    7  A    between atoms: C_16  and  OXT_18
REMARK                            x       y       z     vdW  Elec       q    Type
REMARK                         _______ _______ _______ _____ _____    ______ ____
ROOT
ATOM      1  O   UNL     1      47.565   6.942  13.605  0.00  0.00    +0.000 OA
ENDROOT
BRANCH   1   5
ATOM      2  C   UNL     1      48.694   4.705  16.946  0.00  0.00    +0.000 A 
ATOM      3  C   UNL     1      49.383   5.891  16.671  0.00  0.00    +0.000 A 
ATOM      4  C   UNL     1      49.031   6.670  15.562  0.00  0.00    +0.000 A 
ATOM      5  C   UNL     1      47.993   6.271  14.718  0.00  0.00    +0.000 A 
ATOM      6  C   UNL     1      47.311   5.082  14.993  0.00  0.00    +0.000 A 
ATOM      7  C   UNL     1      47.661   4.297  16.097  0.00  0.00    +0.000 A 
BRANCH   2   9
ATOM      8  N   UNL     1      48.034   3.285  18.811  0.00  0.00    +0.000 N 
ATOM      9  C   UNL     1      49.060   3.844  18.099  0.00  0.00    +0.000 C 
ATOM     10  O   UNL     1      50.227   3.615  18.387  0.00  0.00    +0.000 OA
ATOM     11  H   UNL     1      48.297   2.629  19.537  0.00  0.00    +0.000 HD
ATOM     12  H   UNL     1      47.090   3.240  18.457  0.00  0.00    +0.000 HD
ENDBRANCH   2   9
ENDBRANCH   1   5
BRANCH   1  13
ATOM     13  C   UNL     1      46.323   6.516  13.033  0.00  0.00    +0.000 C 
BRANCH  13  14
ATOM     14  C   UNL     1      46.422   6.622  11.517  0.00  0.00    +0.000 C 
BRANCH  14  15
ATOM     15  C   UNL     1      45.641   5.520  10.863  0.00  0.00    +0.000 A 
ATOM     16  N   UNL     1      45.753   5.397   9.525  0.00  0.00    +0.000 NA
ATOM     17  C   UNL     1      45.073   4.393   8.936  0.00  0.00    +0.000 A 
ATOM     18  C   UNL     1      44.302   3.500   9.629  0.00  0.00    +0.000 A 
ATOM     19  CA  UNL     1      44.263   3.702  10.992  0.00  0.00    +0.000 A 
ATOM     20  N   UNL     1      44.921   4.696  11.646  0.00  0.00    +0.000 NA
BRANCH  19  21
ATOM     21  C   UNL     1      43.456   2.778  11.838  0.00  0.00    +0.000 C 
ATOM     22  O   UNL     1      42.773   1.869  11.403  0.00  0.00    +0.000 OA
BRANCH  21  23
ATOM     23  OXT UNL     1      43.575   3.076  13.156  0.00  0.00    +0.000 OA
ATOM     24  HXT UNL     1      42.857   2.638  13.665  0.00  0.00    +0.000 HD
ENDBRANCH  21  23
ENDBRANCH  19  21
ENDBRANCH  14  15
ENDBRANCH  13  14
ENDBRANCH   1  13
TORSDOF 7
ENDMDL
MODEL 9
REMARK VINA RESULT:    -5.448      3.349      5.448
REMARK INTER + INTRA:          -8.235
REMARK INTER:                  -7.728
REMARK INTRA:                  -0.506
REMARK UNBOUND:                -0.717
REMARK  Name = 
REMARK  7 active torsions:
REMARK  status: ('A' for Active; 'I' for Inactive)
REMARK    1  A    between atoms: C_2  and  C_4
REMARK    2  A    between atoms: C_7  and  O_8
REMARK    3  A    between atoms: O_8  and  C_9
REMARK    4  A    between atoms: C_9  and  C_10
REMARK    5  A    between atoms: C_10  and  C_11
REMARK    6  A    between atoms: CA_15  and  C_16
REMARK    7  A    between atoms: C_16  and  OXT_18
REMARK                            x       y       z     vdW  Elec       q    Type
REMARK                         _______ _______ _______ _____ _____    ______ ____
ROOT
ATOM      1  O   UNL     1      47.357   7.192  13.154  0.00  0.00    +0.000 OA
ENDROOT
BRANCH   1   5
ATOM      2  C   UNL     1      44.970   4.170  11.539  0.00  0.00    +0.000 A 
ATOM      3  C   UNL     1      45.437   4.024  12.850  0.00  0.00    +0.000 A 
ATOM      4  C   UNL     1      46.237   5.018  13.428  0.00  0.00    +0.000 A 
ATOM      5  C   UNL     1      46.579   6.161  12.702  0.00  0.00    +0.000 A 
ATOM      6  C   UNL     1      46.115   6.299  11.391  0.00  0.00    +0.000 A 
ATOM      7  C   UNL     1      45.319   5.308  10.807  0.00  0.00    +0.000 A 
BRANCH   2   9
ATOM      8  N   UNL     1      43.403   2.313  11.710  0.00  0.00    +0.000 N 
ATOM      9  C   UNL     1      44.142   3.122  10.890  0.00  0.00    +0.000 C 
ATOM     10  O   UNL     1      44.094   3.001   9.672  0.00  0.00    +0.000 OA
ATOM     11  H   UNL     1      42.775   1.664  11.251  0.00  0.00    +0.000 HD
ATOM     12  H   UNL     1      43.219   2.543  12.675  0.00  0.00    +0.000 HD
ENDBRANCH   2   9
ENDBRANCH   1   5
BRANCH   1  13
ATOM     13  C   UNL     1      48.680   6.859  13.590  0.00  0.00    +0.000 C 
BRANCH  13  14
ATOM     14  C   UNL     1      49.015   7.697  14.816  0.00  0.00    +0.000 C 
BRANCH  14  15
ATOM     15  C   UNL     1      49.281   6.811  15.999  0.00  0.00    +0.000 A 
ATOM     16  N   UNL     1      50.505   6.251  16.084  0.00  0.00    +0.000 NA
ATOM     17  C   UNL     1      50.757   5.474  17.157  0.00  0.00    +0.000 A 
ATOM     18  C   UNL     1      49.845   5.248  18.151  0.00  0.00    +0.000 A 
ATOM     19  CA  UNL     1      48.630   5.875  17.978  0.00  0.00    +0.000 A 
ATOM     20  N   UNL     1      48.311   6.667  16.919  0.00  0.00    +0.000 NA
BRANCH  19  21
ATOM     21  C   UNL     1      47.569   5.698  19.010  0.00  0.00    +0.000 C 
ATOM     22  O   UNL     1      47.695   6.004  20.182  0.00  0.00    +0.000 OA
BRANCH  21  23
ATOM     23  OXT UNL     1      46.445   5.153  18.484  0.00  0.00    +0.000 OA
ATOM     24  HXT UNL     1      45.800   4.956  19.199  0.00  0.00    +0.000 HD
ENDBRANCH  21  23
ENDBRANCH  19  21
ENDBRANCH  14  15
ENDBRANCH  13  14
ENDBRANCH   1  13
TORSDOF 7
ENDMDL
