MODEL 1
REMARK VINA RESULT:    -7.111      0.000      0.000
REMARK INTER + INTRA:          -8.067
REMARK INTER:                  -7.943
REMARK INTRA:                  -0.124
REMARK UNBOUND:                -0.124
REMARK  Name = 
REMARK  2 active torsions:
REMARK  status: ('A' for Active; 'I' for Inactive)
REMARK    1  A    between atoms: N_9  and  C_10
REMARK    2  A    between atoms: C_10  and  C_11
REMARK                            x       y       z     vdW  Elec       q    Type
REMARK                         _______ _______ _______ _____ _____    ______ ____
ROOT
ATOM      1  N   UNL     1      46.181   5.174  13.693  0.00  0.00    +0.000 N 
ATOM      2  C   UNL     1      45.561   4.048  13.273  0.00  0.00    +0.000 C 
ATOM      3  O   UNL     1      46.245   3.050  13.071  0.00  0.00    +0.000 OA
ATOM      4  N   UNL     1      44.202   4.123  13.061  0.00  0.00    +0.000 N 
ATOM      5  C   UNL     1      43.394   5.381  13.067  0.00  0.00    +0.000 C 
ATOM      6  C   UNL     1      42.944   5.906  11.659  0.00  0.00    +0.000 C 
ATOM      7  C   UNL     1      43.305   4.894  10.613  0.00  0.00    +0.000 C 
ATOM      8  C   UNL     1      43.904   4.712   9.326  0.00  0.00    +0.000 C 
ATOM      9  N   UNL     1      44.177   3.419   9.670  0.00  0.00    +0.000 N 
ATOM     10  C   UNL     1      43.610   3.602  10.842  0.00  0.00    +0.000 C 
ATOM     11  C   UNL     1      43.644   3.014  12.260  0.00  0.00    +0.000 C 
ATOM     12  H   UNL     1      47.160   5.021  13.885  0.00  0.00    +0.000 HD
ATOM     13  H   UNL     1      45.712   5.728  14.392  0.00  0.00    +0.000 HD
ENDROOT
BRANCH   9  14
ATOM     14  C   UNL     1      45.502   2.807   9.562  0.00  0.00    +0.000 C 
BRANCH  14  15
ATOM     15  C   UNL     1      45.809   2.299   8.144  0.00  0.00    +0.000 C 
ATOM     16  C   UNL     1      46.393   0.876   8.179  0.00  0.00    +0.000 C 
ATOM     17  C   UNL     1      47.045   0.488   6.861  0.00  0.00    +0.000 C 
ATOM     18  O   UNL     1      48.019   1.455   6.477  0.00  0.00    +0.000 OA
ATOM     19  C   UNL     1      47.422   2.721   6.215  0.00  0.00    +0.000 C 
ATOM     20  C   UNL     1      46.784   3.284   7.474  0.00  0.00    +0.000 C 
ENDBRANCH  14  15
ENDBRANCH   9  14
TORSDOF 2
ENDMDL
MODEL 2
REMARK VINA RESULT:    -6.962      1.824      2.195
REMARK INTER + INTRA:          -7.900
REMARK INTER:                  -7.747
REMARK INTRA:                  -0.153
REMARK UNBOUND:                -0.124
REMARK  Name = 
REMARK  2 active torsions:
REMARK  status: ('A' for Active; 'I' for Inactive)
REMARK    1  A    between atoms: N_9  and  C_10
REMARK    2  A    between atoms: C_10  and  C_11
REMARK                            x       y       z     vdW  Elec       q    Type
REMARK                         _______ _______ _______ _____ _____    ______ ____
ROOT
ATOM      1  N   UNL     1      43.757   7.691  11.418  0.00  0.00    +0.000 N 
ATOM      2  C   UNL     1      44.860   6.909  11.387  0.00  0.00    +0.000 C 
ATOM      3  O   UNL     1      45.684   7.104  10.501  0.00  0.00    +0.000 OA
ATOM      4  N   UNL     1      44.951   5.916  12.338  0.00  0.00    +0.000 N 
ATOM      5  C   UNL     1      43.855   5.508  13.269  0.00  0.00    +0.000 C 
ATOM      6  C   UNL     1      43.140   4.155  12.924  0.00  0.00    +0.000 C 
ATOM      7  C   UNL     1      43.863   3.485  11.793  0.00  0.00    +0.000 C 
ATOM      8  C   UNL     1      43.697   2.824  10.534  0.00  0.00    +0.000 C 
ATOM      9  N   UNL     1      44.977   3.180  10.215  0.00  0.00    +0.000 N 
ATOM     10  C   UNL     1      45.112   3.770  11.381  0.00  0.00    +0.000 C 
ATOM     11  C   UNL     1      45.954   4.873  12.041  0.00  0.00    +0.000 C 
ATOM     12  H   UNL     1      43.794   8.430  10.732  0.00  0.00    +0.000 HD
ATOM     13  H   UNL     1      43.427   7.992  12.321  0.00  0.00    +0.000 HD
ENDROOT
BRANCH   9  14
ATOM     14  C   UNL     1      45.349   3.866   8.977  0.00  0.00    +0.000 C 
BRANCH  14  15
ATOM     15  C   UNL     1      45.736   2.892   7.851  0.00  0.00    +0.000 C 
ATOM     16  C   UNL     1      46.156   1.526   8.420  0.00  0.00    +0.000 C 
ATOM     17  C   UNL     1      46.888   0.674   7.394  0.00  0.00    +0.000 C 
ATOM     18  O   UNL     1      47.994   1.386   6.846  0.00  0.00    +0.000 OA
ATOM     19  C   UNL     1      47.567   2.531   6.114  0.00  0.00    +0.000 C 
ATOM     20  C   UNL     1      46.874   3.525   7.030  0.00  0.00    +0.000 C 
ENDBRANCH  14  15
ENDBRANCH   9  14
TORSDOF 2
ENDMDL
MODEL 3
REMARK VINA RESULT:    -6.298      1.602      2.296
REMARK INTER + INTRA:          -7.159
REMARK INTER:                  -7.560
REMARK INTRA:                   0.401
REMARK UNBOUND:                -0.124
REMARK  Name = 
REMARK  2 active torsions:
REMARK  status: ('A' for Active; 'I' for Inactive)
REMARK    1  A    between atoms: N_9  and  C_10
REMARK    2  A    between atoms: C_10  and  C_11
REMARK                            x       y       z     vdW  Elec       q    Type
REMARK                         _______ _______ _______ _____ _____    ______ ____
ROOT
ATOM      1  N   UNL     1      44.294   2.500  13.091  0.00  0.00    +0.000 N 
ATOM      2  C   UNL     1      43.531   3.116  12.160  0.00  0.00    +0.000 C 
ATOM      3  O   UNL     1      42.958   2.421  11.327  0.00  0.00    +0.000 OA
ATOM      4  N   UNL     1      43.491   4.493  12.192  0.00  0.00    +0.000 N 
ATOM      5  C   UNL     1      44.364   5.363  13.037  0.00  0.00    +0.000 C 
ATOM      6  C   UNL     1      45.521   6.105  12.281  0.00  0.00    +0.000 C 
ATOM      7  C   UNL     1      45.370   5.885  10.804  0.00  0.00    +0.000 C 
ATOM      8  C   UNL     1      46.062   5.530   9.603  0.00  0.00    +0.000 C 
ATOM      9  N   UNL     1      44.871   5.115   9.077  0.00  0.00    +0.000 N 
ATOM     10  C   UNL     1      44.253   5.460  10.184  0.00  0.00    +0.000 C 
ATOM     11  C   UNL     1      42.971   5.121  10.960  0.00  0.00    +0.000 C 
ATOM     12  H   UNL     1      44.221   1.495  13.040  0.00  0.00    +0.000 HD
ATOM     13  H   UNL     1      44.260   2.862  14.031  0.00  0.00    +0.000 HD
ENDROOT
BRANCH   9  14
ATOM     14  C   UNL     1      44.659   3.799   8.475  0.00  0.00    +0.000 C 
BRANCH  14  15
ATOM     15  C   UNL     1      45.975   3.070   8.158  0.00  0.00    +0.000 C 
ATOM     16  C   UNL     1      46.443   3.369   6.723  0.00  0.00    +0.000 C 
ATOM     17  C   UNL     1      47.514   2.397   6.252  0.00  0.00    +0.000 C 
ATOM     18  O   UNL     1      47.072   1.050   6.399  0.00  0.00    +0.000 OA
ATOM     19  C   UNL     1      46.869   0.714   7.768  0.00  0.00    +0.000 C 
ATOM     20  C   UNL     1      45.760   1.560   8.370  0.00  0.00    +0.000 C 
ENDBRANCH  14  15
ENDBRANCH   9  14
TORSDOF 2
ENDMDL
MODEL 4
REMARK VINA RESULT:    -6.008      3.775      6.052
REMARK INTER + INTRA:          -6.834
REMARK INTER:                  -6.533
REMARK INTRA:                  -0.301
REMARK UNBOUND:                -0.124
REMARK  Name = 
REMARK  2 active torsions:
REMARK  status: ('A' for Active; 'I' for Inactive)
REMARK    1  A    between atoms: N_9  and  C_10
REMARK    2  A    between atoms: C_10  and  C_11
REMARK                            x       y       z     vdW  Elec       q    Type
REMARK                         _______ _______ _______ _____ _____    ______ ____
ROOT
ATOM      1  N   UNL     1      45.375   2.965   8.984  0.00  0.00    +0.000 N 
ATOM      2  C   UNL     1      45.021   4.219   9.345  0.00  0.00    +0.000 C 
ATOM      3  O   UNL     1      45.628   5.160   8.843  0.00  0.00    +0.000 OA
ATOM      4  N   UNL     1      44.027   4.343  10.290  0.00  0.00    +0.000 N 
ATOM      5  C   UNL     1      43.448   3.219  11.087  0.00  0.00    +0.000 C 
ATOM      6  C   UNL     1      43.906   3.140  12.585  0.00  0.00    +0.000 C 
ATOM      7  C   UNL     1      44.721   4.354  12.919  0.00  0.00    +0.000 C 
ATOM      8  C   UNL     1      45.927   4.813  13.540  0.00  0.00    +0.000 C 
ATOM      9  N   UNL     1      45.866   5.931  12.758  0.00  0.00    +0.000 N 
ATOM     10  C   UNL     1      44.753   5.498  12.210  0.00  0.00    +0.000 C 
ATOM     11  C   UNL     1      43.940   5.677  10.919  0.00  0.00    +0.000 C 
ATOM     12  H   UNL     1      46.063   2.960   8.245  0.00  0.00    +0.000 HD
ATOM     13  H   UNL     1      44.635   2.294   8.854  0.00  0.00    +0.000 HD
ENDROOT
BRANCH   9  14
ATOM     14  C   UNL     1      46.974   6.411  11.932  0.00  0.00    +0.000 C 
BRANCH  14  15
ATOM     15  C   UNL     1      47.486   7.794  12.369  0.00  0.00    +0.000 C 
ATOM     16  C   UNL     1      46.419   8.878  12.140  0.00  0.00    +0.000 C 
ATOM     17  C   UNL     1      47.001  10.282  12.205  0.00  0.00    +0.000 C 
ATOM     18  O   UNL     1      48.098  10.415  11.306  0.00  0.00    +0.000 OA
ATOM     19  C   UNL     1      49.181   9.568  11.675  0.00  0.00    +0.000 C 
ATOM     20  C   UNL     1      48.774   8.107  11.586  0.00  0.00    +0.000 C 
ENDBRANCH  14  15
ENDBRANCH   9  14
TORSDOF 2
ENDMDL
MODEL 5
REMARK VINA RESULT:    -5.844      3.933      6.752
REMARK INTER + INTRA:          -6.651
REMARK INTER:                  -6.540
REMARK INTRA:                  -0.111
REMARK UNBOUND:                -0.124
REMARK  Name = 
REMARK  2 active torsions:
REMARK  status: ('A' for Active; 'I' for Inactive)
REMARK    1  A    between atoms: N_9  and  C_10
REMARK    2  A    between atoms: C_10  and  C_11
REMARK                            x       y       z     vdW  Elec       q    Type
REMARK                         _______ _______ _______ _____ _____    ______ ____
ROOT
ATOM      1  N   UNL     1      42.642   5.520  12.892  0.00  0.00    +0.000 N 
ATOM      2  C   UNL     1      43.516   4.492  12.992  0.00  0.00    +0.000 C 
ATOM      3  O   UNL     1      43.379   3.704  13.922  0.00  0.00    +0.000 OA
ATOM      4  N   UNL     1      44.526   4.435  12.058  0.00  0.00    +0.000 N 
ATOM      5  C   UNL     1      44.853   5.509  11.071  0.00  0.00    +0.000 C 
ATOM      6  C   UNL     1      46.134   6.357  11.388  0.00  0.00    +0.000 C 
ATOM      7  C   UNL     1      46.846   5.759  12.565  0.00  0.00    +0.000 C 
ATOM      8  C   UNL     1      47.472   6.051  13.819  0.00  0.00    +0.000 C 
ATOM      9  N   UNL     1      47.223   4.765  14.206  0.00  0.00    +0.000 N 
ATOM     10  C   UNL     1      46.664   4.514  13.043  0.00  0.00    +0.000 C 
ATOM     11  C   UNL     1      45.648   3.545  12.421  0.00  0.00    +0.000 C 
ATOM     12  H   UNL     1      41.899   5.457  13.571  0.00  0.00    +0.000 HD
ATOM     13  H   UNL     1      42.327   5.772  11.968  0.00  0.00    +0.000 HD
ENDROOT
BRANCH   9  14
ATOM     14  C   UNL     1      46.554   4.404  15.456  0.00  0.00    +0.000 C 
BRANCH  14  15
ATOM     15  C   UNL     1      47.542   4.014  16.568  0.00  0.00    +0.000 C 
ATOM     16  C   UNL     1      48.565   5.135  16.820  0.00  0.00    +0.000 C 
ATOM     17  C   UNL     1      49.760   4.653  17.629  0.00  0.00    +0.000 C 
ATOM     18  O   UNL     1      50.357   3.514  17.015  0.00  0.00    +0.000 OA
ATOM     19  C   UNL     1      49.469   2.401  17.003  0.00  0.00    +0.000 C 
ATOM     20  C   UNL     1      48.241   2.704  16.161  0.00  0.00    +0.000 C 
ENDBRANCH  14  15
ENDBRANCH   9  14
TORSDOF 2
ENDMDL
MODEL 6
REMARK VINA RESULT:    -5.841      3.753      5.706
REMARK INTER + INTRA:          -6.648
REMARK INTER:                  -6.390
REMARK INTRA:                  -0.258
REMARK UNBOUND:                -0.124
REMARK  Name = 
REMARK  2 active torsions:
REMARK  status: ('A' for Active; 'I' for Inactive)
REMARK    1  A    between atoms: N_9  and  C_10
REMARK    2  A    between atoms: C_10  and  C_11
REMARK                            x       y       z     vdW  Elec       q    Type
REMARK                         _______ _______ _______ _____ _____    ______ ____
ROOT
ATOM      1  N   UNL     1      43.551   3.232  13.251  0.00  0.00    +0.000 N 
ATOM      2  C   UNL     1      44.549   3.485  12.374  0.00  0.00    +0.000 C 
ATOM      3  O   UNL     1      45.661   3.026  12.612  0.00  0.00    +0.000 OA
ATOM      4  N   UNL     1      44.247   4.285  11.294  0.00  0.00    +0.000 N 
ATOM      5  C   UNL     1      42.974   5.048  11.113  0.00  0.00    +0.000 C 
ATOM      6  C   UNL     1      43.070   6.596  11.352  0.00  0.00    +0.000 C 
ATOM      7  C   UNL     1      44.506   6.979  11.552  0.00  0.00    +0.000 C 
ATOM      8  C   UNL     1      45.407   7.732  12.371  0.00  0.00    +0.000 C 
ATOM      9  N   UNL     1      46.414   6.899  11.973  0.00  0.00    +0.000 N 
ATOM     10  C   UNL     1      45.573   6.229  11.217  0.00  0.00    +0.000 C 
ATOM     11  C   UNL     1      45.423   4.835  10.589  0.00  0.00    +0.000 C 
ATOM     12  H   UNL     1      43.835   2.591  13.977  0.00  0.00    +0.000 HD
ATOM     13  H   UNL     1      42.639   3.035  12.870  0.00  0.00    +0.000 HD
ENDROOT
BRANCH   9  14
ATOM     14  C   UNL     1      47.313   6.206  12.896  0.00  0.00    +0.000 C 
BRANCH  14  15
ATOM     15  C   UNL     1      48.772   6.677  12.772  0.00  0.00    +0.000 C 
ATOM     16  C   UNL     1      49.266   7.301  14.089  0.00  0.00    +0.000 C 
ATOM     17  C   UNL     1      50.546   8.101  13.903  0.00  0.00    +0.000 C 
ATOM     18  O   UNL     1      50.386   9.077  12.878  0.00  0.00    +0.000 OA
ATOM     19  C   UNL     1      50.163   8.470  11.609  0.00  0.00    +0.000 C 
ATOM     20  C   UNL     1      48.862   7.685  11.612  0.00  0.00    +0.000 C 
ENDBRANCH  14  15
ENDBRANCH   9  14
TORSDOF 2
ENDMDL
MODEL 7
REMARK VINA RESULT:    -5.562      3.234      4.989
REMARK INTER + INTRA:          -6.337
REMARK INTER:                  -6.035
REMARK INTRA:                  -0.301
REMARK UNBOUND:                -0.124
REMARK  Name = 
REMARK  2 active torsions:
REMARK  status: ('A' for Active; 'I' for Inactive)
REMARK    1  A    between atoms: N_9  and  C_10
REMARK    2  A    between atoms: C_10  and  C_11
REMARK                            x       y       z     vdW  Elec       q    Type
REMARK                         _______ _______ _______ _____ _____    ______ ____
ROOT
ATOM      1  N   UNL     1      47.308   9.212  15.031  0.00  0.00    +0.000 N 
ATOM      2  C   UNL     1      47.611   8.532  13.901  0.00  0.00    +0.000 C 
ATOM      3  O   UNL     1      47.092   8.894  12.850  0.00  0.00    +0.000 OA
ATOM      4  N   UNL     1      48.452   7.449  14.027  0.00  0.00    +0.000 N 
ATOM      5  C   UNL     1      48.898   6.848  15.321  0.00  0.00    +0.000 C 
ATOM      6  C   UNL     1      48.219   5.489  15.711  0.00  0.00    +0.000 C 
ATOM      7  C   UNL     1      47.369   5.014  14.569  0.00  0.00    +0.000 C 
ATOM      8  C   UNL     1      46.086   4.489  14.212  0.00  0.00    +0.000 C 
ATOM      9  N   UNL     1      46.271   4.983  12.952  0.00  0.00    +0.000 N 
ATOM     10  C   UNL     1      47.451   5.446  13.296  0.00  0.00    +0.000 C 
ATOM     11  C   UNL     1      48.450   6.532  12.869  0.00  0.00    +0.000 C 
ATOM     12  H   UNL     1      46.740  10.025  14.846  0.00  0.00    +0.000 HD
ATOM     13  H   UNL     1      48.056   9.380  15.685  0.00  0.00    +0.000 HD
ENDROOT
BRANCH   9  14
ATOM     14  C   UNL     1      45.302   5.833  12.259  0.00  0.00    +0.000 C 
BRANCH  14  15
ATOM     15  C   UNL     1      44.731   5.174  10.992  0.00  0.00    +0.000 C 
ATOM     16  C   UNL     1      44.456   3.678  11.221  0.00  0.00    +0.000 C 
ATOM     17  C   UNL     1      44.250   2.924   9.916  0.00  0.00    +0.000 C 
ATOM     18  O   UNL     1      45.348   3.134   9.033  0.00  0.00    +0.000 OA
ATOM     19  C   UNL     1      45.446   4.499   8.639  0.00  0.00    +0.000 C 
ATOM     20  C   UNL     1      45.731   5.386   9.840  0.00  0.00    +0.000 C 
ENDBRANCH  14  15
ENDBRANCH   9  14
TORSDOF 2
ENDMDL
MODEL 8
REMARK VINA RESULT:    -5.451      4.126      6.536
REMARK INTER + INTRA:          -6.212
REMARK INTER:                  -5.954
REMARK INTRA:                  -0.257
REMARK UNBOUND:                -0.124
REMARK  Name = 
REMARK  2 active torsions:
REMARK  status: ('A' for Active; 'I' for Inactive)
REMARK    1  A    between atoms: N_9  and  C_10
REMARK    2  A    between atoms: C_10  and  C_11
REMARK                            x       y       z     vdW  Elec       q    Type
REMARK                         _______ _______ _______ _____ _____    ______ ____
ROOT
ATOM      1  N   UNL     1      50.649   1.890  16.705  0.00  0.00    +0.000 N 
ATOM      2  C   UNL     1      49.315   2.103  16.755  0.00  0.00    +0.000 C 
ATOM      3  O   UNL     1      48.595   1.452  16.005  0.00  0.00    +0.000 OA
ATOM      4  N   UNL     1      48.867   3.077  17.620  0.00  0.00    +0.000 N 
ATOM      5  C   UNL     1      49.737   4.043  18.358  0.00  0.00    +0.000 C 
ATOM      6  C   UNL     1      49.742   5.512  17.807  0.00  0.00    +0.000 C 
ATOM      7  C   UNL     1      48.707   5.641  16.729  0.00  0.00    +0.000 C 
ATOM      8  C   UNL     1      48.457   6.131  15.408  0.00  0.00    +0.000 C 
ATOM      9  N   UNL     1      47.450   5.215  15.293  0.00  0.00    +0.000 N 
ATOM     10  C   UNL     1      47.687   4.789  16.513  0.00  0.00    +0.000 C 
ATOM     11  C   UNL     1      47.483   3.531  17.371  0.00  0.00    +0.000 C 
ATOM     12  H   UNL     1      50.890   1.122  16.096  0.00  0.00    +0.000 HD
ATOM     13  H   UNL     1      51.151   1.888  17.579  0.00  0.00    +0.000 HD
ENDROOT
BRANCH   9  14
ATOM     14  C   UNL     1      47.324   4.275  14.179  0.00  0.00    +0.000 C 
BRANCH  14  15
ATOM     15  C   UNL     1      46.100   4.563  13.293  0.00  0.00    +0.000 C 
ATOM     16  C   UNL     1      45.654   3.299  12.537  0.00  0.00    +0.000 C 
ATOM     17  C   UNL     1      44.704   3.618  11.392  0.00  0.00    +0.000 C 
ATOM     18  O   UNL     1      45.276   4.588  10.519  0.00  0.00    +0.000 OA
ATOM     19  C   UNL     1      45.465   5.837  11.178  0.00  0.00    +0.000 C 
ATOM     20  C   UNL     1      46.461   5.697  12.317  0.00  0.00    +0.000 C 
ENDBRANCH  14  15
ENDBRANCH   9  14
TORSDOF 2
ENDMDL
MODEL 9
REMARK VINA RESULT:    -5.160      3.153      5.927
REMARK INTER + INTRA:          -5.887
REMARK INTER:                  -6.248
REMARK INTRA:                   0.361
REMARK UNBOUND:                -0.124
REMARK  Name = 
REMARK  2 active torsions:
REMARK  status: ('A' for Active; 'I' for Inactive)
REMARK    1  A    between atoms: N_9  and  C_10
REMARK    2  A    between atoms: C_10  and  C_11
REMARK                            x       y       z     vdW  Elec       q    Type
REMARK                         _______ _______ _______ _____ _____    ______ ____
ROOT
ATOM      1  N   UNL     1      43.729   2.995  12.875  0.00  0.00    +0.000 N 
ATOM      2  C   UNL     1      44.597   3.393  11.918  0.00  0.00    +0.000 C 
ATOM      3  O   UNL     1      45.725   2.911  11.922  0.00  0.00    +0.000 OA
ATOM      4  N   UNL     1      44.158   4.351  11.031  0.00  0.00    +0.000 N 
ATOM      5  C   UNL     1      42.883   5.121  11.154  0.00  0.00    +0.000 C 
ATOM      6  C   UNL     1      43.032   6.613  11.618  0.00  0.00    +0.000 C 
ATOM      7  C   UNL     1      44.487   6.972  11.673  0.00  0.00    +0.000 C 
ATOM      8  C   UNL     1      45.504   7.594  12.466  0.00  0.00    +0.000 C 
ATOM      9  N   UNL     1      46.434   6.844  11.804  0.00  0.00    +0.000 N 
ATOM     10  C   UNL     1      45.487   6.295  11.077  0.00  0.00    +0.000 C 
ATOM     11  C   UNL     1      45.231   5.016  10.265  0.00  0.00    +0.000 C 
ATOM     12  H   UNL     1      44.103   2.250  13.443  0.00  0.00    +0.000 HD
ATOM     13  H   UNL     1      42.769   2.853  12.600  0.00  0.00    +0.000 HD
ENDROOT
BRANCH   9  14
ATOM     14  C   UNL     1      47.444   6.021  12.470  0.00  0.00    +0.000 C 
BRANCH  14  15
ATOM     15  C   UNL     1      47.310   6.040  14.002  0.00  0.00    +0.000 C 
ATOM     16  C   UNL     1      48.552   6.667  14.659  0.00  0.00    +0.000 C 
ATOM     17  C   UNL     1      48.627   6.371  16.150  0.00  0.00    +0.000 C 
ATOM     18  O   UNL     1      48.547   4.969  16.390  0.00  0.00    +0.000 OA
ATOM     19  C   UNL     1      47.286   4.442  15.989  0.00  0.00    +0.000 C 
ATOM     20  C   UNL     1      47.092   4.596  14.490  0.00  0.00    +0.000 C 
ENDBRANCH  14  15
ENDBRANCH   9  14
TORSDOF 2
ENDMDL
