MODEL 1
REMARK VINA RESULT:    -7.661      0.000      0.000
REMARK INTER + INTRA:          -9.387
REMARK INTER:                  -9.229
REMARK INTRA:                  -0.158
REMARK UNBOUND:                -0.158
REMARK  Name = 
REMARK  4 active torsions:
REMARK  status: ('A' for Active; 'I' for Inactive)
REMARK    1  A    between atoms: N_1  and  C_2
REMARK    2  A    between atoms: C_2  and  C_3
REMARK    3  A    between atoms: C_7  and  C_8
REMARK    4  A    between atoms: C_8  and  N_9
REMARK                            x       y       z     vdW  Elec       q    Type
REMARK                         _______ _______ _______ _____ _____    ______ ____
ROOT
ATOM      1  C   UNL     1      45.316   4.837  12.930  0.00  0.00    +0.000 A 
ATOM      2  C   UNL     1      43.985   5.031  13.280  0.00  0.00    +0.000 A 
ATOM      3  C   UNL     1      43.043   5.204  12.273  0.00  0.00    +0.000 A 
ATOM      4  C   UNL     1      43.451   5.185  10.940  0.00  0.00    +0.000 A 
ATOM      5  C   UNL     1      44.802   4.983  10.661  0.00  0.00    +0.000 A 
ATOM      6  N   UNL     1      45.723   4.788  11.634  0.00  0.00    +0.000 NA
ENDROOT
BRANCH   1   7
ATOM      7  C   UNL     1      46.373   4.625  13.988  0.00  0.00    +0.000 C 
BRANCH   7   8
ATOM      8  N   UNL     1      47.054   3.336  13.846  0.00  0.00    +0.000 NA
ATOM      9  H   UNL     1      46.619   2.822  13.081  0.00  0.00    +0.000 HD
ATOM     10  H   UNL     1      46.863   2.795  14.690  0.00  0.00    +0.000 HD
ENDBRANCH   7   8
ENDBRANCH   1   7
BRANCH   5  11
ATOM     11  C   UNL     1      45.284   4.889   9.240  0.00  0.00    +0.000 C 
BRANCH  11  12
ATOM     12  N   UNL     1      45.197   3.550   8.654  0.00  0.00    +0.000 N 
ATOM     13  C   UNL     1      44.397   2.565   9.186  0.00  0.00    +0.000 A 
ATOM     14  C   UNL     1      44.993   1.354   8.916  0.00  0.00    +0.000 A 
ATOM     15  C   UNL     1      46.102   1.597   8.063  0.00  0.00    +0.000 A 
ATOM     16  C   UNL     1      47.077   0.781   7.474  0.00  0.00    +0.000 A 
ATOM     17  N   UNL     1      47.981   1.296   6.606  0.00  0.00    +0.000 NA
ATOM     18  C   UNL     1      47.929   2.617   6.324  0.00  0.00    +0.000 A 
ATOM     19  C   UNL     1      47.052   3.519   6.910  0.00  0.00    +0.000 A 
ATOM     20  C   UNL     1      46.138   2.977   7.816  0.00  0.00    +0.000 A 
ENDBRANCH  11  12
ENDBRANCH   5  11
TORSDOF 4
ENDMDL
MODEL 2
REMARK VINA RESULT:    -7.558      1.361      5.772
REMARK INTER + INTRA:          -9.262
REMARK INTER:                  -8.936
REMARK INTRA:                  -0.326
REMARK UNBOUND:                -0.158
REMARK  Name = 
REMARK  4 active torsions:
REMARK  status: ('A' for Active; 'I' for Inactive)
REMARK    1  A    between atoms: N_1  and  C_2
REMARK    2  A    between atoms: C_2  and  C_3
REMARK    3  A    between atoms: C_7  and  C_8
REMARK    4  A    between atoms: C_8  and  N_9
REMARK                            x       y       z     vdW  Elec       q    Type
REMARK                         _______ _______ _______ _____ _____    ______ ____
ROOT
ATOM      1  C   UNL     1      46.502   2.048   7.749  0.00  0.00    +0.000 A 
ATOM      2  C   UNL     1      46.709   3.333   7.260  0.00  0.00    +0.000 A 
ATOM      3  C   UNL     1      45.999   4.387   7.821  0.00  0.00    +0.000 A 
ATOM      4  C   UNL     1      45.094   4.136   8.850  0.00  0.00    +0.000 A 
ATOM      5  C   UNL     1      44.937   2.823   9.292  0.00  0.00    +0.000 A 
ATOM      6  N   UNL     1      45.644   1.792   8.771  0.00  0.00    +0.000 NA
ENDROOT
BRANCH   1   7
ATOM      7  C   UNL     1      47.266   0.873   7.186  0.00  0.00    +0.000 C 
BRANCH   7   8
ATOM      8  N   UNL     1      46.813  -0.405   7.741  0.00  0.00    +0.000 NA
ATOM      9  H   UNL     1      47.152  -1.157   7.143  0.00  0.00    +0.000 HD
ATOM     10  H   UNL     1      45.795  -0.426   7.665  0.00  0.00    +0.000 HD
ENDBRANCH   7   8
ENDBRANCH   1   7
BRANCH   5  11
ATOM     11  C   UNL     1      44.023   2.507  10.443  0.00  0.00    +0.000 C 
BRANCH  11  12
ATOM     12  N   UNL     1      43.925   3.563  11.452  0.00  0.00    +0.000 N 
ATOM     13  C   UNL     1      42.986   4.567  11.377  0.00  0.00    +0.000 A 
ATOM     14  C   UNL     1      43.526   5.686  11.971  0.00  0.00    +0.000 A 
ATOM     15  C   UNL     1      44.762   5.310  12.562  0.00  0.00    +0.000 A 
ATOM     16  C   UNL     1      45.750   5.998  13.278  0.00  0.00    +0.000 A 
ATOM     17  N   UNL     1      46.804   5.339  13.815  0.00  0.00    +0.000 NA
ATOM     18  C   UNL     1      46.890   4.001  13.638  0.00  0.00    +0.000 A 
ATOM     19  C   UNL     1      46.005   3.242  12.884  0.00  0.00    +0.000 A 
ATOM     20  C   UNL     1      44.932   3.939  12.324  0.00  0.00    +0.000 A 
ENDBRANCH  11  12
ENDBRANCH   5  11
TORSDOF 4
ENDMDL
MODEL 3
REMARK VINA RESULT:    -7.036      1.717      3.025
REMARK INTER + INTRA:          -8.634
REMARK INTER:                  -8.174
REMARK INTRA:                  -0.460
REMARK UNBOUND:                -0.158
REMARK  Name = 
REMARK  4 active torsions:
REMARK  status: ('A' for Active; 'I' for Inactive)
REMARK    1  A    between atoms: N_1  and  C_2
REMARK    2  A    between atoms: C_2  and  C_3
REMARK    3  A    between atoms: C_7  and  C_8
REMARK    4  A    between atoms: C_8  and  N_9
REMARK                            x       y       z     vdW  Elec       q    Type
REMARK                         _______ _______ _______ _____ _____    ______ ____
ROOT
ATOM      1  C   UNL     1      47.052   5.399  13.889  0.00  0.00    +0.000 A 
ATOM      2  C   UNL     1      48.147   6.159  13.494  0.00  0.00    +0.000 A 
ATOM      3  C   UNL     1      48.026   6.981  12.380  0.00  0.00    +0.000 A 
ATOM      4  C   UNL     1      46.821   7.022  11.683  0.00  0.00    +0.000 A 
ATOM      5  C   UNL     1      45.763   6.235  12.136  0.00  0.00    +0.000 A 
ATOM      6  N   UNL     1      45.861   5.450  13.236  0.00  0.00    +0.000 NA
ENDROOT
BRANCH   1   7
ATOM      7  C   UNL     1      47.128   4.506  15.105  0.00  0.00    +0.000 C 
BRANCH   7   8
ATOM      8  N   UNL     1      47.505   3.131  14.764  0.00  0.00    +0.000 NA
ATOM      9  H   UNL     1      48.522   3.062  14.774  0.00  0.00    +0.000 HD
ATOM     10  H   UNL     1      47.223   2.968  13.797  0.00  0.00    +0.000 HD
ENDBRANCH   7   8
ENDBRANCH   1   7
BRANCH   5  11
ATOM     11  C   UNL     1      44.422   6.291  11.460  0.00  0.00    +0.000 C 
BRANCH  11  12
ATOM     12  N   UNL     1      43.966   5.016  10.902  0.00  0.00    +0.000 N 
ATOM     13  C   UNL     1      43.164   4.149  11.608  0.00  0.00    +0.000 A 
ATOM     14  C   UNL     1      43.461   2.872  11.187  0.00  0.00    +0.000 A 
ATOM     15  C   UNL     1      44.351   2.974  10.085  0.00  0.00    +0.000 A 
ATOM     16  C   UNL     1      44.998   2.041   9.263  0.00  0.00    +0.000 A 
ATOM     17  N   UNL     1      45.735   2.446   8.202  0.00  0.00    +0.000 NA
ATOM     18  C   UNL     1      45.843   3.771   7.954  0.00  0.00    +0.000 A 
ATOM     19  C   UNL     1      45.304   4.772   8.749  0.00  0.00    +0.000 A 
ATOM     20  C   UNL     1      44.560   4.341   9.850  0.00  0.00    +0.000 A 
ENDBRANCH  11  12
ENDBRANCH   5  11
TORSDOF 4
ENDMDL
MODEL 4
REMARK VINA RESULT:    -7.024      1.650      6.060
REMARK INTER + INTRA:          -8.620
REMARK INTER:                  -8.218
REMARK INTRA:                  -0.402
REMARK UNBOUND:                -0.158
REMARK  Name = 
REMARK  4 active torsions:
REMARK  status: ('A' for Active; 'I' for Inactive)
REMARK    1  A    between atoms: N_1  and  C_2
REMARK    2  A    between atoms: C_2  and  C_3
REMARK    3  A    between atoms: C_7  and  C_8
REMARK    4  A    between atoms: C_8  and  N_9
REMARK                            x       y       z     vdW  Elec       q    Type
REMARK                         _______ _______ _______ _____ _____    ______ ____
ROOT
ATOM      1  C   UNL     1      46.561   2.708   6.729  0.00  0.00    +0.000 A 
ATOM      2  C   UNL     1      46.732   1.445   7.283  0.00  0.00    +0.000 A 
ATOM      3  C   UNL     1      46.042   1.121   8.445  0.00  0.00    +0.000 A 
ATOM      4  C   UNL     1      45.202   2.066   9.031  0.00  0.00    +0.000 A 
ATOM      5  C   UNL     1      45.077   3.314   8.421  0.00  0.00    +0.000 A 
ATOM      6  N   UNL     1      45.725   3.630   7.275  0.00  0.00    +0.000 NA
ENDROOT
BRANCH   1   7
ATOM      7  C   UNL     1      47.274   3.099   5.457  0.00  0.00    +0.000 C 
BRANCH   7   8
ATOM      8  N   UNL     1      48.390   2.203   5.144  0.00  0.00    +0.000 NA
ATOM      9  H   UNL     1      49.031   2.688   4.519  0.00  0.00    +0.000 HD
ATOM     10  H   UNL     1      48.013   1.422   4.606  0.00  0.00    +0.000 HD
ENDBRANCH   7   8
ENDBRANCH   1   7
BRANCH   5  11
ATOM     11  C   UNL     1      44.135   4.345   8.976  0.00  0.00    +0.000 C 
BRANCH  11  12
ATOM     12  N   UNL     1      44.196   4.507  10.431  0.00  0.00    +0.000 N 
ATOM     13  C   UNL     1      43.172   4.105  11.258  0.00  0.00    +0.000 A 
ATOM     14  C   UNL     1      43.172   4.939  12.354  0.00  0.00    +0.000 A 
ATOM     15  C   UNL     1      44.322   5.768  12.268  0.00  0.00    +0.000 A 
ATOM     16  C   UNL     1      44.844   6.797  13.063  0.00  0.00    +0.000 A 
ATOM     17  N   UNL     1      46.043   7.358  12.773  0.00  0.00    +0.000 NA
ATOM     18  C   UNL     1      46.724   6.910  11.694  0.00  0.00    +0.000 A 
ATOM     19  C   UNL     1      46.259   5.950  10.805  0.00  0.00    +0.000 A 
ATOM     20  C   UNL     1      45.015   5.394  11.108  0.00  0.00    +0.000 A 
ENDBRANCH  11  12
ENDBRANCH   5  11
TORSDOF 4
ENDMDL
MODEL 5
REMARK VINA RESULT:    -6.984      1.255      1.695
REMARK INTER + INTRA:          -8.571
REMARK INTER:                  -9.131
REMARK INTRA:                   0.560
REMARK UNBOUND:                -0.158
REMARK  Name = 
REMARK  4 active torsions:
REMARK  status: ('A' for Active; 'I' for Inactive)
REMARK    1  A    between atoms: N_1  and  C_2
REMARK    2  A    between atoms: C_2  and  C_3
REMARK    3  A    between atoms: C_7  and  C_8
REMARK    4  A    between atoms: C_8  and  N_9
REMARK                            x       y       z     vdW  Elec       q    Type
REMARK                         _______ _______ _______ _____ _____    ______ ____
ROOT
ATOM      1  C   UNL     1      44.472   4.792  12.507  0.00  0.00    +0.000 A 
ATOM      2  C   UNL     1      45.240   5.695  13.232  0.00  0.00    +0.000 A 
ATOM      3  C   UNL     1      46.185   6.462  12.562  0.00  0.00    +0.000 A 
ATOM      4  C   UNL     1      46.348   6.307  11.187  0.00  0.00    +0.000 A 
ATOM      5  C   UNL     1      45.543   5.383  10.523  0.00  0.00    +0.000 A 
ATOM      6  N   UNL     1      44.600   4.649  11.161  0.00  0.00    +0.000 NA
ENDROOT
BRANCH   1   7
ATOM      7  C   UNL     1      43.418   3.950  13.187  0.00  0.00    +0.000 C 
BRANCH   7   8
ATOM      8  N   UNL     1      43.496   2.539  12.800  0.00  0.00    +0.000 NA
ATOM      9  H   UNL     1      42.555   2.147  12.811  0.00  0.00    +0.000 HD
ATOM     10  H   UNL     1      44.009   2.050  13.534  0.00  0.00    +0.000 HD
ENDBRANCH   7   8
ENDBRANCH   1   7
BRANCH   5  11
ATOM     11  C   UNL     1      45.632   5.223   9.031  0.00  0.00    +0.000 C 
BRANCH  11  12
ATOM     12  N   UNL     1      45.379   3.864   8.547  0.00  0.00    +0.000 N 
ATOM     13  C   UNL     1      44.449   3.036   9.134  0.00  0.00    +0.000 A 
ATOM     14  C   UNL     1      44.886   1.740   8.972  0.00  0.00    +0.000 A 
ATOM     15  C   UNL     1      46.028   1.770   8.128  0.00  0.00    +0.000 A 
ATOM     16  C   UNL     1      46.896   0.791   7.625  0.00  0.00    +0.000 A 
ATOM     17  N   UNL     1      47.870   1.115   6.742  0.00  0.00    +0.000 NA
ATOM     18  C   UNL     1      47.995   2.405   6.358  0.00  0.00    +0.000 A 
ATOM     19  C   UNL     1      47.236   3.456   6.854  0.00  0.00    +0.000 A 
ATOM     20  C   UNL     1      46.247   3.110   7.777  0.00  0.00    +0.000 A 
ENDBRANCH  11  12
ENDBRANCH   5  11
TORSDOF 4
ENDMDL
MODEL 6
REMARK VINA RESULT:    -6.683      1.470      5.747
REMARK INTER + INTRA:          -8.209
REMARK INTER:                  -7.779
REMARK INTRA:                  -0.430
REMARK UNBOUND:                -0.158
REMARK  Name = 
REMARK  4 active torsions:
REMARK  status: ('A' for Active; 'I' for Inactive)
REMARK    1  A    between atoms: N_1  and  C_2
REMARK    2  A    between atoms: C_2  and  C_3
REMARK    3  A    between atoms: C_7  and  C_8
REMARK    4  A    between atoms: C_8  and  N_9
REMARK                            x       y       z     vdW  Elec       q    Type
REMARK                         _______ _______ _______ _____ _____    ______ ____
ROOT
ATOM      1  C   UNL     1      45.857   3.614   8.107  0.00  0.00    +0.000 A 
ATOM      2  C   UNL     1      45.696   2.237   8.210  0.00  0.00    +0.000 A 
ATOM      3  C   UNL     1      44.821   1.733   9.165  0.00  0.00    +0.000 A 
ATOM      4  C   UNL     1      44.133   2.612   9.999  0.00  0.00    +0.000 A 
ATOM      5  C   UNL     1      44.342   3.982   9.839  0.00  0.00    +0.000 A 
ATOM      6  N   UNL     1      45.172   4.484   8.894  0.00  0.00    +0.000 NA
ENDROOT
BRANCH   1   7
ATOM      7  C   UNL     1      46.781   4.210   7.071  0.00  0.00    +0.000 C 
BRANCH   7   8
ATOM      8  N   UNL     1      47.208   3.226   6.073  0.00  0.00    +0.000 NA
ATOM      9  H   UNL     1      48.152   2.917   6.304  0.00  0.00    +0.000 HD
ATOM     10  H   UNL     1      47.286   3.711   5.179  0.00  0.00    +0.000 HD
ENDBRANCH   7   8
ENDBRANCH   1   7
BRANCH   5  11
ATOM     11  C   UNL     1      43.576   4.975  10.668  0.00  0.00    +0.000 C 
BRANCH  11  12
ATOM     12  N   UNL     1      44.402   5.786  11.564  0.00  0.00    +0.000 N 
ATOM     13  C   UNL     1      44.573   7.140  11.383  0.00  0.00    +0.000 A 
ATOM     14  C   UNL     1      45.821   7.469  11.863  0.00  0.00    +0.000 A 
ATOM     15  C   UNL     1      46.360   6.318  12.495  0.00  0.00    +0.000 A 
ATOM     16  C   UNL     1      47.571   6.038  13.143  0.00  0.00    +0.000 A 
ATOM     17  N   UNL     1      47.774   4.843  13.748  0.00  0.00    +0.000 NA
ATOM     18  C   UNL     1      46.786   3.921  13.709  0.00  0.00    +0.000 A 
ATOM     19  C   UNL     1      45.584   4.074  13.032  0.00  0.00    +0.000 A 
ATOM     20  C   UNL     1      45.397   5.304  12.398  0.00  0.00    +0.000 A 
ENDBRANCH  11  12
ENDBRANCH   5  11
TORSDOF 4
ENDMDL
MODEL 7
REMARK VINA RESULT:    -5.913      2.909      4.551
REMARK INTER + INTRA:          -7.282
REMARK INTER:                  -6.980
REMARK INTRA:                  -0.302
REMARK UNBOUND:                -0.158
REMARK  Name = 
REMARK  4 active torsions:
REMARK  status: ('A' for Active; 'I' for Inactive)
REMARK    1  A    between atoms: N_1  and  C_2
REMARK    2  A    between atoms: C_2  and  C_3
REMARK    3  A    between atoms: C_7  and  C_8
REMARK    4  A    between atoms: C_8  and  N_9
REMARK                            x       y       z     vdW  Elec       q    Type
REMARK                         _______ _______ _______ _____ _____    ______ ____
ROOT
ATOM      1  C   UNL     1      45.173   9.054  11.892  0.00  0.00    +0.000 A 
ATOM      2  C   UNL     1      46.430   9.648  11.856  0.00  0.00    +0.000 A 
ATOM      3  C   UNL     1      47.535   8.904  12.250  0.00  0.00    +0.000 A 
ATOM      4  C   UNL     1      47.362   7.589  12.677  0.00  0.00    +0.000 A 
ATOM      5  C   UNL     1      46.073   7.057  12.686  0.00  0.00    +0.000 A 
ATOM      6  N   UNL     1      44.993   7.764  12.279  0.00  0.00    +0.000 NA
ENDROOT
BRANCH   1   7
ATOM      7  C   UNL     1      43.944   9.816  11.454  0.00  0.00    +0.000 C 
BRANCH   7   8
ATOM      8  N   UNL     1      42.980   8.964  10.754  0.00  0.00    +0.000 NA
ATOM      9  H   UNL     1      42.882   8.091  11.272  0.00  0.00    +0.000 HD
ATOM     10  H   UNL     1      43.393   8.710   9.856  0.00  0.00    +0.000 HD
ENDBRANCH   7   8
ENDBRANCH   1   7
BRANCH   5  11
ATOM     11  C   UNL     1      45.840   5.624  13.075  0.00  0.00    +0.000 C 
BRANCH  11  12
ATOM     12  N   UNL     1      44.827   4.932  12.275  0.00  0.00    +0.000 N 
ATOM     13  C   UNL     1      43.835   4.167  12.846  0.00  0.00    +0.000 A 
ATOM     14  C   UNL     1      43.516   3.167  11.954  0.00  0.00    +0.000 A 
ATOM     15  C   UNL     1      44.218   3.423  10.746  0.00  0.00    +0.000 A 
ATOM     16  C   UNL     1      44.305   2.767   9.511  0.00  0.00    +0.000 A 
ATOM     17  N   UNL     1      45.000   3.312   8.484  0.00  0.00    +0.000 NA
ATOM     18  C   UNL     1      45.617   4.500   8.676  0.00  0.00    +0.000 A 
ATOM     19  C   UNL     1      45.651   5.190   9.880  0.00  0.00    +0.000 A 
ATOM     20  C   UNL     1      44.944   4.607  10.934  0.00  0.00    +0.000 A 
ENDBRANCH  11  12
ENDBRANCH   5  11
TORSDOF 4
ENDMDL
MODEL 8
REMARK VINA RESULT:    -5.601      2.461      4.677
REMARK INTER + INTRA:          -6.905
REMARK INTER:                  -7.127
REMARK INTRA:                   0.222
REMARK UNBOUND:                -0.158
REMARK  Name = 
REMARK  4 active torsions:
REMARK  status: ('A' for Active; 'I' for Inactive)
REMARK    1  A    between atoms: N_1  and  C_2
REMARK    2  A    between atoms: C_2  and  C_3
REMARK    3  A    between atoms: C_7  and  C_8
REMARK    4  A    between atoms: C_8  and  N_9
REMARK                            x       y       z     vdW  Elec       q    Type
REMARK                         _______ _______ _______ _____ _____    ______ ____
ROOT
ATOM      1  C   UNL     1      47.919   4.680  15.715  0.00  0.00    +0.000 A 
ATOM      2  C   UNL     1      48.544   5.682  16.448  0.00  0.00    +0.000 A 
ATOM      3  C   UNL     1      48.743   6.923  15.855  0.00  0.00    +0.000 A 
ATOM      4  C   UNL     1      48.320   7.135  14.544  0.00  0.00    +0.000 A 
ATOM      5  C   UNL     1      47.699   6.085  13.869  0.00  0.00    +0.000 A 
ATOM      6  N   UNL     1      47.477   4.881  14.446  0.00  0.00    +0.000 NA
ENDROOT
BRANCH   1   7
ATOM      7  C   UNL     1      47.663   3.321  16.323  0.00  0.00    +0.000 C 
BRANCH   7   8
ATOM      8  N   UNL     1      46.700   3.376  17.426  0.00  0.00    +0.000 NA
ATOM      9  H   UNL     1      46.923   2.635  18.088  0.00  0.00    +0.000 HD
ATOM     10  H   UNL     1      45.784   3.141  17.043  0.00  0.00    +0.000 HD
ENDBRANCH   7   8
ENDBRANCH   1   7
BRANCH   5  11
ATOM     11  C   UNL     1      47.166   6.280  12.477  0.00  0.00    +0.000 C 
BRANCH  11  12
ATOM     12  N   UNL     1      45.810   5.767  12.265  0.00  0.00    +0.000 N 
ATOM     13  C   UNL     1      44.960   5.484  13.309  0.00  0.00    +0.000 A 
ATOM     14  C   UNL     1      44.137   4.456  12.907  0.00  0.00    +0.000 A 
ATOM     15  C   UNL     1      44.386   4.213  11.530  0.00  0.00    +0.000 A 
ATOM     16  C   UNL     1      43.878   3.304  10.592  0.00  0.00    +0.000 A 
ATOM     17  N   UNL     1      44.248   3.371   9.291  0.00  0.00    +0.000 NA
ATOM     18  C   UNL     1      45.124   4.329   8.914  0.00  0.00    +0.000 A 
ATOM     19  C   UNL     1      45.739   5.226   9.778  0.00  0.00    +0.000 A 
ATOM     20  C   UNL     1      45.361   5.133  11.119  0.00  0.00    +0.000 A 
ENDBRANCH  11  12
ENDBRANCH   5  11
TORSDOF 4
ENDMDL
MODEL 9
REMARK VINA RESULT:    -5.420      4.402      7.322
REMARK INTER + INTRA:          -6.688
REMARK INTER:                  -6.303
REMARK INTRA:                  -0.384
REMARK UNBOUND:                -0.158
REMARK  Name = 
REMARK  4 active torsions:
REMARK  status: ('A' for Active; 'I' for Inactive)
REMARK    1  A    between atoms: N_1  and  C_2
REMARK    2  A    between atoms: C_2  and  C_3
REMARK    3  A    between atoms: C_7  and  C_8
REMARK    4  A    between atoms: C_8  and  N_9
REMARK                            x       y       z     vdW  Elec       q    Type
REMARK                         _______ _______ _______ _____ _____    ______ ____
ROOT
ATOM      1  C   UNL     1      44.353   5.006  12.566  0.00  0.00    +0.000 A 
ATOM      2  C   UNL     1      43.968   6.097  11.796  0.00  0.00    +0.000 A 
ATOM      3  C   UNL     1      44.891   7.105  11.550  0.00  0.00    +0.000 A 
ATOM      4  C   UNL     1      46.175   7.006  12.082  0.00  0.00    +0.000 A 
ATOM      5  C   UNL     1      46.494   5.883  12.844  0.00  0.00    +0.000 A 
ATOM      6  N   UNL     1      45.610   4.882  13.068  0.00  0.00    +0.000 NA
ENDROOT
BRANCH   1   7
ATOM      7  C   UNL     1      43.391   3.875  12.845  0.00  0.00    +0.000 C 
BRANCH   7   8
ATOM      8  N   UNL     1      43.944   2.569  12.479  0.00  0.00    +0.000 NA
ATOM      9  H   UNL     1      44.944   2.675  12.312  0.00  0.00    +0.000 HD
ATOM     10  H   UNL     1      43.538   2.306  11.580  0.00  0.00    +0.000 HD
ENDBRANCH   7   8
ENDBRANCH   1   7
BRANCH   5  11
ATOM     11  C   UNL     1      47.884   5.696  13.387  0.00  0.00    +0.000 C 
BRANCH  11  12
ATOM     12  N   UNL     1      48.041   6.056  14.798  0.00  0.00    +0.000 N 
ATOM     13  C   UNL     1      48.692   7.201  15.196  0.00  0.00    +0.000 A 
ATOM     14  C   UNL     1      49.266   6.947  16.422  0.00  0.00    +0.000 A 
ATOM     15  C   UNL     1      48.822   5.669  16.853  0.00  0.00    +0.000 A 
ATOM     16  C   UNL     1      49.068   4.880  17.985  0.00  0.00    +0.000 A 
ATOM     17  N   UNL     1      48.411   3.711  18.173  0.00  0.00    +0.000 NA
ATOM     18  C   UNL     1      47.517   3.313  17.240  0.00  0.00    +0.000 A 
ATOM     19  C   UNL     1      47.259   3.983  16.052  0.00  0.00    +0.000 A 
ATOM     20  C   UNL     1      47.956   5.179  15.865  0.00  0.00    +0.000 A 
ENDBRANCH  11  12
ENDBRANCH   5  11
TORSDOF 4
ENDMDL
