MODEL 1
REMARK VINA RESULT:    -8.578      0.000      0.000
REMARK INTER + INTRA:         -10.663
REMARK INTER:                 -10.082
REMARK INTRA:                  -0.580
REMARK UNBOUND:                -0.580
REMARK  Name = 
REMARK  3 active torsions:
REMARK  status: ('A' for Active; 'I' for Inactive)
REMARK    1  A    between atoms: C_2  and  C_5
REMARK    2  A    between atoms: C_7  and  C_8
REMARK    3  A    between atoms: C_12  and  N_13
REMARK                            x       y       z     vdW  Elec       q    Type
REMARK                         _______ _______ _______ _____ _____    ______ ____
ROOT
ATOM      1  C   UNL     1      45.059   5.239  12.878  0.00  0.00    +0.000 A 
ATOM      2  C   UNL     1      43.748   5.202  13.331  0.00  0.00    +0.000 A 
ATOM      3  N   UNL     1      42.685   5.065  12.501  0.00  0.00    +0.000 NA
ATOM      4  C   UNL     1      42.990   4.980  11.181  0.00  0.00    +0.000 A 
ATOM      5  C   UNL     1      44.289   5.060  10.683  0.00  0.00    +0.000 A 
ATOM      6  N   UNL     1      45.320   5.161  11.552  0.00  0.00    +0.000 NA
ENDROOT
BRANCH   5   7
ATOM      7  N   UNL     1      44.536   5.000   9.300  0.00  0.00    +0.000 N 
ATOM      8  C   UNL     1      45.195   3.973   8.611  0.00  0.00    +0.000 A 
ATOM      9  C   UNL     1      45.150   2.634   9.000  0.00  0.00    +0.000 A 
ATOM     10  C   UNL     1      45.954   1.692   8.362  0.00  0.00    +0.000 A 
ATOM     11  C   UNL     1      46.743   2.099   7.300  0.00  0.00    +0.000 A 
ATOM     12 CL   UNL     1      47.779   0.990   6.504  0.00  0.00    +0.000 Cl
ATOM     13  C   UNL     1      46.675   3.428   6.915  0.00  0.00    +0.000 A 
ATOM     14  N   UNL     1      45.925   4.368   7.547  0.00  0.00    +0.000 NA
ATOM     15  H   UNL     1      44.852   5.872   8.889  0.00  0.00    +0.000 HD
ENDBRANCH   5   7
BRANCH   1  18
ATOM     16  C   UNL     1      47.668   4.498  15.526  0.00  0.00    +0.000 A 
ATOM     17  C   UNL     1      46.530   4.390  14.722  0.00  0.00    +0.000 A 
ATOM     18  C   UNL     1      46.249   5.363  13.742  0.00  0.00    +0.000 A 
ATOM     19  C   UNL     1      47.155   6.417  13.612  0.00  0.00    +0.000 A 
ATOM     20  C   UNL     1      48.264   6.462  14.442  0.00  0.00    +0.000 A 
ATOM     21  N   UNL     1      48.532   5.541  15.388  0.00  0.00    +0.000 NA
BRANCH  16  23
ATOM     22  F   UNL     1      46.865   3.093  17.323  0.00  0.00    +0.000 F 
ATOM     23  C   UNL     1      47.961   3.440  16.583  0.00  0.00    +0.000 C 
ATOM     24  F   UNL     1      48.897   3.840  17.493  0.00  0.00    +0.000 F 
ATOM     25  F   UNL     1      48.424   2.270  16.057  0.00  0.00    +0.000 F 
ENDBRANCH  16  23
ENDBRANCH   1  18
TORSDOF 3
ENDMDL
MODEL 2
REMARK VINA RESULT:    -7.787      2.132      2.705
REMARK INTER + INTRA:          -9.733
REMARK INTER:                  -9.100
REMARK INTRA:                  -0.633
REMARK UNBOUND:                -0.580
REMARK  Name = 
REMARK  3 active torsions:
REMARK  status: ('A' for Active; 'I' for Inactive)
REMARK    1  A    between atoms: C_2  and  C_5
REMARK    2  A    between atoms: C_7  and  C_8
REMARK    3  A    between atoms: C_12  and  N_13
REMARK                            x       y       z     vdW  Elec       q    Type
REMARK                         _______ _______ _______ _____ _____    ______ ____
ROOT
ATOM      1  C   UNL     1      45.240   5.032  13.041  0.00  0.00    +0.000 A 
ATOM      2  C   UNL     1      43.979   4.800  13.570  0.00  0.00    +0.000 A 
ATOM      3  N   UNL     1      42.890   4.556  12.800  0.00  0.00    +0.000 NA
ATOM      4  C   UNL     1      43.115   4.567  11.462  0.00  0.00    +0.000 A 
ATOM      5  C   UNL     1      44.356   4.842  10.890  0.00  0.00    +0.000 A 
ATOM      6  N   UNL     1      45.420   5.045  11.699  0.00  0.00    +0.000 NA
ENDROOT
BRANCH   5   7
ATOM      7  N   UNL     1      44.516   4.873   9.494  0.00  0.00    +0.000 N 
ATOM      8  C   UNL     1      45.191   3.931   8.707  0.00  0.00    +0.000 A 
ATOM      9  C   UNL     1      45.255   2.572   9.020  0.00  0.00    +0.000 A 
ATOM     10  C   UNL     1      46.073   1.721   8.280  0.00  0.00    +0.000 A 
ATOM     11  C   UNL     1      46.765   2.236   7.197  0.00  0.00    +0.000 A 
ATOM     12 CL   UNL     1      47.813   1.241   6.277  0.00  0.00    +0.000 Cl
ATOM     13  C   UNL     1      46.589   3.576   6.895  0.00  0.00    +0.000 A 
ATOM     14  N   UNL     1      45.825   4.429   7.625  0.00  0.00    +0.000 NA
ATOM     15  H   UNL     1      44.749   5.785   9.115  0.00  0.00    +0.000 HD
ENDBRANCH   5   7
BRANCH   1  18
ATOM     16  C   UNL     1      48.548   6.485  14.187  0.00  0.00    +0.000 A 
ATOM     17  C   UNL     1      47.405   6.237  13.423  0.00  0.00    +0.000 A 
ATOM     18  C   UNL     1      46.458   5.280  13.836  0.00  0.00    +0.000 A 
ATOM     19  C   UNL     1      46.712   4.610  15.035  0.00  0.00    +0.000 A 
ATOM     20  C   UNL     1      47.865   4.905  15.744  0.00  0.00    +0.000 A 
ATOM     21  N   UNL     1      48.780   5.812  15.347  0.00  0.00    +0.000 NA
BRANCH  16  23
ATOM     22  F   UNL     1      49.110   8.809  13.825  0.00  0.00    +0.000 F 
ATOM     23  C   UNL     1      49.566   7.523  13.728  0.00  0.00    +0.000 C 
ATOM     24  F   UNL     1      49.933   7.370  12.423  0.00  0.00    +0.000 F 
ATOM     25  F   UNL     1      50.722   7.497  14.451  0.00  0.00    +0.000 F 
ENDBRANCH  16  23
ENDBRANCH   1  18
TORSDOF 3
ENDMDL
MODEL 3
REMARK VINA RESULT:    -7.191      1.720      2.161
REMARK INTER + INTRA:          -9.032
REMARK INTER:                  -8.555
REMARK INTRA:                  -0.477
REMARK UNBOUND:                -0.580
REMARK  Name = 
REMARK  3 active torsions:
REMARK  status: ('A' for Active; 'I' for Inactive)
REMARK    1  A    between atoms: C_2  and  C_5
REMARK    2  A    between atoms: C_7  and  C_8
REMARK    3  A    between atoms: C_12  and  N_13
REMARK                            x       y       z     vdW  Elec       q    Type
REMARK                         _______ _______ _______ _____ _____    ______ ____
ROOT
ATOM      1  C   UNL     1      46.333   6.478  12.551  0.00  0.00    +0.000 A 
ATOM      2  C   UNL     1      45.126   6.358  13.225  0.00  0.00    +0.000 A 
ATOM      3  N   UNL     1      43.991   5.916  12.631  0.00  0.00    +0.000 NA
ATOM      4  C   UNL     1      44.111   5.608  11.315  0.00  0.00    +0.000 A 
ATOM      5  C   UNL     1      45.292   5.760  10.591  0.00  0.00    +0.000 A 
ATOM      6  N   UNL     1      46.408   6.170  11.235  0.00  0.00    +0.000 NA
ENDROOT
BRANCH   5   7
ATOM      7  N   UNL     1      45.342   5.456   9.219  0.00  0.00    +0.000 N 
ATOM      8  C   UNL     1      45.602   4.203   8.648  0.00  0.00    +0.000 A 
ATOM      9  C   UNL     1      45.238   2.995   9.243  0.00  0.00    +0.000 A 
ATOM     10  C   UNL     1      45.667   1.788   8.697  0.00  0.00    +0.000 A 
ATOM     11  C   UNL     1      46.401   1.810   7.524  0.00  0.00    +0.000 A 
ATOM     12 CL   UNL     1      46.985   0.356   6.830  0.00  0.00    +0.000 Cl
ATOM     13  C   UNL     1      46.655   3.041   6.943  0.00  0.00    +0.000 A 
ATOM     14  N   UNL     1      46.277   4.231   7.480  0.00  0.00    +0.000 NA
ATOM     15  H   UNL     1      45.833   6.139   8.653  0.00  0.00    +0.000 HD
ENDBRANCH   5   7
BRANCH   1  18
ATOM     16  C   UNL     1      49.204   6.880  14.994  0.00  0.00    +0.000 A 
ATOM     17  C   UNL     1      47.996   6.465  14.428  0.00  0.00    +0.000 A 
ATOM     18  C   UNL     1      47.599   6.932  13.159  0.00  0.00    +0.000 A 
ATOM     19  C   UNL     1      48.467   7.807  12.502  0.00  0.00    +0.000 A 
ATOM     20  C   UNL     1      49.650   8.177  13.121  0.00  0.00    +0.000 A 
ATOM     21  N   UNL     1      50.029   7.743  14.339  0.00  0.00    +0.000 NA
BRANCH  16  23
ATOM     22  F   UNL     1      49.427   7.282  17.368  0.00  0.00    +0.000 F 
ATOM     23  C   UNL     1      49.621   6.369  16.368  0.00  0.00    +0.000 C 
ATOM     24  F   UNL     1      50.944   6.038  16.435  0.00  0.00    +0.000 F 
ATOM     25  F   UNL     1      48.934   5.257  16.758  0.00  0.00    +0.000 F 
ENDBRANCH  16  23
ENDBRANCH   1  18
TORSDOF 3
ENDMDL
MODEL 4
REMARK VINA RESULT:    -6.952      4.512      7.717
REMARK INTER + INTRA:          -8.752
REMARK INTER:                  -8.371
REMARK INTRA:                  -0.381
REMARK UNBOUND:                -0.580
REMARK  Name = 
REMARK  3 active torsions:
REMARK  status: ('A' for Active; 'I' for Inactive)
REMARK    1  A    between atoms: C_2  and  C_5
REMARK    2  A    between atoms: C_7  and  C_8
REMARK    3  A    between atoms: C_12  and  N_13
REMARK                            x       y       z     vdW  Elec       q    Type
REMARK                         _______ _______ _______ _____ _____    ______ ____
ROOT
ATOM      1  C   UNL     1      45.671   6.585  12.257  0.00  0.00    +0.000 A 
ATOM      2  C   UNL     1      45.219   7.896  12.243  0.00  0.00    +0.000 A 
ATOM      3  N   UNL     1      45.852   8.901  12.898  0.00  0.00    +0.000 NA
ATOM      4  C   UNL     1      46.961   8.533  13.587  0.00  0.00    +0.000 A 
ATOM      5  C   UNL     1      47.421   7.219  13.665  0.00  0.00    +0.000 A 
ATOM      6  N   UNL     1      46.778   6.257  12.966  0.00  0.00    +0.000 NA
ENDROOT
BRANCH   5   7
ATOM      7  N   UNL     1      48.559   6.897  14.425  0.00  0.00    +0.000 N 
ATOM      8  C   UNL     1      48.595   6.120  15.590  0.00  0.00    +0.000 A 
ATOM      9  C   UNL     1      47.720   5.062  15.836  0.00  0.00    +0.000 A 
ATOM     10  C   UNL     1      47.711   4.435  17.080  0.00  0.00    +0.000 A 
ATOM     11  C   UNL     1      48.627   4.838  18.036  0.00  0.00    +0.000 A 
ATOM     12 CL   UNL     1      48.634   4.126  19.595  0.00  0.00    +0.000 Cl
ATOM     13  C   UNL     1      49.521   5.838  17.694  0.00  0.00    +0.000 A 
ATOM     14  N   UNL     1      49.521   6.486  16.500  0.00  0.00    +0.000 NA
ATOM     15  H   UNL     1      49.201   7.669  14.572  0.00  0.00    +0.000 HD
ENDBRANCH   5   7
BRANCH   1  18
ATOM     16  C   UNL     1      44.935   3.949   9.635  0.00  0.00    +0.000 A 
ATOM     17  C   UNL     1      45.528   5.024  10.300  0.00  0.00    +0.000 A 
ATOM     18  C   UNL     1      45.032   5.462  11.543  0.00  0.00    +0.000 A 
ATOM     19  C   UNL     1      43.941   4.770  12.073  0.00  0.00    +0.000 A 
ATOM     20  C   UNL     1      43.401   3.711  11.360  0.00  0.00    +0.000 A 
ATOM     21  N   UNL     1      43.865   3.296  10.165  0.00  0.00    +0.000 NA
BRANCH  16  23
ATOM     22  F   UNL     1      46.412   4.335   7.759  0.00  0.00    +0.000 F 
ATOM     23  C   UNL     1      45.481   3.485   8.289  0.00  0.00    +0.000 C 
ATOM     24  F   UNL     1      44.514   3.370   7.332  0.00  0.00    +0.000 F 
ATOM     25  F   UNL     1      46.098   2.270   8.350  0.00  0.00    +0.000 F 
ENDBRANCH  16  23
ENDBRANCH   1  18
TORSDOF 3
ENDMDL
MODEL 5
REMARK VINA RESULT:    -6.920      4.659      7.670
REMARK INTER + INTRA:          -8.714
REMARK INTER:                  -8.229
REMARK INTRA:                  -0.485
REMARK UNBOUND:                -0.580
REMARK  Name = 
REMARK  3 active torsions:
REMARK  status: ('A' for Active; 'I' for Inactive)
REMARK    1  A    between atoms: C_2  and  C_5
REMARK    2  A    between atoms: C_7  and  C_8
REMARK    3  A    between atoms: C_12  and  N_13
REMARK                            x       y       z     vdW  Elec       q    Type
REMARK                         _______ _______ _______ _____ _____    ______ ____
ROOT
ATOM      1  C   UNL     1      45.235   5.520  10.907  0.00  0.00    +0.000 A 
ATOM      2  C   UNL     1      44.275   6.517  11.019  0.00  0.00    +0.000 A 
ATOM      3  N   UNL     1      44.403   7.571  11.861  0.00  0.00    +0.000 NA
ATOM      4  C   UNL     1      45.536   7.581  12.606  0.00  0.00    +0.000 A 
ATOM      5  C   UNL     1      46.501   6.576  12.558  0.00  0.00    +0.000 A 
ATOM      6  N   UNL     1      46.348   5.562  11.677  0.00  0.00    +0.000 NA
ENDROOT
BRANCH   5   7
ATOM      7  N   UNL     1      47.638   6.628  13.383  0.00  0.00    +0.000 N 
ATOM      8  C   UNL     1      47.835   5.931  14.582  0.00  0.00    +0.000 A 
ATOM      9  C   UNL     1      47.296   4.670  14.837  0.00  0.00    +0.000 A 
ATOM     10  C   UNL     1      47.402   4.106  16.106  0.00  0.00    +0.000 A 
ATOM     11  C   UNL     1      48.103   4.791  17.083  0.00  0.00    +0.000 A 
ATOM     12 CL   UNL     1      48.232   4.160  18.672  0.00  0.00    +0.000 Cl
ATOM     13  C   UNL     1      48.683   6.000  16.737  0.00  0.00    +0.000 A 
ATOM     14  N   UNL     1      48.560   6.582  15.516  0.00  0.00    +0.000 NA
ATOM     15  H   UNL     1      48.016   7.559  13.524  0.00  0.00    +0.000 HD
ENDBRANCH   5   7
BRANCH   1  18
ATOM     16  C   UNL     1      45.870   3.221   7.961  0.00  0.00    +0.000 A 
ATOM     17  C   UNL     1      45.933   4.323   8.818  0.00  0.00    +0.000 A 
ATOM     18  C   UNL     1      45.153   4.367   9.990  0.00  0.00    +0.000 A 
ATOM     19  C   UNL     1      44.335   3.266  10.253  0.00  0.00    +0.000 A 
ATOM     20  C   UNL     1      44.321   2.206   9.360  0.00  0.00    +0.000 A 
ATOM     21  N   UNL     1      45.056   2.164   8.232  0.00  0.00    +0.000 NA
BRANCH  16  23
ATOM     22  F   UNL     1      48.043   2.949   6.937  0.00  0.00    +0.000 F 
ATOM     23  C   UNL     1      46.718   3.186   6.695  0.00  0.00    +0.000 C 
ATOM     24  F   UNL     1      46.684   4.358   5.997  0.00  0.00    +0.000 F 
ATOM     25  F   UNL     1      46.334   2.214   5.819  0.00  0.00    +0.000 F 
ENDBRANCH  16  23
ENDBRANCH   1  18
TORSDOF 3
ENDMDL
MODEL 6
REMARK VINA RESULT:    -6.819      4.682      6.953
REMARK INTER + INTRA:          -8.595
REMARK INTER:                  -8.068
REMARK INTRA:                  -0.528
REMARK UNBOUND:                -0.580
REMARK  Name = 
REMARK  3 active torsions:
REMARK  status: ('A' for Active; 'I' for Inactive)
REMARK    1  A    between atoms: C_2  and  C_5
REMARK    2  A    between atoms: C_7  and  C_8
REMARK    3  A    between atoms: C_12  and  N_13
REMARK                            x       y       z     vdW  Elec       q    Type
REMARK                         _______ _______ _______ _____ _____    ______ ____
ROOT
ATOM      1  C   UNL     1      46.386   5.150  12.999  0.00  0.00    +0.000 A 
ATOM      2  C   UNL     1      46.978   4.805  14.205  0.00  0.00    +0.000 A 
ATOM      3  N   UNL     1      47.911   5.577  14.815  0.00  0.00    +0.000 NA
ATOM      4  C   UNL     1      48.242   6.714  14.154  0.00  0.00    +0.000 A 
ATOM      5  C   UNL     1      47.706   7.072  12.918  0.00  0.00    +0.000 A 
ATOM      6  N   UNL     1      46.752   6.290  12.365  0.00  0.00    +0.000 NA
ENDROOT
BRANCH   5   7
ATOM      7  N   UNL     1      48.117   8.248  12.267  0.00  0.00    +0.000 N 
ATOM      8  C   UNL     1      49.386   8.512  11.735  0.00  0.00    +0.000 A 
ATOM      9  C   UNL     1      50.214   7.526  11.196  0.00  0.00    +0.000 A 
ATOM     10  C   UNL     1      51.522   7.834  10.830  0.00  0.00    +0.000 A 
ATOM     11  C   UNL     1      51.958   9.141  10.951  0.00  0.00    +0.000 A 
ATOM     12 CL   UNL     1      53.569   9.566  10.550  0.00  0.00    +0.000 Cl
ATOM     13  C   UNL     1      51.057  10.084  11.416  0.00  0.00    +0.000 A 
ATOM     14  N   UNL     1      49.789   9.797  11.812  0.00  0.00    +0.000 NA
ATOM     15  H   UNL     1      47.806   9.107  12.709  0.00  0.00    +0.000 HD
ENDBRANCH   5   7
BRANCH   1  18
ATOM     16  C   UNL     1      44.633   3.018  10.401  0.00  0.00    +0.000 A 
ATOM     17  C   UNL     1      45.606   3.786  11.045  0.00  0.00    +0.000 A 
ATOM     18  C   UNL     1      45.351   4.357  12.307  0.00  0.00    +0.000 A 
ATOM     19  C   UNL     1      44.099   4.112  12.876  0.00  0.00    +0.000 A 
ATOM     20  C   UNL     1      43.180   3.341  12.181  0.00  0.00    +0.000 A 
ATOM     21  N   UNL     1      43.415   2.802  10.970  0.00  0.00    +0.000 NA
BRANCH  16  23
ATOM     22  F   UNL     1      44.303   1.201   8.839  0.00  0.00    +0.000 F 
ATOM     23  C   UNL     1      44.921   2.406   9.035  0.00  0.00    +0.000 C 
ATOM     24  F   UNL     1      46.248   2.166   8.827  0.00  0.00    +0.000 F 
ATOM     25  F   UNL     1      44.512   3.192   7.997  0.00  0.00    +0.000 F 
ENDBRANCH  16  23
ENDBRANCH   1  18
TORSDOF 3
ENDMDL
MODEL 7
REMARK VINA RESULT:    -6.579      4.560      7.303
REMARK INTER + INTRA:          -8.313
REMARK INTER:                  -7.715
REMARK INTRA:                  -0.598
REMARK UNBOUND:                -0.580
REMARK  Name = 
REMARK  3 active torsions:
REMARK  status: ('A' for Active; 'I' for Inactive)
REMARK    1  A    between atoms: C_2  and  C_5
REMARK    2  A    between atoms: C_7  and  C_8
REMARK    3  A    between atoms: C_12  and  N_13
REMARK                            x       y       z     vdW  Elec       q    Type
REMARK                         _______ _______ _______ _____ _____    ______ ____
ROOT
ATOM      1  C   UNL     1      44.612   4.568  10.569  0.00  0.00    +0.000 A 
ATOM      2  C   UNL     1      43.399   5.243  10.568  0.00  0.00    +0.000 A 
ATOM      3  N   UNL     1      43.120   6.257  11.423  0.00  0.00    +0.000 NA
ATOM      4  C   UNL     1      44.110   6.564  12.298  0.00  0.00    +0.000 A 
ATOM      5  C   UNL     1      45.323   5.880  12.363  0.00  0.00    +0.000 A 
ATOM      6  N   UNL     1      45.571   4.898  11.466  0.00  0.00    +0.000 NA
ENDROOT
BRANCH   5   7
ATOM      7  N   UNL     1      46.296   6.224  13.317  0.00  0.00    +0.000 N 
ATOM      8  C   UNL     1      47.442   7.001  13.102  0.00  0.00    +0.000 A 
ATOM      9  C   UNL     1      47.503   8.041  12.174  0.00  0.00    +0.000 A 
ATOM     10  C   UNL     1      48.717   8.667  11.903  0.00  0.00    +0.000 A 
ATOM     11  C   UNL     1      49.840   8.281  12.614  0.00  0.00    +0.000 A 
ATOM     12 CL   UNL     1      51.366   8.992  12.293  0.00  0.00    +0.000 Cl
ATOM     13  C   UNL     1      49.689   7.299  13.578  0.00  0.00    +0.000 A 
ATOM     14  N   UNL     1      48.522   6.652  13.832  0.00  0.00    +0.000 NA
ATOM     15  H   UNL     1      46.573   5.465  13.930  0.00  0.00    +0.000 HD
ENDBRANCH   5   7
BRANCH   1  18
ATOM     16  C   UNL     1      46.221   2.657   7.719  0.00  0.00    +0.000 A 
ATOM     17  C   UNL     1      45.866   3.698   8.580  0.00  0.00    +0.000 A 
ATOM     18  C   UNL     1      44.971   3.475   9.645  0.00  0.00    +0.000 A 
ATOM     19  C   UNL     1      44.474   2.179   9.798  0.00  0.00    +0.000 A 
ATOM     20  C   UNL     1      44.868   1.194   8.907  0.00  0.00    +0.000 A 
ATOM     21  N   UNL     1      45.715   1.404   7.881  0.00  0.00    +0.000 NA
BRANCH  16  23
ATOM     22  F   UNL     1      48.359   3.501   6.966  0.00  0.00    +0.000 F 
ATOM     23  C   UNL     1      47.191   2.911   6.570  0.00  0.00    +0.000 C 
ATOM     24  F   UNL     1      46.678   3.737   5.612  0.00  0.00    +0.000 F 
ATOM     25  F   UNL     1      47.566   1.770   5.923  0.00  0.00    +0.000 F 
ENDBRANCH  16  23
ENDBRANCH   1  18
TORSDOF 3
ENDMDL
MODEL 8
REMARK VINA RESULT:    -6.464      4.910      7.163
REMARK INTER + INTRA:          -8.178
REMARK INTER:                  -7.595
REMARK INTRA:                  -0.583
REMARK UNBOUND:                -0.580
REMARK  Name = 
REMARK  3 active torsions:
REMARK  status: ('A' for Active; 'I' for Inactive)
REMARK    1  A    between atoms: C_2  and  C_5
REMARK    2  A    between atoms: C_7  and  C_8
REMARK    3  A    between atoms: C_12  and  N_13
REMARK                            x       y       z     vdW  Elec       q    Type
REMARK                         _______ _______ _______ _____ _____    ______ ____
ROOT
ATOM      1  C   UNL     1      46.782   6.240  12.345  0.00  0.00    +0.000 A 
ATOM      2  C   UNL     1      45.565   5.990  11.727  0.00  0.00    +0.000 A 
ATOM      3  N   UNL     1      44.838   4.869  11.956  0.00  0.00    +0.000 NA
ATOM      4  C   UNL     1      45.392   3.990  12.829  0.00  0.00    +0.000 A 
ATOM      5  C   UNL     1      46.633   4.181  13.434  0.00  0.00    +0.000 A 
ATOM      6  N   UNL     1      47.305   5.331  13.202  0.00  0.00    +0.000 NA
ENDROOT
BRANCH   5   7
ATOM      7  N   UNL     1      47.168   3.215  14.303  0.00  0.00    +0.000 N 
ATOM      8  C   UNL     1      47.591   3.418  15.623  0.00  0.00    +0.000 A 
ATOM      9  C   UNL     1      47.011   4.353  16.481  0.00  0.00    +0.000 A 
ATOM     10  C   UNL     1      47.583   4.612  17.725  0.00  0.00    +0.000 A 
ATOM     11  C   UNL     1      48.691   3.880  18.114  0.00  0.00    +0.000 A 
ATOM     12 CL   UNL     1      49.456   4.184  19.617  0.00  0.00    +0.000 Cl
ATOM     13  C   UNL     1      49.164   2.911  17.246  0.00  0.00    +0.000 A 
ATOM     14  N   UNL     1      48.643   2.669  16.015  0.00  0.00    +0.000 NA
ATOM     15  H   UNL     1      47.845   2.591  13.876  0.00  0.00    +0.000 HD
ENDBRANCH   5   7
BRANCH   1  18
ATOM     16  C   UNL     1      49.723   8.505  11.580  0.00  0.00    +0.000 A 
ATOM     17  C   UNL     1      48.957   7.355  11.787  0.00  0.00    +0.000 A 
ATOM     18  C   UNL     1      47.598   7.453  12.147  0.00  0.00    +0.000 A 
ATOM     19  C   UNL     1      47.063   8.737  12.272  0.00  0.00    +0.000 A 
ATOM     20  C   UNL     1      47.881   9.834  12.052  0.00  0.00    +0.000 A 
ATOM     21  N   UNL     1      49.183   9.747  11.719  0.00  0.00    +0.000 NA
BRANCH  16  23
ATOM     22  F   UNL     1      51.656   9.461  10.485  0.00  0.00    +0.000 F 
ATOM     23  C   UNL     1      51.192   8.386  11.192  0.00  0.00    +0.000 C 
ATOM     24  F   UNL     1      51.451   7.300  10.406  0.00  0.00    +0.000 F 
ATOM     25  F   UNL     1      52.024   8.278  12.268  0.00  0.00    +0.000 F 
ENDBRANCH  16  23
ENDBRANCH   1  18
TORSDOF 3
ENDMDL
MODEL 9
REMARK VINA RESULT:    -6.066      4.943      8.660
REMARK INTER + INTRA:          -7.710
REMARK INTER:                  -7.116
REMARK INTRA:                  -0.593
REMARK UNBOUND:                -0.580
REMARK  Name = 
REMARK  3 active torsions:
REMARK  status: ('A' for Active; 'I' for Inactive)
REMARK    1  A    between atoms: C_2  and  C_5
REMARK    2  A    between atoms: C_7  and  C_8
REMARK    3  A    between atoms: C_12  and  N_13
REMARK                            x       y       z     vdW  Elec       q    Type
REMARK                         _______ _______ _______ _____ _____    ______ ____
ROOT
ATOM      1  C   UNL     1      47.500   4.538  15.067  0.00  0.00    +0.000 A 
ATOM      2  C   UNL     1      47.502   3.304  15.701  0.00  0.00    +0.000 A 
ATOM      3  N   UNL     1      48.131   3.082  16.881  0.00  0.00    +0.000 NA
ATOM      4  C   UNL     1      48.779   4.155  17.400  0.00  0.00    +0.000 A 
ATOM      5  C   UNL     1      48.841   5.398  16.772  0.00  0.00    +0.000 A 
ATOM      6  N   UNL     1      48.167   5.582  15.614  0.00  0.00    +0.000 NA
ENDROOT
BRANCH   5   7
ATOM      7  N   UNL     1      49.559   6.462  17.346  0.00  0.00    +0.000 N 
ATOM      8  C   UNL     1      49.021   7.589  17.981  0.00  0.00    +0.000 A 
ATOM      9  C   UNL     1      47.824   7.571  18.697  0.00  0.00    +0.000 A 
ATOM     10  C   UNL     1      47.271   8.759  19.168  0.00  0.00    +0.000 A 
ATOM     11  C   UNL     1      47.962   9.941  18.967  0.00  0.00    +0.000 A 
ATOM     12 CL   UNL     1      47.309  11.436  19.493  0.00  0.00    +0.000 Cl
ATOM     13  C   UNL     1      49.185   9.874  18.320  0.00  0.00    +0.000 A 
ATOM     14  N   UNL     1      49.723   8.731  17.823  0.00  0.00    +0.000 NA
ATOM     15  H   UNL     1      50.343   6.789  16.792  0.00  0.00    +0.000 HD
ENDBRANCH   5   7
BRANCH   1  18
ATOM     16  C   UNL     1      45.115   4.291  12.131  0.00  0.00    +0.000 A 
ATOM     17  C   UNL     1      45.780   3.998  13.324  0.00  0.00    +0.000 A 
ATOM     18  C   UNL     1      46.811   4.835  13.796  0.00  0.00    +0.000 A 
ATOM     19  C   UNL     1      47.121   5.959  13.028  0.00  0.00    +0.000 A 
ATOM     20  C   UNL     1      46.421   6.189  11.854  0.00  0.00    +0.000 A 
ATOM     21  N   UNL     1      45.443   5.387  11.393  0.00  0.00    +0.000 NA
BRANCH  16  23
ATOM     22  F   UNL     1      44.399   2.539  10.626  0.00  0.00    +0.000 F 
ATOM     23  C   UNL     1      44.002   3.378  11.631  0.00  0.00    +0.000 C 
ATOM     24  F   UNL     1      42.936   4.064  11.126  0.00  0.00    +0.000 F 
ATOM     25  F   UNL     1      43.500   2.562  12.602  0.00  0.00    +0.000 F 
ENDBRANCH  16  23
ENDBRANCH   1  18
TORSDOF 3
ENDMDL
