MODEL 1
REMARK VINA RESULT:    -7.978      0.000      0.000
REMARK INTER + INTRA:         -10.239
REMARK INTER:                  -9.844
REMARK INTRA:                  -0.395
REMARK UNBOUND:                -0.395
REMARK  Name = 
REMARK  4 active torsions:
REMARK  status: ('A' for Active; 'I' for Inactive)
REMARK    1  A    between atoms: C_2  and  C_4
REMARK    2  A    between atoms: C_7  and  C_8
REMARK    3  A    between atoms: C_8  and  C_9
REMARK    4  A    between atoms: C_9  and  C_10
REMARK                            x       y       z     vdW  Elec       q    Type
REMARK                         _______ _______ _______ _____ _____    ______ ____
ROOT
ATOM      1  C   UNL     1      46.465   2.672   7.546  0.00  0.00    +0.000 A 
ATOM      2  N   UNL     1      46.095   3.967   7.689  0.00  0.00    +0.000 NA
ATOM      3  C   UNL     1      45.206   4.215   8.677  0.00  0.00    +0.000 A 
ATOM      4  C   UNL     1      44.651   3.243   9.490  0.00  0.00    +0.000 A 
ATOM      5  C   UNL     1      45.140   1.967   9.255  0.00  0.00    +0.000 A 
ATOM      6  N   UNL     1      46.031   1.648   8.302  0.00  0.00    +0.000 NA
ENDROOT
BRANCH   1   8
ATOM      7  N   UNL     1      47.428   3.217   5.369  0.00  0.00    +0.000 N 
ATOM      8  C   UNL     1      47.457   2.371   6.454  0.00  0.00    +0.000 C 
ATOM      9  O   UNL     1      48.261   1.442   6.489  0.00  0.00    +0.000 OA
ATOM     10  H   UNL     1      48.090   3.078   4.620  0.00  0.00    +0.000 HD
ATOM     11  H   UNL     1      46.789   4.003   5.357  0.00  0.00    +0.000 HD
ENDBRANCH   1   8
BRANCH   4  12
ATOM     12  C   UNL     1      43.713   3.458  10.650  0.00  0.00    +0.000 C 
BRANCH  12  13
ATOM     13  C   UNL     1      43.745   4.746  11.444  0.00  0.00    +0.000 C 
ATOM     14  C   UNL     1      42.483   5.394  11.993  0.00  0.00    +0.000 C 
ATOM     15  O   UNL     1      43.139   5.889  10.816  0.00  0.00    +0.000 OA
BRANCH  13  16
ATOM     16  C   UNL     1      45.040   4.999  12.198  0.00  0.00    +0.000 A 
ATOM     17  C   UNL     1      45.891   6.046  11.834  0.00  0.00    +0.000 A 
ATOM     18  C   UNL     1      47.035   6.305  12.583  0.00  0.00    +0.000 A 
ATOM     19  C   UNL     1      47.319   5.506  13.681  0.00  0.00    +0.000 A 
ATOM     20  C   UNL     1      46.452   4.467  13.968  0.00  0.00    +0.000 A 
ATOM     21  N   UNL     1      45.337   4.196  13.255  0.00  0.00    +0.000 NA
ENDBRANCH  13  16
ENDBRANCH  12  13
ENDBRANCH   4  12
TORSDOF 4
ENDMDL
MODEL 2
REMARK VINA RESULT:    -6.832      2.960      6.355
REMARK INTER + INTRA:          -8.824
REMARK INTER:                  -8.510
REMARK INTRA:                  -0.314
REMARK UNBOUND:                -0.395
REMARK  Name = 
REMARK  4 active torsions:
REMARK  status: ('A' for Active; 'I' for Inactive)
REMARK    1  A    between atoms: C_2  and  C_4
REMARK    2  A    between atoms: C_7  and  C_8
REMARK    3  A    between atoms: C_8  and  C_9
REMARK    4  A    between atoms: C_9  and  C_10
REMARK                            x       y       z     vdW  Elec       q    Type
REMARK                         _______ _______ _______ _____ _____    ______ ____
ROOT
ATOM      1  C   UNL     1      47.690   3.891  15.427  0.00  0.00    +0.000 A 
ATOM      2  N   UNL     1      47.922   5.226  15.427  0.00  0.00    +0.000 NA
ATOM      3  C   UNL     1      47.551   5.884  14.307  0.00  0.00    +0.000 A 
ATOM      4  C   UNL     1      47.004   5.277  13.191  0.00  0.00    +0.000 A 
ATOM      5  C   UNL     1      46.795   3.914  13.336  0.00  0.00    +0.000 A 
ATOM      6  N   UNL     1      47.125   3.197  14.423  0.00  0.00    +0.000 NA
ENDROOT
BRANCH   1   8
ATOM      7  N   UNL     1      47.081   2.859  17.555  0.00  0.00    +0.000 N 
ATOM      8  C   UNL     1      48.094   3.136  16.666  0.00  0.00    +0.000 C 
ATOM      9  O   UNL     1      49.241   2.767  16.905  0.00  0.00    +0.000 OA
ATOM     10  H   UNL     1      47.291   2.330  18.389  0.00  0.00    +0.000 HD
ATOM     11  H   UNL     1      46.130   3.132  17.340  0.00  0.00    +0.000 HD
ENDBRANCH   1   8
BRANCH   4  12
ATOM     12  C   UNL     1      46.504   5.958  11.942  0.00  0.00    +0.000 C 
BRANCH  12  13
ATOM     13  C   UNL     1      45.126   5.659  11.392  0.00  0.00    +0.000 C 
ATOM     14  C   UNL     1      43.997   6.675  11.434  0.00  0.00    +0.000 C 
ATOM     15  O   UNL     1      44.065   5.581  12.360  0.00  0.00    +0.000 OA
BRANCH  13  16
ATOM     16  C   UNL     1      45.096   4.630  10.275  0.00  0.00    +0.000 A 
ATOM     17  C   UNL     1      45.698   4.890   9.041  0.00  0.00    +0.000 A 
ATOM     18  C   UNL     1      45.722   3.905   8.057  0.00  0.00    +0.000 A 
ATOM     19  C   UNL     1      45.134   2.676   8.317  0.00  0.00    +0.000 A 
ATOM     20  C   UNL     1      44.527   2.495   9.546  0.00  0.00    +0.000 A 
ATOM     21  N   UNL     1      44.491   3.436  10.516  0.00  0.00    +0.000 NA
ENDBRANCH  13  16
ENDBRANCH  12  13
ENDBRANCH   4  12
TORSDOF 4
ENDMDL
MODEL 3
REMARK VINA RESULT:    -6.710      1.648      2.401
REMARK INTER + INTRA:          -8.674
REMARK INTER:                  -8.866
REMARK INTRA:                   0.192
REMARK UNBOUND:                -0.395
REMARK  Name = 
REMARK  4 active torsions:
REMARK  status: ('A' for Active; 'I' for Inactive)
REMARK    1  A    between atoms: C_2  and  C_4
REMARK    2  A    between atoms: C_7  and  C_8
REMARK    3  A    between atoms: C_8  and  C_9
REMARK    4  A    between atoms: C_9  and  C_10
REMARK                            x       y       z     vdW  Elec       q    Type
REMARK                         _______ _______ _______ _____ _____    ______ ____
ROOT
ATOM      1  C   UNL     1      46.497   3.014   7.302  0.00  0.00    +0.000 A 
ATOM      2  N   UNL     1      46.105   1.933   8.018  0.00  0.00    +0.000 NA
ATOM      3  C   UNL     1      45.352   2.196   9.109  0.00  0.00    +0.000 A 
ATOM      4  C   UNL     1      45.010   3.468   9.532  0.00  0.00    +0.000 A 
ATOM      5  C   UNL     1      45.451   4.479   8.693  0.00  0.00    +0.000 A 
ATOM      6  N   UNL     1      46.191   4.292   7.587  0.00  0.00    +0.000 NA
ENDROOT
BRANCH   1   8
ATOM      7  N   UNL     1      48.648   2.406   6.317  0.00  0.00    +0.000 N 
ATOM      8  C   UNL     1      47.336   2.746   6.080  0.00  0.00    +0.000 C 
ATOM      9  O   UNL     1      46.915   2.809   4.928  0.00  0.00    +0.000 OA
ATOM     10  H   UNL     1      49.247   2.188   5.535  0.00  0.00    +0.000 HD
ATOM     11  H   UNL     1      48.984   2.319   7.269  0.00  0.00    +0.000 HD
ENDBRANCH   1   8
BRANCH   4  12
ATOM     12  C   UNL     1      44.118   3.827  10.694  0.00  0.00    +0.000 C 
BRANCH  12  13
ATOM     13  C   UNL     1      44.706   4.243  12.024  0.00  0.00    +0.000 C 
ATOM     14  C   UNL     1      45.506   3.287  12.894  0.00  0.00    +0.000 C 
ATOM     15  O   UNL     1      44.140   3.615  13.188  0.00  0.00    +0.000 OA
BRANCH  13  16
ATOM     16  C   UNL     1      45.024   5.724  12.146  0.00  0.00    +0.000 A 
ATOM     17  C   UNL     1      46.085   6.170  12.939  0.00  0.00    +0.000 A 
ATOM     18  C   UNL     1      46.403   7.524  12.977  0.00  0.00    +0.000 A 
ATOM     19  C   UNL     1      45.651   8.417  12.229  0.00  0.00    +0.000 A 
ATOM     20  C   UNL     1      44.596   7.915  11.490  0.00  0.00    +0.000 A 
ATOM     21  N   UNL     1      44.266   6.605  11.438  0.00  0.00    +0.000 NA
ENDBRANCH  13  16
ENDBRANCH  12  13
ENDBRANCH   4  12
TORSDOF 4
ENDMDL
MODEL 4
REMARK VINA RESULT:    -6.599      2.644      6.060
REMARK INTER + INTRA:          -8.536
REMARK INTER:                  -8.495
REMARK INTRA:                  -0.042
REMARK UNBOUND:                -0.395
REMARK  Name = 
REMARK  4 active torsions:
REMARK  status: ('A' for Active; 'I' for Inactive)
REMARK    1  A    between atoms: C_2  and  C_4
REMARK    2  A    between atoms: C_7  and  C_8
REMARK    3  A    between atoms: C_8  and  C_9
REMARK    4  A    between atoms: C_9  and  C_10
REMARK                            x       y       z     vdW  Elec       q    Type
REMARK                         _______ _______ _______ _____ _____    ______ ____
ROOT
ATOM      1  C   UNL     1      47.661   6.255  14.055  0.00  0.00    +0.000 A 
ATOM      2  N   UNL     1      46.841   6.670  13.059  0.00  0.00    +0.000 NA
ATOM      3  C   UNL     1      46.057   5.715  12.511  0.00  0.00    +0.000 A 
ATOM      4  C   UNL     1      46.081   4.381  12.877  0.00  0.00    +0.000 A 
ATOM      5  C   UNL     1      46.943   4.101  13.926  0.00  0.00    +0.000 A 
ATOM      6  N   UNL     1      47.740   4.999  14.527  0.00  0.00    +0.000 NA
ENDROOT
BRANCH   1   8
ATOM      7  N   UNL     1      47.895   8.415  15.172  0.00  0.00    +0.000 N 
ATOM      8  C   UNL     1      48.542   7.302  14.683  0.00  0.00    +0.000 C 
ATOM      9  O   UNL     1      49.763   7.208  14.778  0.00  0.00    +0.000 OA
ATOM     10  H   UNL     1      48.435   9.134  15.629  0.00  0.00    +0.000 HD
ATOM     11  H   UNL     1      46.885   8.474  15.125  0.00  0.00    +0.000 HD
ENDBRANCH   1   8
BRANCH   4  12
ATOM     12  C   UNL     1      45.188   3.282  12.359  0.00  0.00    +0.000 C 
BRANCH  12  13
ATOM     13  C   UNL     1      44.283   3.515  11.169  0.00  0.00    +0.000 C 
ATOM     14  C   UNL     1      43.053   4.406  11.245  0.00  0.00    +0.000 C 
ATOM     15  O   UNL     1      42.954   2.974  11.273  0.00  0.00    +0.000 OA
BRANCH  13  16
ATOM     16  C   UNL     1      44.961   3.380   9.816  0.00  0.00    +0.000 A 
ATOM     17  C   UNL     1      45.366   4.509   9.098  0.00  0.00    +0.000 A 
ATOM     18  C   UNL     1      46.051   4.359   7.896  0.00  0.00    +0.000 A 
ATOM     19  C   UNL     1      46.314   3.083   7.421  0.00  0.00    +0.000 A 
ATOM     20  C   UNL     1      45.858   2.009   8.164  0.00  0.00    +0.000 A 
ATOM     21  N   UNL     1      45.190   2.129   9.333  0.00  0.00    +0.000 NA
ENDBRANCH  13  16
ENDBRANCH  12  13
ENDBRANCH   4  12
TORSDOF 4
ENDMDL
MODEL 5
REMARK VINA RESULT:    -6.362      3.061      6.844
REMARK INTER + INTRA:          -8.244
REMARK INTER:                  -7.879
REMARK INTRA:                  -0.365
REMARK UNBOUND:                -0.395
REMARK  Name = 
REMARK  4 active torsions:
REMARK  status: ('A' for Active; 'I' for Inactive)
REMARK    1  A    between atoms: C_2  and  C_4
REMARK    2  A    between atoms: C_7  and  C_8
REMARK    3  A    between atoms: C_8  and  C_9
REMARK    4  A    between atoms: C_9  and  C_10
REMARK                            x       y       z     vdW  Elec       q    Type
REMARK                         _______ _______ _______ _____ _____    ______ ____
ROOT
ATOM      1  C   UNL     1      47.830   4.447  15.915  0.00  0.00    +0.000 A 
ATOM      2  N   UNL     1      47.074   3.684  15.089  0.00  0.00    +0.000 NA
ATOM      3  C   UNL     1      46.779   4.235  13.890  0.00  0.00    +0.000 A 
ATOM      4  C   UNL     1      47.166   5.504  13.499  0.00  0.00    +0.000 A 
ATOM      5  C   UNL     1      47.958   6.163  14.427  0.00  0.00    +0.000 A 
ATOM      6  N   UNL     1      48.302   5.673  15.630  0.00  0.00    +0.000 NA
ENDROOT
BRANCH   1   8
ATOM      7  N   UNL     1      47.299   2.903  17.731  0.00  0.00    +0.000 N 
ATOM      8  C   UNL     1      48.173   3.854  17.255  0.00  0.00    +0.000 C 
ATOM      9  O   UNL     1      49.162   4.166  17.914  0.00  0.00    +0.000 OA
ATOM     10  H   UNL     1      47.496   2.452  18.612  0.00  0.00    +0.000 HD
ATOM     11  H   UNL     1      46.504   2.621  17.171  0.00  0.00    +0.000 HD
ENDBRANCH   1   8
BRANCH   4  12
ATOM     12  C   UNL     1      46.933   6.149  12.156  0.00  0.00    +0.000 C 
BRANCH  12  13
ATOM     13  C   UNL     1      45.553   6.174  11.536  0.00  0.00    +0.000 C 
ATOM     14  C   UNL     1      44.748   7.457  11.396  0.00  0.00    +0.000 C 
ATOM     15  O   UNL     1      44.469   6.495  12.425  0.00  0.00    +0.000 OA
BRANCH  13  16
ATOM     16  C   UNL     1      45.290   5.074  10.522  0.00  0.00    +0.000 A 
ATOM     17  C   UNL     1      44.569   3.929  10.874  0.00  0.00    +0.000 A 
ATOM     18  C   UNL     1      44.276   2.968   9.910  0.00  0.00    +0.000 A 
ATOM     19  C   UNL     1      44.717   3.160   8.609  0.00  0.00    +0.000 A 
ATOM     20  C   UNL     1      45.452   4.298   8.335  0.00  0.00    +0.000 A 
ATOM     21  N   UNL     1      45.750   5.244   9.254  0.00  0.00    +0.000 NA
ENDBRANCH  13  16
ENDBRANCH  12  13
ENDBRANCH   4  12
TORSDOF 4
ENDMDL
MODEL 6
REMARK VINA RESULT:    -5.775      3.246      5.286
REMARK INTER + INTRA:          -7.520
REMARK INTER:                  -7.162
REMARK INTRA:                  -0.358
REMARK UNBOUND:                -0.395
REMARK  Name = 
REMARK  4 active torsions:
REMARK  status: ('A' for Active; 'I' for Inactive)
REMARK    1  A    between atoms: C_2  and  C_4
REMARK    2  A    between atoms: C_7  and  C_8
REMARK    3  A    between atoms: C_8  and  C_9
REMARK    4  A    between atoms: C_9  and  C_10
REMARK                            x       y       z     vdW  Elec       q    Type
REMARK                         _______ _______ _______ _____ _____    ______ ____
ROOT
ATOM      1  C   UNL     1      44.737   4.027  11.612  0.00  0.00    +0.000 A 
ATOM      2  N   UNL     1      45.005   5.018  10.727  0.00  0.00    +0.000 NA
ATOM      3  C   UNL     1      45.673   6.082  11.225  0.00  0.00    +0.000 A 
ATOM      4  C   UNL     1      46.047   6.217  12.551  0.00  0.00    +0.000 A 
ATOM      5  C   UNL     1      45.738   5.119  13.338  0.00  0.00    +0.000 A 
ATOM      6  N   UNL     1      45.088   4.024  12.909  0.00  0.00    +0.000 NA
ENDROOT
BRANCH   1   8
ATOM      7  N   UNL     1      44.557   2.215   9.984  0.00  0.00    +0.000 N 
ATOM      8  C   UNL     1      43.995   2.830  11.079  0.00  0.00    +0.000 C 
ATOM      9  O   UNL     1      42.953   2.394  11.563  0.00  0.00    +0.000 OA
ATOM     10  H   UNL     1      44.116   1.390   9.604  0.00  0.00    +0.000 HD
ATOM     11  H   UNL     1      45.435   2.554   9.609  0.00  0.00    +0.000 HD
ENDBRANCH   1   8
BRANCH   4  12
ATOM     12  C   UNL     1      46.853   7.339  13.155  0.00  0.00    +0.000 C 
BRANCH  12  13
ATOM     13  C   UNL     1      48.305   7.138  13.530  0.00  0.00    +0.000 C 
ATOM     14  C   UNL     1      49.446   7.560  12.618  0.00  0.00    +0.000 C 
ATOM     15  O   UNL     1      49.036   6.189  12.733  0.00  0.00    +0.000 OA
BRANCH  13  16
ATOM     16  C   UNL     1      48.580   7.117  15.024  0.00  0.00    +0.000 A 
ATOM     17  C   UNL     1      48.590   8.298  15.770  0.00  0.00    +0.000 A 
ATOM     18  C   UNL     1      48.771   8.248  17.150  0.00  0.00    +0.000 A 
ATOM     19  C   UNL     1      48.950   7.017  17.764  0.00  0.00    +0.000 A 
ATOM     20  C   UNL     1      48.961   5.890  16.963  0.00  0.00    +0.000 A 
ATOM     21  N   UNL     1      48.788   5.913  15.623  0.00  0.00    +0.000 NA
ENDBRANCH  13  16
ENDBRANCH  12  13
ENDBRANCH   4  12
TORSDOF 4
ENDMDL
MODEL 7
REMARK VINA RESULT:    -5.144      3.703      6.031
REMARK INTER + INTRA:          -6.741
REMARK INTER:                  -6.356
REMARK INTRA:                  -0.385
REMARK UNBOUND:                -0.395
REMARK  Name = 
REMARK  4 active torsions:
REMARK  status: ('A' for Active; 'I' for Inactive)
REMARK    1  A    between atoms: C_2  and  C_4
REMARK    2  A    between atoms: C_7  and  C_8
REMARK    3  A    between atoms: C_8  and  C_9
REMARK    4  A    between atoms: C_9  and  C_10
REMARK                            x       y       z     vdW  Elec       q    Type
REMARK                         _______ _______ _______ _____ _____    ______ ____
ROOT
ATOM      1  C   UNL     1      44.604   4.898  12.000  0.00  0.00    +0.000 A 
ATOM      2  N   UNL     1      45.093   5.795  11.110  0.00  0.00    +0.000 NA
ATOM      3  C   UNL     1      46.316   6.293  11.394  0.00  0.00    +0.000 A 
ATOM      4  C   UNL     1      47.046   5.971  12.525  0.00  0.00    +0.000 A 
ATOM      5  C   UNL     1      46.442   5.022  13.334  0.00  0.00    +0.000 A 
ATOM      6  N   UNL     1      45.236   4.474  13.108  0.00  0.00    +0.000 NA
ENDROOT
BRANCH   1   8
ATOM      7  N   UNL     1      42.191   5.212  11.787  0.00  0.00    +0.000 N 
ATOM      8  C   UNL     1      43.242   4.328  11.704  0.00  0.00    +0.000 C 
ATOM      9  O   UNL     1      43.037   3.155  11.399  0.00  0.00    +0.000 OA
ATOM     10  H   UNL     1      41.260   4.889  11.570  0.00  0.00    +0.000 HD
ATOM     11  H   UNL     1      42.365   6.186  12.004  0.00  0.00    +0.000 HD
ENDBRANCH   1   8
BRANCH   4  12
ATOM     12  C   UNL     1      48.440   6.433  12.865  0.00  0.00    +0.000 C 
BRANCH  12  13
ATOM     13  C   UNL     1      48.670   7.750  13.575  0.00  0.00    +0.000 C 
ATOM     14  C   UNL     1      49.644   7.889  14.734  0.00  0.00    +0.000 C 
ATOM     15  O   UNL     1      48.225   7.815  14.941  0.00  0.00    +0.000 OA
BRANCH  13  16
ATOM     16  C   UNL     1      48.420   8.984  12.725  0.00  0.00    +0.000 A 
ATOM     17  C   UNL     1      49.383   9.444  11.823  0.00  0.00    +0.000 A 
ATOM     18  C   UNL     1      49.103  10.533  11.002  0.00  0.00    +0.000 A 
ATOM     19  C   UNL     1      47.867  11.154  11.101  0.00  0.00    +0.000 A 
ATOM     20  C   UNL     1      46.972  10.670  12.037  0.00  0.00    +0.000 A 
ATOM     21  N   UNL     1      47.221   9.615  12.845  0.00  0.00    +0.000 NA
ENDBRANCH  13  16
ENDBRANCH  12  13
ENDBRANCH   4  12
TORSDOF 4
ENDMDL
MODEL 8
REMARK VINA RESULT:    -5.068      4.011      6.104
REMARK INTER + INTRA:          -6.648
REMARK INTER:                  -6.474
REMARK INTRA:                  -0.174
REMARK UNBOUND:                -0.395
REMARK  Name = 
REMARK  4 active torsions:
REMARK  status: ('A' for Active; 'I' for Inactive)
REMARK    1  A    between atoms: C_2  and  C_4
REMARK    2  A    between atoms: C_7  and  C_8
REMARK    3  A    between atoms: C_8  and  C_9
REMARK    4  A    between atoms: C_9  and  C_10
REMARK                            x       y       z     vdW  Elec       q    Type
REMARK                         _______ _______ _______ _____ _____    ______ ____
ROOT
ATOM      1  C   UNL     1      44.554   5.437  12.059  0.00  0.00    +0.000 A 
ATOM      2  N   UNL     1      44.914   6.686  11.678  0.00  0.00    +0.000 NA
ATOM      3  C   UNL     1      46.156   7.074  12.041  0.00  0.00    +0.000 A 
ATOM      4  C   UNL     1      47.028   6.300  12.787  0.00  0.00    +0.000 A 
ATOM      5  C   UNL     1      46.544   5.035  13.084  0.00  0.00    +0.000 A 
ATOM      6  N   UNL     1      45.327   4.578  12.745  0.00  0.00    +0.000 NA
ENDROOT
BRANCH   1   8
ATOM      7  N   UNL     1      42.182   5.933  11.751  0.00  0.00    +0.000 N 
ATOM      8  C   UNL     1      43.174   4.983  11.664  0.00  0.00    +0.000 C 
ATOM      9  O   UNL     1      42.906   3.847  11.279  0.00  0.00    +0.000 OA
ATOM     10  H   UNL     1      41.244   5.690  11.470  0.00  0.00    +0.000 HD
ATOM     11  H   UNL     1      42.411   6.879  12.034  0.00  0.00    +0.000 HD
ENDBRANCH   1   8
BRANCH   4  12
ATOM     12  C   UNL     1      48.447   6.641  13.163  0.00  0.00    +0.000 C 
BRANCH  12  13
ATOM     13  C   UNL     1      48.754   7.373  14.452  0.00  0.00    +0.000 C 
ATOM     14  C   UNL     1      48.122   8.714  14.794  0.00  0.00    +0.000 C 
ATOM     15  O   UNL     1      49.472   8.612  14.316  0.00  0.00    +0.000 OA
BRANCH  13  16
ATOM     16  C   UNL     1      49.163   6.481  15.611  0.00  0.00    +0.000 A 
ATOM     17  C   UNL     1      48.235   5.642  16.235  0.00  0.00    +0.000 A 
ATOM     18  C   UNL     1      48.648   4.779  17.246  0.00  0.00    +0.000 A 
ATOM     19  C   UNL     1      49.981   4.773  17.627  0.00  0.00    +0.000 A 
ATOM     20  C   UNL     1      50.841   5.650  16.992  0.00  0.00    +0.000 A 
ATOM     21  N   UNL     1      50.463   6.498  16.008  0.00  0.00    +0.000 NA
ENDBRANCH  13  16
ENDBRANCH  12  13
ENDBRANCH   4  12
TORSDOF 4
ENDMDL
