MODEL 1
REMARK VINA RESULT:    -7.533      0.000      0.000
REMARK INTER + INTRA:         -11.837
REMARK INTER:                 -10.616
REMARK INTRA:                  -1.221
REMARK UNBOUND:                -1.221
REMARK  Name = 
REMARK  10 active torsions:
REMARK  status: ('A' for Active; 'I' for Inactive)
REMARK    1  A    between atoms: C_1  and  C_2
REMARK    2  A    between atoms: C_5  and  C_6
REMARK    3  A    between atoms: C_10  and  C_11
REMARK    4  A    between atoms: C_11  and  C_12
REMARK    5  A    between atoms: C_11  and  C_13
REMARK    6  A    between atoms: C_11  and  C_14
REMARK    7  A    between atoms: C_14  and  N_15
REMARK    8  A    between atoms: N_15  and  C_16
REMARK    9  A    between atoms: C_19  and  C_20
REMARK   10  A    between atoms: C_21  and  C_22
REMARK                            x       y       z     vdW  Elec       q    Type
REMARK                         _______ _______ _______ _____ _____    ______ ____
ROOT
ATOM      1  C   UNL     1      44.026   5.956  11.887  0.00  0.00    +0.000 C 
ATOM      2  C   UNL     1      43.108   6.855  11.029  0.00  0.00    +0.000 C 
ATOM      3  C   UNL     1      43.484   5.852  13.330  0.00  0.00    +0.000 C 
ENDROOT
BRANCH   1   8
ATOM      4  C   UNL     1      44.796   3.081   9.634  0.00  0.00    +0.000 A 
ATOM      5  C   UNL     1      44.043   2.073  10.230  0.00  0.00    +0.000 A 
ATOM      6  N   UNL     1      43.290   2.257  11.336  0.00  0.00    +0.000 NA
ATOM      7  C   UNL     1      43.310   3.511  11.832  0.00  0.00    +0.000 A 
ATOM      8  C   UNL     1      44.056   4.551  11.273  0.00  0.00    +0.000 A 
ATOM      9  N   UNL     1      44.815   4.333  10.167  0.00  0.00    +0.000 NA
BRANCH   4  14
ATOM     10  C   UNL     1      48.161   2.204   4.987  0.00  0.00    +0.000 C 
ATOM     11  C   UNL     1      47.258   2.415   6.165  0.00  0.00    +0.000 A 
ATOM     12  C   UNL     1      47.024   1.384   7.075  0.00  0.00    +0.000 A 
ATOM     13  C   UNL     1      46.206   1.598   8.184  0.00  0.00    +0.000 A 
ATOM     14  C   UNL     1      45.603   2.846   8.425  0.00  0.00    +0.000 A 
ATOM     15  C   UNL     1      45.822   3.863   7.484  0.00  0.00    +0.000 A 
ATOM     16  C   UNL     1      46.644   3.654   6.370  0.00  0.00    +0.000 A 
ENDBRANCH   4  14
ENDBRANCH   1   8
BRANCH   1  17
ATOM     17  C   UNL     1      45.456   6.573  11.909  0.00  0.00    +0.000 C 
BRANCH  17  18
ATOM     18  N   UNL     1      46.497   5.559  12.097  0.00  0.00    +0.000 N 
ATOM     19  H   UNL     1      47.032   5.267  11.288  0.00  0.00    +0.000 HD
BRANCH  18  20
ATOM     20  C   UNL     1      47.046   5.264  13.334  0.00  0.00    +0.000 A 
ATOM     21  C   UNL     1      47.685   6.193  14.144  0.00  0.00    +0.000 A 
ATOM     22  C   UNL     1      48.127   5.840  15.425  0.00  0.00    +0.000 A 
ATOM     23  C   UNL     1      47.908   4.546  15.883  0.00  0.00    +0.000 A 
ATOM     24  N   UNL     1      47.301   3.612  15.120  0.00  0.00    +0.000 NA
ATOM     25  C   UNL     1      46.887   3.993  13.890  0.00  0.00    +0.000 A 
BRANCH  23  26
ATOM     26  C   UNL     1      48.313   4.119  17.234  0.00  0.00    +0.000 C 
ATOM     27  C   UNL     1      48.266   4.946  18.291  0.00  0.00    +0.000 C 
BRANCH  27  28
ATOM     28  C   UNL     1      48.677   4.510  19.642  0.00  0.00    +0.000 C 
ATOM     29  N   UNL     1      48.320   3.229  19.944  0.00  0.00    +0.000 N 
ATOM     30  O   UNL     1      49.283   5.218  20.433  0.00  0.00    +0.000 OA
ATOM     31  H   UNL     1      47.819   2.612  19.323  0.00  0.00    +0.000 HD
ATOM     32  H   UNL     1      48.580   2.882  20.859  0.00  0.00    +0.000 HD
ENDBRANCH  27  28
ENDBRANCH  23  26
ENDBRANCH  18  20
ENDBRANCH  17  18
ENDBRANCH   1  17
TORSDOF 7
ENDMDL
MODEL 2
REMARK VINA RESULT:    -6.897      3.660      4.857
REMARK INTER + INTRA:         -10.941
REMARK INTER:                 -10.114
REMARK INTRA:                  -0.827
REMARK UNBOUND:                -1.221
REMARK  Name = 
REMARK  10 active torsions:
REMARK  status: ('A' for Active; 'I' for Inactive)
REMARK    1  A    between atoms: C_1  and  C_2
REMARK    2  A    between atoms: C_5  and  C_6
REMARK    3  A    between atoms: C_10  and  C_11
REMARK    4  A    between atoms: C_11  and  C_12
REMARK    5  A    between atoms: C_11  and  C_13
REMARK    6  A    between atoms: C_11  and  C_14
REMARK    7  A    between atoms: C_14  and  N_15
REMARK    8  A    between atoms: N_15  and  C_16
REMARK    9  A    between atoms: C_19  and  C_20
REMARK   10  A    between atoms: C_21  and  C_22
REMARK                            x       y       z     vdW  Elec       q    Type
REMARK                         _______ _______ _______ _____ _____    ______ ____
ROOT
ATOM      1  C   UNL     1      44.135   5.623  12.246  0.00  0.00    +0.000 C 
ATOM      2  C   UNL     1      44.261   6.761  11.210  0.00  0.00    +0.000 C 
ATOM      3  C   UNL     1      42.819   5.763  13.043  0.00  0.00    +0.000 C 
ENDROOT
BRANCH   1   8
ATOM      4  C   UNL     1      44.848   2.927   9.764  0.00  0.00    +0.000 A 
ATOM      5  C   UNL     1      44.020   1.911  10.237  0.00  0.00    +0.000 A 
ATOM      6  N   UNL     1      43.233   2.035  11.327  0.00  0.00    +0.000 NA
ATOM      7  C   UNL     1      43.297   3.236  11.938  0.00  0.00    +0.000 A 
ATOM      8  C   UNL     1      44.117   4.280  11.506  0.00  0.00    +0.000 A 
ATOM      9  N   UNL     1      44.909   4.122  10.412  0.00  0.00    +0.000 NA
BRANCH   4  14
ATOM     10  C   UNL     1      47.984   2.234   4.931  0.00  0.00    +0.000 C 
ATOM     11  C   UNL     1      47.210   2.425   6.200  0.00  0.00    +0.000 A 
ATOM     12  C   UNL     1      46.696   3.677   6.538  0.00  0.00    +0.000 A 
ATOM     13  C   UNL     1      45.952   3.840   7.706  0.00  0.00    +0.000 A 
ATOM     14  C   UNL     1      45.691   2.759   8.569  0.00  0.00    +0.000 A 
ATOM     15  C   UNL     1      46.241   1.513   8.232  0.00  0.00    +0.000 A 
ATOM     16  C   UNL     1      46.987   1.345   7.060  0.00  0.00    +0.000 A 
ENDBRANCH   4  14
ENDBRANCH   1   8
BRANCH   1  17
ATOM     17  C   UNL     1      45.346   5.693  13.223  0.00  0.00    +0.000 C 
BRANCH  17  18
ATOM     18  N   UNL     1      45.930   7.034  13.290  0.00  0.00    +0.000 N 
ATOM     19  H   UNL     1      45.587   7.670  14.001  0.00  0.00    +0.000 HD
BRANCH  18  20
ATOM     20  C   UNL     1      47.151   7.354  12.719  0.00  0.00    +0.000 A 
ATOM     21  C   UNL     1      47.435   8.577  12.127  0.00  0.00    +0.000 A 
ATOM     22  C   UNL     1      48.724   8.862  11.659  0.00  0.00    +0.000 A 
ATOM     23  C   UNL     1      49.723   7.906  11.807  0.00  0.00    +0.000 A 
ATOM     24  N   UNL     1      49.481   6.702  12.367  0.00  0.00    +0.000 NA
ATOM     25  C   UNL     1      48.224   6.466  12.807  0.00  0.00    +0.000 A 
BRANCH  23  26
ATOM     26  C   UNL     1      51.109   8.154  11.372  0.00  0.00    +0.000 C 
ATOM     27  C   UNL     1      51.707   7.415  10.423  0.00  0.00    +0.000 C 
BRANCH  27  28
ATOM     28  C   UNL     1      53.098   7.670   9.996  0.00  0.00    +0.000 C 
ATOM     29  N   UNL     1      53.999   7.686  11.019  0.00  0.00    +0.000 N 
ATOM     30  O   UNL     1      53.433   7.852   8.835  0.00  0.00    +0.000 OA
ATOM     31  H   UNL     1      53.766   7.541  11.990  0.00  0.00    +0.000 HD
ATOM     32  H   UNL     1      54.967   7.855  10.778  0.00  0.00    +0.000 HD
ENDBRANCH  27  28
ENDBRANCH  23  26
ENDBRANCH  18  20
ENDBRANCH  17  18
ENDBRANCH   1  17
TORSDOF 7
ENDMDL
MODEL 3
REMARK VINA RESULT:    -6.841      1.826      2.162
REMARK INTER + INTRA:         -10.861
REMARK INTER:                 -10.105
REMARK INTRA:                  -0.756
REMARK UNBOUND:                -1.221
REMARK  Name = 
REMARK  10 active torsions:
REMARK  status: ('A' for Active; 'I' for Inactive)
REMARK    1  A    between atoms: C_1  and  C_2
REMARK    2  A    between atoms: C_5  and  C_6
REMARK    3  A    between atoms: C_10  and  C_11
REMARK    4  A    between atoms: C_11  and  C_12
REMARK    5  A    between atoms: C_11  and  C_13
REMARK    6  A    between atoms: C_11  and  C_14
REMARK    7  A    between atoms: C_14  and  N_15
REMARK    8  A    between atoms: N_15  and  C_16
REMARK    9  A    between atoms: C_19  and  C_20
REMARK   10  A    between atoms: C_21  and  C_22
REMARK                            x       y       z     vdW  Elec       q    Type
REMARK                         _______ _______ _______ _____ _____    ______ ____
ROOT
ATOM      1  C   UNL     1      44.544   5.417  12.480  0.00  0.00    +0.000 C 
ATOM      2  C   UNL     1      45.174   6.530  11.613  0.00  0.00    +0.000 C 
ATOM      3  C   UNL     1      43.164   5.863  13.011  0.00  0.00    +0.000 C 
ENDROOT
BRANCH   1   8
ATOM      4  C   UNL     1      44.911   2.898   9.749  0.00  0.00    +0.000 A 
ATOM      5  C   UNL     1      43.956   1.959  10.131  0.00  0.00    +0.000 A 
ATOM      6  N   UNL     1      43.187   2.080  11.235  0.00  0.00    +0.000 NA
ATOM      7  C   UNL     1      43.404   3.199  11.956  0.00  0.00    +0.000 A 
ATOM      8  C   UNL     1      44.355   4.164  11.617  0.00  0.00    +0.000 A 
ATOM      9  N   UNL     1      45.124   4.009  10.506  0.00  0.00    +0.000 NA
BRANCH   4  14
ATOM     10  C   UNL     1      47.949   2.230   4.850  0.00  0.00    +0.000 C 
ATOM     11  C   UNL     1      47.201   2.414   6.136  0.00  0.00    +0.000 A 
ATOM     12  C   UNL     1      46.699   3.666   6.494  0.00  0.00    +0.000 A 
ATOM     13  C   UNL     1      45.979   3.823   7.678  0.00  0.00    +0.000 A 
ATOM     14  C   UNL     1      45.729   2.737   8.536  0.00  0.00    +0.000 A 
ATOM     15  C   UNL     1      46.267   1.491   8.179  0.00  0.00    +0.000 A 
ATOM     16  C   UNL     1      46.989   1.329   6.991  0.00  0.00    +0.000 A 
ENDBRANCH   4  14
ENDBRANCH   1   8
BRANCH   1  17
ATOM     17  C   UNL     1      45.492   5.117  13.679  0.00  0.00    +0.000 C 
BRANCH  17  18
ATOM     18  N   UNL     1      46.592   6.079  13.775  0.00  0.00    +0.000 N 
ATOM     19  H   UNL     1      46.449   7.008  13.396  0.00  0.00    +0.000 HD
BRANCH  18  20
ATOM     20  C   UNL     1      47.644   5.936  14.664  0.00  0.00    +0.000 A 
ATOM     21  C   UNL     1      48.666   6.863  14.816  0.00  0.00    +0.000 A 
ATOM     22  C   UNL     1      49.642   6.695  15.806  0.00  0.00    +0.000 A 
ATOM     23  C   UNL     1      49.567   5.590  16.648  0.00  0.00    +0.000 A 
ATOM     24  N   UNL     1      48.595   4.662  16.523  0.00  0.00    +0.000 NA
ATOM     25  C   UNL     1      47.671   4.862  15.556  0.00  0.00    +0.000 A 
BRANCH  23  26
ATOM     26  C   UNL     1      50.538   5.373  17.735  0.00  0.00    +0.000 C 
ATOM     27  C   UNL     1      51.750   4.836  17.517  0.00  0.00    +0.000 C 
BRANCH  27  28
ATOM     28  C   UNL     1      52.716   4.619  18.614  0.00  0.00    +0.000 C 
ATOM     29  N   UNL     1      52.524   3.457  19.301  0.00  0.00    +0.000 N 
ATOM     30  O   UNL     1      53.614   5.398  18.896  0.00  0.00    +0.000 OA
ATOM     31  H   UNL     1      51.796   2.787  19.103  0.00  0.00    +0.000 HD
ATOM     32  H   UNL     1      53.162   3.261  20.063  0.00  0.00    +0.000 HD
ENDBRANCH  27  28
ENDBRANCH  23  26
ENDBRANCH  18  20
ENDBRANCH  17  18
ENDBRANCH   1  17
TORSDOF 7
ENDMDL
MODEL 4
REMARK VINA RESULT:    -6.406      3.637      8.868
REMARK INTER + INTRA:         -10.248
REMARK INTER:                  -8.834
REMARK INTRA:                  -1.415
REMARK UNBOUND:                -1.221
REMARK  Name = 
REMARK  10 active torsions:
REMARK  status: ('A' for Active; 'I' for Inactive)
REMARK    1  A    between atoms: C_1  and  C_2
REMARK    2  A    between atoms: C_5  and  C_6
REMARK    3  A    between atoms: C_10  and  C_11
REMARK    4  A    between atoms: C_11  and  C_12
REMARK    5  A    between atoms: C_11  and  C_13
REMARK    6  A    between atoms: C_11  and  C_14
REMARK    7  A    between atoms: C_14  and  N_15
REMARK    8  A    between atoms: N_15  and  C_16
REMARK    9  A    between atoms: C_19  and  C_20
REMARK   10  A    between atoms: C_21  and  C_22
REMARK                            x       y       z     vdW  Elec       q    Type
REMARK                         _______ _______ _______ _____ _____    ______ ____
ROOT
ATOM      1  C   UNL     1      49.100   8.710  17.337  0.00  0.00    +0.000 C 
ATOM      2  C   UNL     1      48.264   9.768  18.089  0.00  0.00    +0.000 C 
ATOM      3  C   UNL     1      50.609   9.000  17.499  0.00  0.00    +0.000 C 
ENDROOT
BRANCH   1   8
ATOM      4  C   UNL     1      49.370   5.096  18.233  0.00  0.00    +0.000 A 
ATOM      5  C   UNL     1      48.205   4.924  18.978  0.00  0.00    +0.000 A 
ATOM      6  N   UNL     1      47.321   5.915  19.222  0.00  0.00    +0.000 NA
ATOM      7  C   UNL     1      47.642   7.107  18.678  0.00  0.00    +0.000 A 
ATOM      8  C   UNL     1      48.801   7.329  17.931  0.00  0.00    +0.000 A 
ATOM      9  N   UNL     1      49.681   6.315  17.713  0.00  0.00    +0.000 NA
BRANCH   4  14
ATOM     10  C   UNL     1      53.019   0.653  17.444  0.00  0.00    +0.000 C 
ATOM     11  C   UNL     1      52.085   1.813  17.607  0.00  0.00    +0.000 A 
ATOM     12  C   UNL     1      50.747   1.709  17.225  0.00  0.00    +0.000 A 
ATOM     13  C   UNL     1      49.877   2.783  17.407  0.00  0.00    +0.000 A 
ATOM     14  C   UNL     1      50.311   3.992  17.983  0.00  0.00    +0.000 A 
ATOM     15  C   UNL     1      51.666   4.093  18.333  0.00  0.00    +0.000 A 
ATOM     16  C   UNL     1      52.541   3.016  18.154  0.00  0.00    +0.000 A 
ENDBRANCH   4  14
ENDBRANCH   1   8
BRANCH   1  17
ATOM     17  C   UNL     1      48.721   8.748  15.826  0.00  0.00    +0.000 C 
BRANCH  17  18
ATOM     18  N   UNL     1      49.108   7.523  15.124  0.00  0.00    +0.000 N 
ATOM     19  H   UNL     1      49.973   7.070  15.394  0.00  0.00    +0.000 HD
BRANCH  18  20
ATOM     20  C   UNL     1      48.211   6.751  14.404  0.00  0.00    +0.000 A 
ATOM     21  C   UNL     1      47.728   5.521  14.829  0.00  0.00    +0.000 A 
ATOM     22  C   UNL     1      46.747   4.845  14.092  0.00  0.00    +0.000 A 
ATOM     23  C   UNL     1      46.251   5.430  12.932  0.00  0.00    +0.000 A 
ATOM     24  N   UNL     1      46.704   6.619  12.482  0.00  0.00    +0.000 NA
ATOM     25  C   UNL     1      47.650   7.240  13.222  0.00  0.00    +0.000 A 
BRANCH  23  26
ATOM     26  C   UNL     1      45.191   4.792  12.131  0.00  0.00    +0.000 C 
ATOM     27  C   UNL     1      45.186   3.474  11.868  0.00  0.00    +0.000 C 
BRANCH  27  28
ATOM     28  C   UNL     1      44.121   2.844  11.061  0.00  0.00    +0.000 C 
ATOM     29  N   UNL     1      44.566   2.259   9.913  0.00  0.00    +0.000 N 
ATOM     30  O   UNL     1      42.940   2.836  11.376  0.00  0.00    +0.000 OA
ATOM     31  H   UNL     1      45.530   2.243   9.614  0.00  0.00    +0.000 HD
ATOM     32  H   UNL     1      43.875   1.812   9.325  0.00  0.00    +0.000 HD
ENDBRANCH  27  28
ENDBRANCH  23  26
ENDBRANCH  18  20
ENDBRANCH  17  18
ENDBRANCH   1  17
TORSDOF 7
ENDMDL
MODEL 5
REMARK VINA RESULT:    -6.267      2.792      3.287
REMARK INTER + INTRA:         -10.053
REMARK INTER:                  -9.144
REMARK INTRA:                  -0.908
REMARK UNBOUND:                -1.221
REMARK  Name = 
REMARK  10 active torsions:
REMARK  status: ('A' for Active; 'I' for Inactive)
REMARK    1  A    between atoms: C_1  and  C_2
REMARK    2  A    between atoms: C_5  and  C_6
REMARK    3  A    between atoms: C_10  and  C_11
REMARK    4  A    between atoms: C_11  and  C_12
REMARK    5  A    between atoms: C_11  and  C_13
REMARK    6  A    between atoms: C_11  and  C_14
REMARK    7  A    between atoms: C_14  and  N_15
REMARK    8  A    between atoms: N_15  and  C_16
REMARK    9  A    between atoms: C_19  and  C_20
REMARK   10  A    between atoms: C_21  and  C_22
REMARK                            x       y       z     vdW  Elec       q    Type
REMARK                         _______ _______ _______ _____ _____    ______ ____
ROOT
ATOM      1  C   UNL     1      44.411   5.530  12.349  0.00  0.00    +0.000 C 
ATOM      2  C   UNL     1      44.596   6.715  11.375  0.00  0.00    +0.000 C 
ATOM      3  C   UNL     1      43.135   5.724  13.197  0.00  0.00    +0.000 C 
ENDROOT
BRANCH   1   8
ATOM      4  C   UNL     1      44.868   2.921   9.718  0.00  0.00    +0.000 A 
ATOM      5  C   UNL     1      43.944   1.966  10.135  0.00  0.00    +0.000 A 
ATOM      6  N   UNL     1      43.169   2.104  11.232  0.00  0.00    +0.000 NA
ATOM      7  C   UNL     1      43.347   3.257  11.909  0.00  0.00    +0.000 A 
ATOM      8  C   UNL     1      44.266   4.239  11.534  0.00  0.00    +0.000 A 
ATOM      9  N   UNL     1      45.042   4.067  10.431  0.00  0.00    +0.000 NA
BRANCH   4  14
ATOM     10  C   UNL     1      47.937   2.171   4.850  0.00  0.00    +0.000 C 
ATOM     11  C   UNL     1      47.180   2.377   6.127  0.00  0.00    +0.000 A 
ATOM     12  C   UNL     1      46.662   3.631   6.452  0.00  0.00    +0.000 A 
ATOM     13  C   UNL     1      45.934   3.808   7.629  0.00  0.00    +0.000 A 
ATOM     14  C   UNL     1      45.694   2.740   8.513  0.00  0.00    +0.000 A 
ATOM     15  C   UNL     1      46.249   1.493   8.189  0.00  0.00    +0.000 A 
ATOM     16  C   UNL     1      46.978   1.311   7.008  0.00  0.00    +0.000 A 
ENDBRANCH   4  14
ENDBRANCH   1   8
BRANCH   1  17
ATOM     17  C   UNL     1      45.653   5.449  13.285  0.00  0.00    +0.000 C 
BRANCH  17  18
ATOM     18  N   UNL     1      46.844   6.054  12.685  0.00  0.00    +0.000 N 
ATOM     19  H   UNL     1      46.785   6.377  11.726  0.00  0.00    +0.000 HD
BRANCH  18  20
ATOM     20  C   UNL     1      47.896   6.552  13.435  0.00  0.00    +0.000 A 
ATOM     21  C   UNL     1      48.018   6.389  14.808  0.00  0.00    +0.000 A 
ATOM     22  C   UNL     1      49.161   6.837  15.482  0.00  0.00    +0.000 A 
ATOM     23  C   UNL     1      50.182   7.438  14.755  0.00  0.00    +0.000 A 
ATOM     24  N   UNL     1      50.094   7.624  13.421  0.00  0.00    +0.000 NA
ATOM     25  C   UNL     1      48.976   7.177  12.807  0.00  0.00    +0.000 A 
BRANCH  23  26
ATOM     26  C   UNL     1      51.428   7.897  15.395  0.00  0.00    +0.000 C 
ATOM     27  C   UNL     1      51.458   8.944  16.236  0.00  0.00    +0.000 C 
BRANCH  27  28
ATOM     28  C   UNL     1      52.712   9.399  16.871  0.00  0.00    +0.000 C 
ATOM     29  N   UNL     1      53.183   8.558  17.836  0.00  0.00    +0.000 N 
ATOM     30  O   UNL     1      53.292  10.433  16.574  0.00  0.00    +0.000 OA
ATOM     31  H   UNL     1      52.736   7.697  18.113  0.00  0.00    +0.000 HD
ATOM     32  H   UNL     1      54.041   8.825  18.301  0.00  0.00    +0.000 HD
ENDBRANCH  27  28
ENDBRANCH  23  26
ENDBRANCH  18  20
ENDBRANCH  17  18
ENDBRANCH   1  17
TORSDOF 7
ENDMDL
MODEL 6
REMARK VINA RESULT:    -6.209      3.784      8.797
REMARK INTER + INTRA:          -9.971
REMARK INTER:                  -8.494
REMARK INTRA:                  -1.477
REMARK UNBOUND:                -1.221
REMARK  Name = 
REMARK  10 active torsions:
REMARK  status: ('A' for Active; 'I' for Inactive)
REMARK    1  A    between atoms: C_1  and  C_2
REMARK    2  A    between atoms: C_5  and  C_6
REMARK    3  A    between atoms: C_10  and  C_11
REMARK    4  A    between atoms: C_11  and  C_12
REMARK    5  A    between atoms: C_11  and  C_13
REMARK    6  A    between atoms: C_11  and  C_14
REMARK    7  A    between atoms: C_14  and  N_15
REMARK    8  A    between atoms: N_15  and  C_16
REMARK    9  A    between atoms: C_19  and  C_20
REMARK   10  A    between atoms: C_21  and  C_22
REMARK                            x       y       z     vdW  Elec       q    Type
REMARK                         _______ _______ _______ _____ _____    ______ ____
ROOT
ATOM      1  C   UNL     1      49.469   9.785  15.938  0.00  0.00    +0.000 C 
ATOM      2  C   UNL     1      49.023  11.174  16.444  0.00  0.00    +0.000 C 
ATOM      3  C   UNL     1      51.010   9.706  15.866  0.00  0.00    +0.000 C 
ENDROOT
BRANCH   1   8
ATOM      4  C   UNL     1      49.043   6.548  17.749  0.00  0.00    +0.000 A 
ATOM      5  C   UNL     1      48.034   6.883  18.649  0.00  0.00    +0.000 A 
ATOM      6  N   UNL     1      47.472   8.109  18.718  0.00  0.00    +0.000 NA
ATOM      7  C   UNL     1      47.956   9.005  17.834  0.00  0.00    +0.000 A 
ATOM      8  C   UNL     1      48.971   8.717  16.920  0.00  0.00    +0.000 A 
ATOM      9  N   UNL     1      49.528   7.477  16.881  0.00  0.00    +0.000 NA
BRANCH   4  14
ATOM     10  C   UNL     1      51.403   1.263  17.328  0.00  0.00    +0.000 C 
ATOM     11  C   UNL     1      50.792   2.623  17.480  0.00  0.00    +0.000 A 
ATOM     12  C   UNL     1      51.592   3.739  17.726  0.00  0.00    +0.000 A 
ATOM     13  C   UNL     1      51.018   5.005  17.837  0.00  0.00    +0.000 A 
ATOM     14  C   UNL     1      49.631   5.199  17.697  0.00  0.00    +0.000 A 
ATOM     15  C   UNL     1      48.836   4.064  17.482  0.00  0.00    +0.000 A 
ATOM     16  C   UNL     1      49.408   2.791  17.368  0.00  0.00    +0.000 A 
ENDBRANCH   4  14
ENDBRANCH   1   8
BRANCH   1  17
ATOM     17  C   UNL     1      48.867   9.547  14.521  0.00  0.00    +0.000 C 
BRANCH  17  18
ATOM     18  N   UNL     1      49.268   8.257  13.955  0.00  0.00    +0.000 N 
ATOM     19  H   UNL     1      50.161   7.868  14.235  0.00  0.00    +0.000 HD
BRANCH  18  20
ATOM     20  C   UNL     1      48.368   7.374  13.381  0.00  0.00    +0.000 A 
ATOM     21  C   UNL     1      47.879   6.241  14.016  0.00  0.00    +0.000 A 
ATOM     22  C   UNL     1      46.895   5.450  13.407  0.00  0.00    +0.000 A 
ATOM     23  C   UNL     1      46.405   5.822  12.161  0.00  0.00    +0.000 A 
ATOM     24  N   UNL     1      46.866   6.910  11.508  0.00  0.00    +0.000 NA
ATOM     25  C   UNL     1      47.813   7.648  12.130  0.00  0.00    +0.000 A 
BRANCH  23  26
ATOM     26  C   UNL     1      45.344   5.057  11.482  0.00  0.00    +0.000 C 
ATOM     27  C   UNL     1      45.115   3.760  11.745  0.00  0.00    +0.000 C 
BRANCH  27  28
ATOM     28  C   UNL     1      44.051   3.000  11.057  0.00  0.00    +0.000 C 
ATOM     29  N   UNL     1      44.475   2.328   9.949  0.00  0.00    +0.000 N 
ATOM     30  O   UNL     1      42.888   2.963  11.431  0.00  0.00    +0.000 OA
ATOM     31  H   UNL     1      45.424   2.332   9.605  0.00  0.00    +0.000 HD
ATOM     32  H   UNL     1      43.783   1.791   9.442  0.00  0.00    +0.000 HD
ENDBRANCH  27  28
ENDBRANCH  23  26
ENDBRANCH  18  20
ENDBRANCH  17  18
ENDBRANCH   1  17
TORSDOF 7
ENDMDL
MODEL 7
REMARK VINA RESULT:    -5.913      3.213      5.689
REMARK INTER + INTRA:          -9.554
REMARK INTER:                  -8.266
REMARK INTRA:                  -1.288
REMARK UNBOUND:                -1.221
REMARK  Name = 
REMARK  10 active torsions:
REMARK  status: ('A' for Active; 'I' for Inactive)
REMARK    1  A    between atoms: C_1  and  C_2
REMARK    2  A    between atoms: C_5  and  C_6
REMARK    3  A    between atoms: C_10  and  C_11
REMARK    4  A    between atoms: C_11  and  C_12
REMARK    5  A    between atoms: C_11  and  C_13
REMARK    6  A    between atoms: C_11  and  C_14
REMARK    7  A    between atoms: C_14  and  N_15
REMARK    8  A    between atoms: N_15  and  C_16
REMARK    9  A    between atoms: C_19  and  C_20
REMARK   10  A    between atoms: C_21  and  C_22
REMARK                            x       y       z     vdW  Elec       q    Type
REMARK                         _______ _______ _______ _____ _____    ______ ____
ROOT
ATOM      1  C   UNL     1      45.219   4.454  12.546  0.00  0.00    +0.000 C 
ATOM      2  C   UNL     1      43.791   4.401  13.134  0.00  0.00    +0.000 C 
ATOM      3  C   UNL     1      45.277   3.696  11.201  0.00  0.00    +0.000 C 
ENDROOT
BRANCH   1   8
ATOM      4  C   UNL     1      47.192   7.608  12.229  0.00  0.00    +0.000 A 
ATOM      5  C   UNL     1      46.189   8.509  11.877  0.00  0.00    +0.000 A 
ATOM      6  N   UNL     1      44.893   8.163  11.727  0.00  0.00    +0.000 NA
ATOM      7  C   UNL     1      44.624   6.860  11.952  0.00  0.00    +0.000 A 
ATOM      8  C   UNL     1      45.597   5.919  12.298  0.00  0.00    +0.000 A 
ATOM      9  N   UNL     1      46.897   6.294  12.430  0.00  0.00    +0.000 NA
BRANCH   4  14
ATOM     10  C   UNL     1      52.774   9.029  12.933  0.00  0.00    +0.000 C 
ATOM     11  C   UNL     1      51.326   8.700  12.732  0.00  0.00    +0.000 A 
ATOM     12  C   UNL     1      50.890   8.104  11.547  0.00  0.00    +0.000 A 
ATOM     13  C   UNL     1      49.545   7.775  11.380  0.00  0.00    +0.000 A 
ATOM     14  C   UNL     1      48.596   8.020  12.389  0.00  0.00    +0.000 A 
ATOM     15  C   UNL     1      49.043   8.649  13.561  0.00  0.00    +0.000 A 
ATOM     16  C   UNL     1      50.392   8.979  13.734  0.00  0.00    +0.000 A 
ENDBRANCH   4  14
ENDBRANCH   1   8
BRANCH   1  17
ATOM     17  C   UNL     1      46.206   3.799  13.557  0.00  0.00    +0.000 C 
BRANCH  17  18
ATOM     18  N   UNL     1      46.271   4.530  14.825  0.00  0.00    +0.000 N 
ATOM     19  H   UNL     1      45.416   4.936  15.187  0.00  0.00    +0.000 HD
BRANCH  18  20
ATOM     20  C   UNL     1      47.309   4.380  15.729  0.00  0.00    +0.000 A 
ATOM     21  C   UNL     1      47.524   3.234  16.482  0.00  0.00    +0.000 A 
ATOM     22  C   UNL     1      48.654   3.120  17.303  0.00  0.00    +0.000 A 
ATOM     23  C   UNL     1      49.567   4.168  17.345  0.00  0.00    +0.000 A 
ATOM     24  N   UNL     1      49.385   5.302  16.636  0.00  0.00    +0.000 NA
ATOM     25  C   UNL     1      48.283   5.372  15.855  0.00  0.00    +0.000 A 
BRANCH  23  26
ATOM     26  C   UNL     1      50.795   4.098  18.157  0.00  0.00    +0.000 C 
ATOM     27  C   UNL     1      51.787   3.234  17.884  0.00  0.00    +0.000 C 
BRANCH  27  28
ATOM     28  C   UNL     1      53.013   3.169  18.705  0.00  0.00    +0.000 C 
ATOM     29  N   UNL     1      52.851   3.618  19.982  0.00  0.00    +0.000 N 
ATOM     30  O   UNL     1      54.087   2.753  18.296  0.00  0.00    +0.000 OA
ATOM     31  H   UNL     1      51.984   3.970  20.360  0.00  0.00    +0.000 HD
ATOM     32  H   UNL     1      53.662   3.593  20.586  0.00  0.00    +0.000 HD
ENDBRANCH  27  28
ENDBRANCH  23  26
ENDBRANCH  18  20
ENDBRANCH  17  18
ENDBRANCH   1  17
TORSDOF 7
ENDMDL
MODEL 8
REMARK VINA RESULT:    -5.762      3.966      9.799
REMARK INTER + INTRA:          -9.341
REMARK INTER:                  -8.193
REMARK INTRA:                  -1.148
REMARK UNBOUND:                -1.221
REMARK  Name = 
REMARK  10 active torsions:
REMARK  status: ('A' for Active; 'I' for Inactive)
REMARK    1  A    between atoms: C_1  and  C_2
REMARK    2  A    between atoms: C_5  and  C_6
REMARK    3  A    between atoms: C_10  and  C_11
REMARK    4  A    between atoms: C_11  and  C_12
REMARK    5  A    between atoms: C_11  and  C_13
REMARK    6  A    between atoms: C_11  and  C_14
REMARK    7  A    between atoms: C_14  and  N_15
REMARK    8  A    between atoms: N_15  and  C_16
REMARK    9  A    between atoms: C_19  and  C_20
REMARK   10  A    between atoms: C_21  and  C_22
REMARK                            x       y       z     vdW  Elec       q    Type
REMARK                         _______ _______ _______ _____ _____    ______ ____
ROOT
ATOM      1  C   UNL     1      48.685   7.388  18.459  0.00  0.00    +0.000 C 
ATOM      2  C   UNL     1      47.647   6.307  18.831  0.00  0.00    +0.000 C 
ATOM      3  C   UNL     1      48.353   8.721  19.164  0.00  0.00    +0.000 C 
ENDROOT
BRANCH   1   8
ATOM      4  C   UNL     1      51.711   5.280  19.041  0.00  0.00    +0.000 A 
ATOM      5  C   UNL     1      52.500   6.156  19.784  0.00  0.00    +0.000 A 
ATOM      6  N   UNL     1      52.119   7.409  20.114  0.00  0.00    +0.000 NA
ATOM      7  C   UNL     1      50.893   7.762  19.674  0.00  0.00    +0.000 A 
ATOM      8  C   UNL     1      50.071   6.922  18.920  0.00  0.00    +0.000 A 
ATOM      9  N   UNL     1      50.486   5.670  18.592  0.00  0.00    +0.000 NA
BRANCH   4  14
ATOM     10  C   UNL     1      53.586  -0.003  17.540  0.00  0.00    +0.000 C 
ATOM     11  C   UNL     1      53.084   1.345  17.963  0.00  0.00    +0.000 A 
ATOM     12  C   UNL     1      53.838   2.148  18.821  0.00  0.00    +0.000 A 
ATOM     13  C   UNL     1      53.377   3.412  19.187  0.00  0.00    +0.000 A 
ATOM     14  C   UNL     1      52.156   3.918  18.703  0.00  0.00    +0.000 A 
ATOM     15  C   UNL     1      51.395   3.087  17.868  0.00  0.00    +0.000 A 
ATOM     16  C   UNL     1      51.854   1.818  17.497  0.00  0.00    +0.000 A 
ENDBRANCH   4  14
ENDBRANCH   1   8
BRANCH   1  17
ATOM     17  C   UNL     1      48.665   7.595  16.915  0.00  0.00    +0.000 C 
BRANCH  17  18
ATOM     18  N   UNL     1      48.905   6.350  16.182  0.00  0.00    +0.000 N 
ATOM     19  H   UNL     1      49.556   5.681  16.577  0.00  0.00    +0.000 HD
BRANCH  18  20
ATOM     20  C   UNL     1      48.041   5.865  15.215  0.00  0.00    +0.000 A 
ATOM     21  C   UNL     1      47.876   6.439  13.961  0.00  0.00    +0.000 A 
ATOM     22  C   UNL     1      47.056   5.834  13.001  0.00  0.00    +0.000 A 
ATOM     23  C   UNL     1      46.416   4.640  13.314  0.00  0.00    +0.000 A 
ATOM     24  N   UNL     1      46.542   4.060  14.526  0.00  0.00    +0.000 NA
ATOM     25  C   UNL     1      47.344   4.674  15.425  0.00  0.00    +0.000 A 
BRANCH  23  26
ATOM     26  C   UNL     1      45.570   3.931  12.338  0.00  0.00    +0.000 C 
ATOM     27  C   UNL     1      44.911   4.574  11.360  0.00  0.00    +0.000 C 
BRANCH  27  28
ATOM     28  C   UNL     1      44.063   3.855  10.387  0.00  0.00    +0.000 C 
ATOM     29  N   UNL     1      43.995   4.451   9.162  0.00  0.00    +0.000 N 
ATOM     30  O   UNL     1      43.467   2.818  10.636  0.00  0.00    +0.000 OA
ATOM     31  H   UNL     1      44.468   5.307   8.914  0.00  0.00    +0.000 HD
ATOM     32  H   UNL     1      43.426   3.997   8.459  0.00  0.00    +0.000 HD
ENDBRANCH  27  28
ENDBRANCH  23  26
ENDBRANCH  18  20
ENDBRANCH  17  18
ENDBRANCH   1  17
TORSDOF 7
ENDMDL
MODEL 9
REMARK VINA RESULT:    -5.722      3.936      8.821
REMARK INTER + INTRA:          -9.284
REMARK INTER:                  -8.036
REMARK INTRA:                  -1.249
REMARK UNBOUND:                -1.221
REMARK  Name = 
REMARK  10 active torsions:
REMARK  status: ('A' for Active; 'I' for Inactive)
REMARK    1  A    between atoms: C_1  and  C_2
REMARK    2  A    between atoms: C_5  and  C_6
REMARK    3  A    between atoms: C_10  and  C_11
REMARK    4  A    between atoms: C_11  and  C_12
REMARK    5  A    between atoms: C_11  and  C_13
REMARK    6  A    between atoms: C_11  and  C_14
REMARK    7  A    between atoms: C_14  and  N_15
REMARK    8  A    between atoms: N_15  and  C_16
REMARK    9  A    between atoms: C_19  and  C_20
REMARK   10  A    between atoms: C_21  and  C_22
REMARK                            x       y       z     vdW  Elec       q    Type
REMARK                         _______ _______ _______ _____ _____    ______ ____
ROOT
ATOM      1  C   UNL     1      50.434   9.171  12.023  0.00  0.00    +0.000 C 
ATOM      2  C   UNL     1      51.450  10.159  11.407  0.00  0.00    +0.000 C 
ATOM      3  C   UNL     1      50.580   7.775  11.378  0.00  0.00    +0.000 C 
ENDROOT
BRANCH   1   8
ATOM      4  C   UNL     1      50.577   7.849  15.511  0.00  0.00    +0.000 A 
ATOM      5  C   UNL     1      51.208   8.905  16.165  0.00  0.00    +0.000 A 
ATOM      6  N   UNL     1      51.603  10.038  15.546  0.00  0.00    +0.000 NA
ATOM      7  C   UNL     1      51.336  10.084  14.225  0.00  0.00    +0.000 A 
ATOM      8  C   UNL     1      50.714   9.048  13.525  0.00  0.00    +0.000 A 
ATOM      9  N   UNL     1      50.338   7.913  14.173  0.00  0.00    +0.000 NA
BRANCH   4  14
ATOM     10  C   UNL     1      48.965   2.921  18.118  0.00  0.00    +0.000 C 
ATOM     11  C   UNL     1      49.376   4.215  17.483  0.00  0.00    +0.000 A 
ATOM     12  C   UNL     1      50.707   4.634  17.519  0.00  0.00    +0.000 A 
ATOM     13  C   UNL     1      51.086   5.824  16.900  0.00  0.00    +0.000 A 
ATOM     14  C   UNL     1      50.155   6.629  16.219  0.00  0.00    +0.000 A 
ATOM     15  C   UNL     1      48.816   6.211  16.218  0.00  0.00    +0.000 A 
ATOM     16  C   UNL     1      48.431   5.016  16.836  0.00  0.00    +0.000 A 
ENDBRANCH   4  14
ENDBRANCH   1   8
BRANCH   1  17
ATOM     17  C   UNL     1      48.994   9.711  11.778  0.00  0.00    +0.000 C 
BRANCH  17  18
ATOM     18  N   UNL     1      48.060   9.303  12.829  0.00  0.00    +0.000 N 
ATOM     19  H   UNL     1      47.896   9.943  13.598  0.00  0.00    +0.000 HD
BRANCH  18  20
ATOM     20  C   UNL     1      47.120   8.301  12.655  0.00  0.00    +0.000 A 
ATOM     21  C   UNL     1      45.864   8.501  12.097  0.00  0.00    +0.000 A 
ATOM     22  C   UNL     1      45.006   7.419  11.863  0.00  0.00    +0.000 A 
ATOM     23  C   UNL     1      45.433   6.136  12.186  0.00  0.00    +0.000 A 
ATOM     24  N   UNL     1      46.642   5.904  12.740  0.00  0.00    +0.000 NA
ATOM     25  C   UNL     1      47.441   6.975  12.949  0.00  0.00    +0.000 A 
BRANCH  23  26
ATOM     26  C   UNL     1      44.596   4.951  11.930  0.00  0.00    +0.000 C 
ATOM     27  C   UNL     1      44.893   4.056  10.973  0.00  0.00    +0.000 C 
BRANCH  27  28
ATOM     28  C   UNL     1      44.047   2.871  10.722  0.00  0.00    +0.000 C 
ATOM     29  N   UNL     1      44.490   2.077   9.706  0.00  0.00    +0.000 N 
ATOM     30  O   UNL     1      43.036   2.607  11.356  0.00  0.00    +0.000 OA
ATOM     31  H   UNL     1      45.317   2.258   9.156  0.00  0.00    +0.000 HD
ATOM     32  H   UNL     1      43.945   1.251   9.494  0.00  0.00    +0.000 HD
ENDBRANCH  27  28
ENDBRANCH  23  26
ENDBRANCH  18  20
ENDBRANCH  17  18
ENDBRANCH   1  17
TORSDOF 7
ENDMDL
