MODEL 1
REMARK VINA RESULT:    -8.555      0.000      0.000
REMARK INTER + INTRA:         -13.095
REMARK INTER:                 -12.055
REMARK INTRA:                  -1.040
REMARK UNBOUND:                -1.040
REMARK  Name = 
REMARK  8 active torsions:
REMARK  status: ('A' for Active; 'I' for Inactive)
REMARK    1  A    between atoms: C_1  and  C_2
REMARK    2  A    between atoms: C_5  and  C_6
REMARK    3  A    between atoms: C_6  and  N_7
REMARK    4  A    between atoms: N_7  and  C_8
REMARK    5  A    between atoms: C_8  and  C_9
REMARK    6  A    between atoms: C_12  and  C_13
REMARK    7  A    between atoms: C_13  and  N_14
REMARK    8  A    between atoms: C_15  and  C_17
REMARK                            x       y       z     vdW  Elec       q    Type
REMARK                         _______ _______ _______ _____ _____    ______ ____
ROOT
ATOM      1  C   UNL     1      44.646   5.618  11.759  0.00  0.00    +0.000 A 
ATOM      2  C   UNL     1      45.645   6.368  11.140  0.00  0.00    +0.000 A 
ATOM      3  C   UNL     1      46.850   6.591  11.799  0.00  0.00    +0.000 A 
ATOM      4  C   UNL     1      47.026   6.069  13.077  0.00  0.00    +0.000 A 
ATOM      5  N   UNL     1      46.076   5.319  13.693  0.00  0.00    +0.000 NA
ATOM      6  C   UNL     1      44.917   5.113  13.026  0.00  0.00    +0.000 A 
ENDROOT
BRANCH   1   7
ATOM      7  C   UNL     1      43.316   5.396  11.093  0.00  0.00    +0.000 C 
BRANCH   7   8
ATOM      8  N   UNL     1      43.397   4.585   9.877  0.00  0.00    +0.000 NA
ATOM      9  H   UNL     1      42.450   4.399   9.546  0.00  0.00    +0.000 HD
BRANCH   8  10
ATOM     10  C   UNL     1      44.063   3.298  10.102  0.00  0.00    +0.000 C 
BRANCH  10  15
ATOM     11  C   UNL     1      48.005   2.096   6.084  0.00  0.00    +0.000 C 
ATOM     12  C   UNL     1      46.978   2.458   7.114  0.00  0.00    +0.000 A 
ATOM     13  C   UNL     1      46.563   3.775   7.277  0.00  0.00    +0.000 A 
ATOM     14  C   UNL     1      45.611   4.061   8.250  0.00  0.00    +0.000 A 
ATOM     15  C   UNL     1      45.085   3.032   9.033  0.00  0.00    +0.000 A 
ATOM     16  C   UNL     1      45.566   1.749   8.801  0.00  0.00    +0.000 A 
ATOM     17  N   UNL     1      46.492   1.441   7.865  0.00  0.00    +0.000 NA
ENDBRANCH  10  15
ENDBRANCH   8  10
ENDBRANCH   7   8
ENDBRANCH   1   7
BRANCH   4  18
ATOM     18  C   UNL     1      48.310   6.318  13.828  0.00  0.00    +0.000 C 
BRANCH  18  19
ATOM     19  N   UNL     1      48.096   6.485  15.246  0.00  0.00    +0.000 N 
ATOM     20  C   UNL     1      49.117   6.510  16.155  0.00  0.00    +0.000 C 
ATOM     21  O   UNL     1      50.294   6.395  15.822  0.00  0.00    +0.000 OA
ATOM     22  H   UNL     1      47.141   6.333  15.561  0.00  0.00    +0.000 HD
BRANCH  20  23
ATOM     23  C   UNL     1      48.734   6.753  17.552  0.00  0.00    +0.000 A 
ATOM     24  C   UNL     1      48.388   8.036  17.958  0.00  0.00    +0.000 A 
ATOM     25  S   UNL     1      47.944   8.136  19.602  0.00  0.00    +0.000 S 
ATOM     26  C   UNL     1      48.230   6.474  19.838  0.00  0.00    +0.000 A 
ATOM     27  N   UNL     1      48.059   5.902  21.059  0.00  0.00    +0.000 NA
ATOM     28  C   UNL     1      48.330   4.638  21.098  0.00  0.00    +0.000 A 
ATOM     29  N   UNL     1      48.748   3.897  20.024  0.00  0.00    +0.000 N 
ATOM     30  C   UNL     1      48.890   4.423  18.761  0.00  0.00    +0.000 A 
ATOM     31  O   UNL     1      49.174   3.712  17.806  0.00  0.00    +0.000 OA
ATOM     32  C   UNL     1      48.631   5.847  18.671  0.00  0.00    +0.000 A 
ATOM     33  H   UNL     1      48.919   2.906  20.112  0.00  0.00    +0.000 HD
ENDBRANCH  20  23
ENDBRANCH  18  19
ENDBRANCH   4  18
TORSDOF 7
ENDMDL
MODEL 2
REMARK VINA RESULT:    -8.303      1.271      1.967
REMARK INTER + INTRA:         -12.741
REMARK INTER:                 -11.558
REMARK INTRA:                  -1.183
REMARK UNBOUND:                -1.040
REMARK  Name = 
REMARK  8 active torsions:
REMARK  status: ('A' for Active; 'I' for Inactive)
REMARK    1  A    between atoms: C_1  and  C_2
REMARK    2  A    between atoms: C_5  and  C_6
REMARK    3  A    between atoms: C_6  and  N_7
REMARK    4  A    between atoms: N_7  and  C_8
REMARK    5  A    between atoms: C_8  and  C_9
REMARK    6  A    between atoms: C_12  and  C_13
REMARK    7  A    between atoms: C_13  and  N_14
REMARK    8  A    between atoms: C_15  and  C_17
REMARK                            x       y       z     vdW  Elec       q    Type
REMARK                         _______ _______ _______ _____ _____    ______ ____
ROOT
ATOM      1  C   UNL     1      44.581   5.722  11.827  0.00  0.00    +0.000 A 
ATOM      2  C   UNL     1      45.503   6.592  11.246  0.00  0.00    +0.000 A 
ATOM      3  C   UNL     1      46.687   6.890  11.914  0.00  0.00    +0.000 A 
ATOM      4  C   UNL     1      46.919   6.320  13.162  0.00  0.00    +0.000 A 
ATOM      5  N   UNL     1      46.045   5.455  13.740  0.00  0.00    +0.000 NA
ATOM      6  C   UNL     1      44.906   5.179  13.065  0.00  0.00    +0.000 A 
ENDROOT
BRANCH   1   7
ATOM      7  C   UNL     1      43.272   5.415  11.152  0.00  0.00    +0.000 C 
BRANCH   7   8
ATOM      8  N   UNL     1      43.418   4.660   9.907  0.00  0.00    +0.000 NA
ATOM      9  H   UNL     1      42.490   4.510   9.507  0.00  0.00    +0.000 HD
BRANCH   8  10
ATOM     10  C   UNL     1      44.043   3.350  10.112  0.00  0.00    +0.000 C 
BRANCH  10  15
ATOM     11  C   UNL     1      47.985   2.110   6.106  0.00  0.00    +0.000 C 
ATOM     12  C   UNL     1      46.959   2.482   7.133  0.00  0.00    +0.000 A 
ATOM     13  C   UNL     1      46.567   3.805   7.304  0.00  0.00    +0.000 A 
ATOM     14  C   UNL     1      45.615   4.100   8.275  0.00  0.00    +0.000 A 
ATOM     15  C   UNL     1      45.066   3.074   9.047  0.00  0.00    +0.000 A 
ATOM     16  C   UNL     1      45.526   1.785   8.807  0.00  0.00    +0.000 A 
ATOM     17  N   UNL     1      46.451   1.468   7.874  0.00  0.00    +0.000 NA
ENDBRANCH  10  15
ENDBRANCH   8  10
ENDBRANCH   7   8
ENDBRANCH   1   7
BRANCH   4  18
ATOM     18  C   UNL     1      48.180   6.645  13.923  0.00  0.00    +0.000 C 
BRANCH  18  19
ATOM     19  N   UNL     1      48.043   6.412  15.342  0.00  0.00    +0.000 N 
ATOM     20  C   UNL     1      49.115   6.251  16.176  0.00  0.00    +0.000 C 
ATOM     21  O   UNL     1      50.274   6.298  15.770  0.00  0.00    +0.000 OA
ATOM     22  H   UNL     1      47.117   6.127  15.647  0.00  0.00    +0.000 HD
BRANCH  20  23
ATOM     23  C   UNL     1      48.806   6.088  17.602  0.00  0.00    +0.000 A 
ATOM     24  C   UNL     1      49.022   4.861  18.217  0.00  0.00    +0.000 A 
ATOM     25  S   UNL     1      48.635   4.853  19.878  0.00  0.00    +0.000 S 
ATOM     26  C   UNL     1      48.135   6.480  19.828  0.00  0.00    +0.000 A 
ATOM     27  N   UNL     1      47.656   7.099  20.939  0.00  0.00    +0.000 NA
ATOM     28  C   UNL     1      47.296   8.326  20.751  0.00  0.00    +0.000 A 
ATOM     29  N   UNL     1      47.380   8.989  19.555  0.00  0.00    +0.000 N 
ATOM     30  C   UNL     1      47.900   8.418  18.417  0.00  0.00    +0.000 A 
ATOM     31  O   UNL     1      48.048   9.069  17.391  0.00  0.00    +0.000 OA
ATOM     32  C   UNL     1      48.288   7.028  18.567  0.00  0.00    +0.000 A 
ATOM     33  H   UNL     1      47.107   9.958  19.478  0.00  0.00    +0.000 HD
ENDBRANCH  20  23
ENDBRANCH  18  19
ENDBRANCH   4  18
TORSDOF 7
ENDMDL
MODEL 3
REMARK VINA RESULT:    -8.164      2.660      3.329
REMARK INTER + INTRA:         -12.544
REMARK INTER:                 -11.579
REMARK INTRA:                  -0.965
REMARK UNBOUND:                -1.040
REMARK  Name = 
REMARK  8 active torsions:
REMARK  status: ('A' for Active; 'I' for Inactive)
REMARK    1  A    between atoms: C_1  and  C_2
REMARK    2  A    between atoms: C_5  and  C_6
REMARK    3  A    between atoms: C_6  and  N_7
REMARK    4  A    between atoms: N_7  and  C_8
REMARK    5  A    between atoms: C_8  and  C_9
REMARK    6  A    between atoms: C_12  and  C_13
REMARK    7  A    between atoms: C_13  and  N_14
REMARK    8  A    between atoms: C_15  and  C_17
REMARK                            x       y       z     vdW  Elec       q    Type
REMARK                         _______ _______ _______ _____ _____    ______ ____
ROOT
ATOM      1  C   UNL     1      46.378   4.796  13.159  0.00  0.00    +0.000 A 
ATOM      2  C   UNL     1      46.917   5.996  12.695  0.00  0.00    +0.000 A 
ATOM      3  C   UNL     1      47.816   6.703  13.487  0.00  0.00    +0.000 A 
ATOM      4  C   UNL     1      48.150   6.200  14.741  0.00  0.00    +0.000 A 
ATOM      5  N   UNL     1      47.654   5.024  15.208  0.00  0.00    +0.000 NA
ATOM      6  C   UNL     1      46.787   4.355  14.413  0.00  0.00    +0.000 A 
ENDROOT
BRANCH   1   7
ATOM      7  C   UNL     1      45.370   4.031  12.347  0.00  0.00    +0.000 C 
BRANCH   7   8
ATOM      8  N   UNL     1      44.703   4.841  11.327  0.00  0.00    +0.000 NA
ATOM      9  H   UNL     1      44.010   5.435  11.784  0.00  0.00    +0.000 HD
BRANCH   8  10
ATOM     10  C   UNL     1      44.012   4.025  10.324  0.00  0.00    +0.000 C 
BRANCH  10  15
ATOM     11  C   UNL     1      47.698   2.307   6.251  0.00  0.00    +0.000 C 
ATOM     12  C   UNL     1      46.736   2.706   7.328  0.00  0.00    +0.000 A 
ATOM     13  C   UNL     1      46.138   1.749   8.142  0.00  0.00    +0.000 A 
ATOM     14  C   UNL     1      45.247   2.169   9.124  0.00  0.00    +0.000 A 
ATOM     15  C   UNL     1      44.976   3.529   9.282  0.00  0.00    +0.000 A 
ATOM     16  C   UNL     1      45.616   4.408   8.418  0.00  0.00    +0.000 A 
ATOM     17  N   UNL     1      46.484   4.030   7.453  0.00  0.00    +0.000 NA
ENDBRANCH  10  15
ENDBRANCH   8  10
ENDBRANCH   7   8
ENDBRANCH   1   7
BRANCH   4  18
ATOM     18  C   UNL     1      49.099   6.957  15.634  0.00  0.00    +0.000 C 
BRANCH  18  19
ATOM     19  N   UNL     1      50.119   6.107  16.202  0.00  0.00    +0.000 N 
ATOM     20  C   UNL     1      50.225   5.867  17.544  0.00  0.00    +0.000 C 
ATOM     21  O   UNL     1      49.452   6.360  18.361  0.00  0.00    +0.000 OA
ATOM     22  H   UNL     1      50.900   5.897  15.587  0.00  0.00    +0.000 HD
BRANCH  20  23
ATOM     23  C   UNL     1      51.277   4.927  17.952  0.00  0.00    +0.000 A 
ATOM     24  C   UNL     1      52.401   5.397  18.619  0.00  0.00    +0.000 A 
ATOM     25  S   UNL     1      53.508   4.171  19.042  0.00  0.00    +0.000 S 
ATOM     26  C   UNL     1      52.541   2.970  18.319  0.00  0.00    +0.000 A 
ATOM     27  N   UNL     1      52.933   1.669  18.308  0.00  0.00    +0.000 NA
ATOM     28  C   UNL     1      52.112   0.870  17.710  0.00  0.00    +0.000 A 
ATOM     29  N   UNL     1      50.932   1.257  17.130  0.00  0.00    +0.000 N 
ATOM     30  C   UNL     1      50.473   2.552  17.157  0.00  0.00    +0.000 A 
ATOM     31  O   UNL     1      49.370   2.844  16.712  0.00  0.00    +0.000 OA
ATOM     32  C   UNL     1      51.376   3.496  17.788  0.00  0.00    +0.000 A 
ATOM     33  H   UNL     1      50.319   0.579  16.699  0.00  0.00    +0.000 HD
ENDBRANCH  20  23
ENDBRANCH  18  19
ENDBRANCH   4  18
TORSDOF 7
ENDMDL
MODEL 4
REMARK VINA RESULT:    -7.266      1.912      2.218
REMARK INTER + INTRA:         -11.279
REMARK INTER:                 -10.317
REMARK INTRA:                  -0.962
REMARK UNBOUND:                -1.040
REMARK  Name = 
REMARK  8 active torsions:
REMARK  status: ('A' for Active; 'I' for Inactive)
REMARK    1  A    between atoms: C_1  and  C_2
REMARK    2  A    between atoms: C_5  and  C_6
REMARK    3  A    between atoms: C_6  and  N_7
REMARK    4  A    between atoms: N_7  and  C_8
REMARK    5  A    between atoms: C_8  and  C_9
REMARK    6  A    between atoms: C_12  and  C_13
REMARK    7  A    between atoms: C_13  and  N_14
REMARK    8  A    between atoms: C_15  and  C_17
REMARK                            x       y       z     vdW  Elec       q    Type
REMARK                         _______ _______ _______ _____ _____    ______ ____
ROOT
ATOM      1  C   UNL     1      45.600   5.766  12.532  0.00  0.00    +0.000 A 
ATOM      2  C   UNL     1      46.683   6.413  13.127  0.00  0.00    +0.000 A 
ATOM      3  C   UNL     1      47.395   5.779  14.140  0.00  0.00    +0.000 A 
ATOM      4  C   UNL     1      47.000   4.509  14.549  0.00  0.00    +0.000 A 
ATOM      5  N   UNL     1      45.962   3.850  13.973  0.00  0.00    +0.000 NA
ATOM      6  C   UNL     1      45.291   4.488  12.986  0.00  0.00    +0.000 A 
ENDROOT
BRANCH   1   7
ATOM      7  C   UNL     1      44.782   6.440  11.466  0.00  0.00    +0.000 C 
BRANCH   7   8
ATOM      8  N   UNL     1      45.054   5.944  10.116  0.00  0.00    +0.000 NA
ATOM      9  H   UNL     1      44.932   6.713   9.456  0.00  0.00    +0.000 HD
BRANCH   8  10
ATOM     10  C   UNL     1      44.151   4.859   9.722  0.00  0.00    +0.000 C 
BRANCH  10  15
ATOM     11  C   UNL     1      47.004   0.479   7.315  0.00  0.00    +0.000 C 
ATOM     12  C   UNL     1      46.282   1.651   7.907  0.00  0.00    +0.000 A 
ATOM     13  C   UNL     1      46.509   2.940   7.438  0.00  0.00    +0.000 A 
ATOM     14  C   UNL     1      45.817   3.996   8.024  0.00  0.00    +0.000 A 
ATOM     15  C   UNL     1      44.910   3.747   9.056  0.00  0.00    +0.000 A 
ATOM     16  C   UNL     1      44.757   2.426   9.459  0.00  0.00    +0.000 A 
ATOM     17  N   UNL     1      45.416   1.381   8.912  0.00  0.00    +0.000 NA
ENDBRANCH  10  15
ENDBRANCH   8  10
ENDBRANCH   7   8
ENDBRANCH   1   7
BRANCH   4  18
ATOM     18  C   UNL     1      47.735   3.809  15.665  0.00  0.00    +0.000 C 
BRANCH  18  19
ATOM     19  N   UNL     1      48.359   4.735  16.581  0.00  0.00    +0.000 N 
ATOM     20  C   UNL     1      47.749   5.177  17.722  0.00  0.00    +0.000 C 
ATOM     21  O   UNL     1      46.622   4.810  18.048  0.00  0.00    +0.000 OA
ATOM     22  H   UNL     1      49.165   5.231  16.213  0.00  0.00    +0.000 HD
BRANCH  20  23
ATOM     23  C   UNL     1      48.545   6.065  18.578  0.00  0.00    +0.000 A 
ATOM     24  C   UNL     1      48.006   7.270  19.011  0.00  0.00    +0.000 A 
ATOM     25  S   UNL     1      49.053   8.165  20.017  0.00  0.00    +0.000 S 
ATOM     26  C   UNL     1      50.277   6.989  19.885  0.00  0.00    +0.000 A 
ATOM     27  N   UNL     1      51.477   7.154  20.502  0.00  0.00    +0.000 NA
ATOM     28  C   UNL     1      52.317   6.193  20.300  0.00  0.00    +0.000 A 
ATOM     29  N   UNL     1      52.062   5.080  19.543  0.00  0.00    +0.000 N 
ATOM     30  C   UNL     1      50.849   4.848  18.937  0.00  0.00    +0.000 A 
ATOM     31  O   UNL     1      50.625   3.800  18.347  0.00  0.00    +0.000 OA
ATOM     32  C   UNL     1      49.880   5.915  19.106  0.00  0.00    +0.000 A 
ATOM     33  H   UNL     1      52.752   4.350  19.444  0.00  0.00    +0.000 HD
ENDBRANCH  20  23
ENDBRANCH  18  19
ENDBRANCH   4  18
TORSDOF 7
ENDMDL
MODEL 5
REMARK VINA RESULT:    -7.243      3.428      4.878
REMARK INTER + INTRA:         -11.246
REMARK INTER:                 -10.251
REMARK INTRA:                  -0.995
REMARK UNBOUND:                -1.040
REMARK  Name = 
REMARK  8 active torsions:
REMARK  status: ('A' for Active; 'I' for Inactive)
REMARK    1  A    between atoms: C_1  and  C_2
REMARK    2  A    between atoms: C_5  and  C_6
REMARK    3  A    between atoms: C_6  and  N_7
REMARK    4  A    between atoms: N_7  and  C_8
REMARK    5  A    between atoms: C_8  and  C_9
REMARK    6  A    between atoms: C_12  and  C_13
REMARK    7  A    between atoms: C_13  and  N_14
REMARK    8  A    between atoms: C_15  and  C_17
REMARK                            x       y       z     vdW  Elec       q    Type
REMARK                         _______ _______ _______ _____ _____    ______ ____
ROOT
ATOM      1  C   UNL     1      47.305   5.427  13.946  0.00  0.00    +0.000 A 
ATOM      2  C   UNL     1      47.863   5.982  15.097  0.00  0.00    +0.000 A 
ATOM      3  C   UNL     1      48.073   5.185  16.218  0.00  0.00    +0.000 A 
ATOM      4  C   UNL     1      47.705   3.843  16.169  0.00  0.00    +0.000 A 
ATOM      5  N   UNL     1      47.177   3.274  15.054  0.00  0.00    +0.000 NA
ATOM      6  C   UNL     1      46.991   4.073  13.977  0.00  0.00    +0.000 A 
ENDROOT
BRANCH   1   7
ATOM      7  C   UNL     1      47.024   6.271  12.734  0.00  0.00    +0.000 C 
BRANCH   7   8
ATOM      8  N   UNL     1      45.698   6.889  12.745  0.00  0.00    +0.000 NA
ATOM      9  H   UNL     1      45.084   6.332  13.340  0.00  0.00    +0.000 HD
BRANCH   8  10
ATOM     10  C   UNL     1      45.097   6.958  11.409  0.00  0.00    +0.000 C 
BRANCH  10  15
ATOM     11  C   UNL     1      44.739   1.782   8.918  0.00  0.00    +0.000 C 
ATOM     12  C   UNL     1      44.808   3.111   9.607  0.00  0.00    +0.000 A 
ATOM     13  C   UNL     1      44.168   3.317  10.824  0.00  0.00    +0.000 A 
ATOM     14  C   UNL     1      44.257   4.570  11.422  0.00  0.00    +0.000 A 
ATOM     15  C   UNL     1      44.985   5.588  10.803  0.00  0.00    +0.000 A 
ATOM     16  C   UNL     1      45.583   5.288   9.585  0.00  0.00    +0.000 A 
ATOM     17  N   UNL     1      45.512   4.082   8.979  0.00  0.00    +0.000 NA
ENDBRANCH  10  15
ENDBRANCH   8  10
ENDBRANCH   7   8
ENDBRANCH   1   7
BRANCH   4  18
ATOM     18  C   UNL     1      47.893   2.960  17.377  0.00  0.00    +0.000 C 
BRANCH  18  19
ATOM     19  N   UNL     1      49.282   2.829  17.752  0.00  0.00    +0.000 N 
ATOM     20  C   UNL     1      50.191   2.131  17.007  0.00  0.00    +0.000 C 
ATOM     21  O   UNL     1      49.885   1.568  15.958  0.00  0.00    +0.000 OA
ATOM     22  H   UNL     1      49.494   3.067  18.717  0.00  0.00    +0.000 HD
BRANCH  20  23
ATOM     23  C   UNL     1      51.576   2.148  17.493  0.00  0.00    +0.000 A 
ATOM     24  C   UNL     1      52.229   0.951  17.757  0.00  0.00    +0.000 A 
ATOM     25  S   UNL     1      53.837   1.151  18.289  0.00  0.00    +0.000 S 
ATOM     26  C   UNL     1      53.709   2.848  18.217  0.00  0.00    +0.000 A 
ATOM     27  N   UNL     1      54.750   3.645  18.574  0.00  0.00    +0.000 NA
ATOM     28  C   UNL     1      54.507   4.911  18.487  0.00  0.00    +0.000 A 
ATOM     29  N   UNL     1      53.318   5.449  18.070  0.00  0.00    +0.000 N 
ATOM     30  C   UNL     1      52.253   4.684  17.656  0.00  0.00    +0.000 A 
ATOM     31  O   UNL     1      51.241   5.200  17.200  0.00  0.00    +0.000 OA
ATOM     32  C   UNL     1      52.464   3.253  17.766  0.00  0.00    +0.000 A 
ATOM     33  H   UNL     1      53.198   6.449  17.999  0.00  0.00    +0.000 HD
ENDBRANCH  20  23
ENDBRANCH  18  19
ENDBRANCH   4  18
TORSDOF 7
ENDMDL
MODEL 6
REMARK VINA RESULT:    -7.218      3.952      5.825
REMARK INTER + INTRA:         -11.211
REMARK INTER:                 -10.025
REMARK INTRA:                  -1.186
REMARK UNBOUND:                -1.040
REMARK  Name = 
REMARK  8 active torsions:
REMARK  status: ('A' for Active; 'I' for Inactive)
REMARK    1  A    between atoms: C_1  and  C_2
REMARK    2  A    between atoms: C_5  and  C_6
REMARK    3  A    between atoms: C_6  and  N_7
REMARK    4  A    between atoms: N_7  and  C_8
REMARK    5  A    between atoms: C_8  and  C_9
REMARK    6  A    between atoms: C_12  and  C_13
REMARK    7  A    between atoms: C_13  and  N_14
REMARK    8  A    between atoms: C_15  and  C_17
REMARK                            x       y       z     vdW  Elec       q    Type
REMARK                         _______ _______ _______ _____ _____    ______ ____
ROOT
ATOM      1  C   UNL     1      46.198   4.766  12.931  0.00  0.00    +0.000 A 
ATOM      2  C   UNL     1      46.564   5.962  12.313  0.00  0.00    +0.000 A 
ATOM      3  C   UNL     1      47.503   6.793  12.917  0.00  0.00    +0.000 A 
ATOM      4  C   UNL     1      48.050   6.415  14.140  0.00  0.00    +0.000 A 
ATOM      5  N   UNL     1      47.724   5.247  14.753  0.00  0.00    +0.000 NA
ATOM      6  C   UNL     1      46.813   4.456  14.139  0.00  0.00    +0.000 A 
ENDROOT
BRANCH   1   7
ATOM      7  C   UNL     1      45.153   3.868  12.328  0.00  0.00    +0.000 C 
BRANCH   7   8
ATOM      8  N   UNL     1      44.596   4.376  11.074  0.00  0.00    +0.000 NA
ATOM      9  H   UNL     1      43.806   4.985  11.292  0.00  0.00    +0.000 HD
BRANCH   8  10
ATOM     10  C   UNL     1      44.116   3.305  10.196  0.00  0.00    +0.000 C 
BRANCH  10  15
ATOM     11  C   UNL     1      47.895   2.127   6.018  0.00  0.00    +0.000 C 
ATOM     12  C   UNL     1      46.910   2.482   7.090  0.00  0.00    +0.000 A 
ATOM     13  C   UNL     1      46.512   3.800   7.285  0.00  0.00    +0.000 A 
ATOM     14  C   UNL     1      45.600   4.080   8.297  0.00  0.00    +0.000 A 
ATOM     15  C   UNL     1      45.096   3.045   9.087  0.00  0.00    +0.000 A 
ATOM     16  C   UNL     1      45.558   1.762   8.820  0.00  0.00    +0.000 A 
ATOM     17  N   UNL     1      46.446   1.460   7.847  0.00  0.00    +0.000 NA
ENDBRANCH  10  15
ENDBRANCH   8  10
ENDBRANCH   7   8
ENDBRANCH   1   7
BRANCH   4  18
ATOM     18  C   UNL     1      49.048   7.308  14.832  0.00  0.00    +0.000 C 
BRANCH  18  19
ATOM     19  N   UNL     1      50.272   7.456  14.078  0.00  0.00    +0.000 N 
ATOM     20  C   UNL     1      50.919   8.652  13.938  0.00  0.00    +0.000 C 
ATOM     21  O   UNL     1      50.501   9.688  14.450  0.00  0.00    +0.000 OA
ATOM     22  H   UNL     1      50.492   6.685  13.455  0.00  0.00    +0.000 HD
BRANCH  20  23
ATOM     23  C   UNL     1      52.185   8.619  13.195  0.00  0.00    +0.000 A 
ATOM     24  C   UNL     1      53.360   9.019  13.818  0.00  0.00    +0.000 A 
ATOM     25  S   UNL     1      54.739   8.893  12.822  0.00  0.00    +0.000 S 
ATOM     26  C   UNL     1      53.810   8.330  11.511  0.00  0.00    +0.000 A 
ATOM     27  N   UNL     1      54.388   8.046  10.314  0.00  0.00    +0.000 NA
ATOM     28  C   UNL     1      53.562   7.646   9.405  0.00  0.00    +0.000 A 
ATOM     29  N   UNL     1      52.212   7.498   9.588  0.00  0.00    +0.000 N 
ATOM     30  C   UNL     1      51.590   7.729  10.793  0.00  0.00    +0.000 A 
ATOM     31  O   UNL     1      50.398   7.495  10.946  0.00  0.00    +0.000 OA
ATOM     32  C   UNL     1      52.470   8.213  11.839  0.00  0.00    +0.000 A 
ATOM     33  H   UNL     1      51.622   7.155   8.844  0.00  0.00    +0.000 HD
ENDBRANCH  20  23
ENDBRANCH  18  19
ENDBRANCH   4  18
TORSDOF 7
ENDMDL
MODEL 7
REMARK VINA RESULT:    -7.142      5.057      9.684
REMARK INTER + INTRA:         -11.104
REMARK INTER:                 -10.208
REMARK INTRA:                  -0.896
REMARK UNBOUND:                -1.040
REMARK  Name = 
REMARK  8 active torsions:
REMARK  status: ('A' for Active; 'I' for Inactive)
REMARK    1  A    between atoms: C_1  and  C_2
REMARK    2  A    between atoms: C_5  and  C_6
REMARK    3  A    between atoms: C_6  and  N_7
REMARK    4  A    between atoms: N_7  and  C_8
REMARK    5  A    between atoms: C_8  and  C_9
REMARK    6  A    between atoms: C_12  and  C_13
REMARK    7  A    between atoms: C_13  and  N_14
REMARK    8  A    between atoms: C_15  and  C_17
REMARK                            x       y       z     vdW  Elec       q    Type
REMARK                         _______ _______ _______ _____ _____    ______ ____
ROOT
ATOM      1  C   UNL     1      51.321   3.403  17.746  0.00  0.00    +0.000 A 
ATOM      2  C   UNL     1      50.697   2.231  17.321  0.00  0.00    +0.000 A 
ATOM      3  C   UNL     1      49.337   2.240  17.025  0.00  0.00    +0.000 A 
ATOM      4  C   UNL     1      48.623   3.425  17.175  0.00  0.00    +0.000 A 
ATOM      5  N   UNL     1      49.211   4.584  17.570  0.00  0.00    +0.000 NA
ATOM      6  C   UNL     1      50.536   4.547  17.844  0.00  0.00    +0.000 A 
ENDROOT
BRANCH   1   7
ATOM      7  C   UNL     1      52.778   3.417  18.117  0.00  0.00    +0.000 C 
BRANCH   7   8
ATOM      8  N   UNL     1      53.186   2.275  18.937  0.00  0.00    +0.000 NA
ATOM      9  H   UNL     1      53.076   2.525  19.920  0.00  0.00    +0.000 HD
BRANCH   8  10
ATOM     10  C   UNL     1      54.584   1.895  18.717  0.00  0.00    +0.000 C 
BRANCH  10  15
ATOM     11  C   UNL     1      54.960  -3.356  16.391  0.00  0.00    +0.000 C 
ATOM     12  C   UNL     1      54.860  -1.970  16.949  0.00  0.00    +0.000 A 
ATOM     13  C   UNL     1      54.882  -0.860  16.111  0.00  0.00    +0.000 A 
ATOM     14  C   UNL     1      54.792   0.408  16.679  0.00  0.00    +0.000 A 
ATOM     15  C   UNL     1      54.674   0.545  18.063  0.00  0.00    +0.000 A 
ATOM     16  C   UNL     1      54.668  -0.623  18.817  0.00  0.00    +0.000 A 
ATOM     17  N   UNL     1      54.756  -1.866  18.295  0.00  0.00    +0.000 NA
ENDBRANCH  10  15
ENDBRANCH   8  10
ENDBRANCH   7   8
ENDBRANCH   1   7
BRANCH   4  18
ATOM     18  C   UNL     1      47.142   3.459  16.890  0.00  0.00    +0.000 C 
BRANCH  18  19
ATOM     19  N   UNL     1      46.799   4.425  15.872  0.00  0.00    +0.000 N 
ATOM     20  C   UNL     1      46.874   4.153  14.533  0.00  0.00    +0.000 C 
ATOM     21  O   UNL     1      47.237   3.060  14.106  0.00  0.00    +0.000 OA
ATOM     22  H   UNL     1      46.740   5.388  16.190  0.00  0.00    +0.000 HD
BRANCH  20  23
ATOM     23  C   UNL     1      46.427   5.221  13.631  0.00  0.00    +0.000 A 
ATOM     24  C   UNL     1      47.268   6.294  13.364  0.00  0.00    +0.000 A 
ATOM     25  S   UNL     1      46.605   7.429  12.278  0.00  0.00    +0.000 S 
ATOM     26  C   UNL     1      45.156   6.543  12.148  0.00  0.00    +0.000 A 
ATOM     27  N   UNL     1      44.132   6.986  11.373  0.00  0.00    +0.000 NA
ATOM     28  C   UNL     1      43.088   6.225  11.384  0.00  0.00    +0.000 A 
ATOM     29  N   UNL     1      42.981   5.058  12.094  0.00  0.00    +0.000 N 
ATOM     30  C   UNL     1      44.006   4.547  12.854  0.00  0.00    +0.000 A 
ATOM     31  O   UNL     1      43.909   3.456  13.399  0.00  0.00    +0.000 OA
ATOM     32  C   UNL     1      45.191   5.383  12.903  0.00  0.00    +0.000 A 
ATOM     33  H   UNL     1      42.146   4.492  12.040  0.00  0.00    +0.000 HD
ENDBRANCH  20  23
ENDBRANCH  18  19
ENDBRANCH   4  18
TORSDOF 7
ENDMDL
MODEL 8
REMARK VINA RESULT:    -6.805      3.941      4.754
REMARK INTER + INTRA:         -10.629
REMARK INTER:                  -9.599
REMARK INTRA:                  -1.030
REMARK UNBOUND:                -1.040
REMARK  Name = 
REMARK  8 active torsions:
REMARK  status: ('A' for Active; 'I' for Inactive)
REMARK    1  A    between atoms: C_1  and  C_2
REMARK    2  A    between atoms: C_5  and  C_6
REMARK    3  A    between atoms: C_6  and  N_7
REMARK    4  A    between atoms: N_7  and  C_8
REMARK    5  A    between atoms: C_8  and  C_9
REMARK    6  A    between atoms: C_12  and  C_13
REMARK    7  A    between atoms: C_13  and  N_14
REMARK    8  A    between atoms: C_15  and  C_17
REMARK                            x       y       z     vdW  Elec       q    Type
REMARK                         _______ _______ _______ _____ _____    ______ ____
ROOT
ATOM      1  C   UNL     1      44.202   4.943  11.705  0.00  0.00    +0.000 A 
ATOM      2  C   UNL     1      43.912   6.208  11.194  0.00  0.00    +0.000 A 
ATOM      3  C   UNL     1      44.599   7.320  11.672  0.00  0.00    +0.000 A 
ATOM      4  C   UNL     1      45.557   7.146  12.666  0.00  0.00    +0.000 A 
ATOM      5  N   UNL     1      45.871   5.922  13.166  0.00  0.00    +0.000 NA
ATOM      6  C   UNL     1      45.192   4.858  12.678  0.00  0.00    +0.000 A 
ENDROOT
BRANCH   1   7
ATOM      7  C   UNL     1      43.448   3.727  11.243  0.00  0.00    +0.000 C 
BRANCH   7   8
ATOM      8  N   UNL     1      43.779   3.315   9.879  0.00  0.00    +0.000 NA
ATOM      9  H   UNL     1      42.929   2.976   9.426  0.00  0.00    +0.000 HD
BRANCH   8  10
ATOM     10  C   UNL     1      44.775   2.240   9.841  0.00  0.00    +0.000 C 
BRANCH  10  15
ATOM     11  C   UNL     1      47.969   2.331   5.055  0.00  0.00    +0.000 C 
ATOM     12  C   UNL     1      47.124   2.356   6.291  0.00  0.00    +0.000 A 
ATOM     13  C   UNL     1      46.500   3.528   6.706  0.00  0.00    +0.000 A 
ATOM     14  C   UNL     1      45.730   3.501   7.865  0.00  0.00    +0.000 A 
ATOM     15  C   UNL     1      45.589   2.310   8.580  0.00  0.00    +0.000 A 
ATOM     16  C   UNL     1      46.256   1.194   8.090  0.00  0.00    +0.000 A 
ATOM     17  N   UNL     1      47.013   1.190   6.971  0.00  0.00    +0.000 NA
ENDBRANCH  10  15
ENDBRANCH   8  10
ENDBRANCH   7   8
ENDBRANCH   1   7
BRANCH   4  18
ATOM     18  C   UNL     1      46.297   8.335  13.223  0.00  0.00    +0.000 C 
BRANCH  18  19
ATOM     19  N   UNL     1      47.703   8.315  12.892  0.00  0.00    +0.000 N 
ATOM     20  C   UNL     1      48.431   9.451  12.667  0.00  0.00    +0.000 C 
ATOM     21  O   UNL     1      47.934  10.572  12.737  0.00  0.00    +0.000 OA
ATOM     22  H   UNL     1      48.064   7.414  12.590  0.00  0.00    +0.000 HD
BRANCH  20  23
ATOM     23  C   UNL     1      49.863   9.260  12.406  0.00  0.00    +0.000 A 
ATOM     24  C   UNL     1      50.399   9.656  11.187  0.00  0.00    +0.000 A 
ATOM     25  S   UNL     1      52.079   9.387  11.060  0.00  0.00    +0.000 S 
ATOM     26  C   UNL     1      52.144   8.701  12.617  0.00  0.00    +0.000 A 
ATOM     27  N   UNL     1      53.313   8.229  13.126  0.00  0.00    +0.000 NA
ATOM     28  C   UNL     1      53.211   7.718  14.308  0.00  0.00    +0.000 A 
ATOM     29  N   UNL     1      52.048   7.645  15.029  0.00  0.00    +0.000 N 
ATOM     30  C   UNL     1      50.852   8.149  14.574  0.00  0.00    +0.000 A 
ATOM     31  O   UNL     1      49.854   8.150  15.283  0.00  0.00    +0.000 OA
ATOM     32  C   UNL     1      50.905   8.704  13.235  0.00  0.00    +0.000 A 
ATOM     33  H   UNL     1      52.039   7.257  15.961  0.00  0.00    +0.000 HD
ENDBRANCH  20  23
ENDBRANCH  18  19
ENDBRANCH   4  18
TORSDOF 7
ENDMDL
MODEL 9
REMARK VINA RESULT:    -6.614      3.956      8.848
REMARK INTER + INTRA:         -10.360
REMARK INTER:                  -9.320
REMARK INTRA:                  -1.041
REMARK UNBOUND:                -1.040
REMARK  Name = 
REMARK  8 active torsions:
REMARK  status: ('A' for Active; 'I' for Inactive)
REMARK    1  A    between atoms: C_1  and  C_2
REMARK    2  A    between atoms: C_5  and  C_6
REMARK    3  A    between atoms: C_6  and  N_7
REMARK    4  A    between atoms: N_7  and  C_8
REMARK    5  A    between atoms: C_8  and  C_9
REMARK    6  A    between atoms: C_12  and  C_13
REMARK    7  A    between atoms: C_13  and  N_14
REMARK    8  A    between atoms: C_15  and  C_17
REMARK                            x       y       z     vdW  Elec       q    Type
REMARK                         _______ _______ _______ _____ _____    ______ ____
ROOT
ATOM      1  C   UNL     1      51.330   4.158  17.670  0.00  0.00    +0.000 A 
ATOM      2  C   UNL     1      50.883   2.842  17.556  0.00  0.00    +0.000 A 
ATOM      3  C   UNL     1      49.561   2.589  17.203  0.00  0.00    +0.000 A 
ATOM      4  C   UNL     1      48.705   3.664  16.984  0.00  0.00    +0.000 A 
ATOM      5  N   UNL     1      49.121   4.955  17.070  0.00  0.00    +0.000 NA
ATOM      6  C   UNL     1      50.413   5.170  17.408  0.00  0.00    +0.000 A 
ENDROOT
BRANCH   1   7
ATOM      7  C   UNL     1      52.740   4.466  18.094  0.00  0.00    +0.000 C 
BRANCH   7   8
ATOM      8  N   UNL     1      53.586   4.956  17.004  0.00  0.00    +0.000 NA
ATOM      9  H   UNL     1      54.489   4.483  17.055  0.00  0.00    +0.000 HD
BRANCH   8  10
ATOM     10  C   UNL     1      53.823   6.400  17.082  0.00  0.00    +0.000 C 
BRANCH  10  15
ATOM     11  C   UNL     1      52.779   8.909  12.009  0.00  0.00    +0.000 C 
ATOM     12  C   UNL     1      53.099   8.247  13.314  0.00  0.00    +0.000 A 
ATOM     13  C   UNL     1      54.326   7.624  13.517  0.00  0.00    +0.000 A 
ATOM     14  C   UNL     1      54.573   7.018  14.744  0.00  0.00    +0.000 A 
ATOM     15  C   UNL     1      53.601   7.051  15.746  0.00  0.00    +0.000 A 
ATOM     16  C   UNL     1      52.405   7.691  15.447  0.00  0.00    +0.000 A 
ATOM     17  N   UNL     1      52.134   8.286  14.264  0.00  0.00    +0.000 NA
ENDBRANCH  10  15
ENDBRANCH   8  10
ENDBRANCH   7   8
ENDBRANCH   1   7
BRANCH   4  18
ATOM     18  C   UNL     1      47.260   3.422  16.628  0.00  0.00    +0.000 C 
BRANCH  18  19
ATOM     19  N   UNL     1      46.766   4.368  15.653  0.00  0.00    +0.000 N 
ATOM     20  C   UNL     1      46.777   4.124  14.308  0.00  0.00    +0.000 C 
ATOM     21  O   UNL     1      47.208   3.075  13.835  0.00  0.00    +0.000 OA
ATOM     22  H   UNL     1      46.642   5.316  15.995  0.00  0.00    +0.000 HD
BRANCH  20  23
ATOM     23  C   UNL     1      46.179   5.161  13.458  0.00  0.00    +0.000 A 
ATOM     24  C   UNL     1      46.876   6.337  13.213  0.00  0.00    +0.000 A 
ATOM     25  S   UNL     1      46.049   7.420  12.186  0.00  0.00    +0.000 S 
ATOM     26  C   UNL     1      44.716   6.369  12.058  0.00  0.00    +0.000 A 
ATOM     27  N   UNL     1      43.623   6.710  11.325  0.00  0.00    +0.000 NA
ATOM     28  C   UNL     1      42.680   5.827  11.332  0.00  0.00    +0.000 A 
ATOM     29  N   UNL     1      42.736   4.631  11.999  0.00  0.00    +0.000 N 
ATOM     30  C   UNL     1      43.837   4.224  12.715  0.00  0.00    +0.000 A 
ATOM     31  O   UNL     1      43.888   3.110  13.219  0.00  0.00    +0.000 OA
ATOM     32  C   UNL     1      44.912   5.196  12.767  0.00  0.00    +0.000 A 
ATOM     33  H   UNL     1      41.975   3.970  11.944  0.00  0.00    +0.000 HD
ENDBRANCH  20  23
ENDBRANCH  18  19
ENDBRANCH   4  18
TORSDOF 7
ENDMDL
