MODEL 1
REMARK VINA RESULT:    -7.722      0.000      0.000
REMARK INTER + INTRA:         -10.234
REMARK INTER:                  -9.754
REMARK INTRA:                  -0.480
REMARK UNBOUND:                -0.480
REMARK  Name = 
REMARK  5 active torsions:
REMARK  status: ('A' for Active; 'I' for Inactive)
REMARK    1  A    between atoms: N_1  and  S_2
REMARK    2  A    between atoms: S_2  and  C_5
REMARK    3  A    between atoms: C_8  and  N_9
REMARK    4  A    between atoms: N_9  and  C_10
REMARK    5  A    between atoms: C_10  and  C_11
REMARK                            x       y       z     vdW  Elec       q    Type
REMARK                         _______ _______ _______ _____ _____    ______ ____
ROOT
ATOM      1  C   UNL     1      46.960   5.557  13.192  0.00  0.00    +0.000 A 
ATOM      2  C   UNL     1      46.253   6.021  12.082  0.00  0.00    +0.000 A 
ATOM      3  C   UNL     1      45.436   5.137  11.366  0.00  0.00    +0.000 A 
ATOM      4  C   UNL     1      45.349   3.786  11.729  0.00  0.00    +0.000 A 
ATOM      5  C   UNL     1      46.013   3.362  12.885  0.00  0.00    +0.000 A 
ATOM      6  C   UNL     1      46.836   4.230  13.605  0.00  0.00    +0.000 A 
ENDROOT
BRANCH   1   7
ATOM      7  S   UNL     1      48.103   6.613  14.033  0.00  0.00    +0.000 S 
ATOM      8  O   UNL     1      48.583   5.945  15.220  0.00  0.00    +0.000 OA
ATOM      9  O   UNL     1      47.576   7.957  14.063  0.00  0.00    +0.000 OA
BRANCH   7  10
ATOM     10  N   UNL     1      49.398   6.651  12.967  0.00  0.00    +0.000 NA
ATOM     11  H   UNL     1      49.049   6.807  12.020  0.00  0.00    +0.000 HD
ATOM     12  H   UNL     1      49.954   5.803  13.066  0.00  0.00    +0.000 HD
ENDBRANCH   7  10
ENDBRANCH   1   7
BRANCH   4  13
ATOM     13  N   UNL     1      44.583   2.836  11.045  0.00  0.00    +0.000 N 
ATOM     14  H   UNL     1      43.779   2.552  11.604  0.00  0.00    +0.000 HD
BRANCH  13  15
ATOM     15  C   UNL     1      44.182   3.131   9.669  0.00  0.00    +0.000 C 
BRANCH  15  16
ATOM     16  C   UNL     1      45.273   2.706   8.704  0.00  0.00    +0.000 A 
ATOM     17  C   UNL     1      45.848   3.647   7.845  0.00  0.00    +0.000 A 
ATOM     18  C   UNL     1      46.818   3.236   6.937  0.00  0.00    +0.000 A 
ATOM     19  C   UNL     1      47.190   1.898   6.910  0.00  0.00    +0.000 A 
ATOM     20  C   UNL     1      46.575   1.032   7.798  0.00  0.00    +0.000 A 
ATOM     21  F   UNL     1      46.932  -0.261   7.773  0.00  0.00    +0.000 F 
ATOM     22  N   UNL     1      45.631   1.397   8.690  0.00  0.00    +0.000 NA
ENDBRANCH  15  16
ENDBRANCH  13  15
ENDBRANCH   4  13
TORSDOF 5
ENDMDL
MODEL 2
REMARK VINA RESULT:    -7.451      1.656      2.022
REMARK INTER + INTRA:          -9.892
REMARK INTER:                  -9.527
REMARK INTRA:                  -0.365
REMARK UNBOUND:                -0.480
REMARK  Name = 
REMARK  5 active torsions:
REMARK  status: ('A' for Active; 'I' for Inactive)
REMARK    1  A    between atoms: N_1  and  S_2
REMARK    2  A    between atoms: S_2  and  C_5
REMARK    3  A    between atoms: C_8  and  N_9
REMARK    4  A    between atoms: N_9  and  C_10
REMARK    5  A    between atoms: C_10  and  C_11
REMARK                            x       y       z     vdW  Elec       q    Type
REMARK                         _______ _______ _______ _____ _____    ______ ____
ROOT
ATOM      1  C   UNL     1      46.628   4.527  13.829  0.00  0.00    +0.000 A 
ATOM      2  C   UNL     1      46.600   5.789  13.236  0.00  0.00    +0.000 A 
ATOM      3  C   UNL     1      45.938   5.962  12.014  0.00  0.00    +0.000 A 
ATOM      4  C   UNL     1      45.336   4.877  11.363  0.00  0.00    +0.000 A 
ATOM      5  C   UNL     1      45.319   3.636  12.011  0.00  0.00    +0.000 A 
ATOM      6  C   UNL     1      45.980   3.448  13.226  0.00  0.00    +0.000 A 
ENDROOT
BRANCH   1   7
ATOM      7  S   UNL     1      47.569   4.247  15.301  0.00  0.00    +0.000 S 
ATOM      8  O   UNL     1      48.390   5.404  15.568  0.00  0.00    +0.000 OA
ATOM      9  O   UNL     1      48.106   2.906  15.274  0.00  0.00    +0.000 OA
BRANCH   7  10
ATOM     10  N   UNL     1      46.379   4.240  16.484  0.00  0.00    +0.000 NA
ATOM     11  H   UNL     1      46.785   4.539  17.371  0.00  0.00    +0.000 HD
ATOM     12  H   UNL     1      45.934   3.324  16.523  0.00  0.00    +0.000 HD
ENDBRANCH   7  10
ENDBRANCH   1   7
BRANCH   4  13
ATOM     13  N   UNL     1      44.687   4.962  10.127  0.00  0.00    +0.000 N 
ATOM     14  H   UNL     1      45.235   5.517   9.470  0.00  0.00    +0.000 HD
BRANCH  13  15
ATOM     15  C   UNL     1      44.224   3.723   9.501  0.00  0.00    +0.000 C 
BRANCH  15  16
ATOM     16  C   UNL     1      45.311   3.146   8.614  0.00  0.00    +0.000 A 
ATOM     17  C   UNL     1      45.995   3.978   7.723  0.00  0.00    +0.000 A 
ATOM     18  C   UNL     1      46.962   3.428   6.886  0.00  0.00    +0.000 A 
ATOM     19  C   UNL     1      47.220   2.066   6.961  0.00  0.00    +0.000 A 
ATOM     20  C   UNL     1      46.502   1.314   7.875  0.00  0.00    +0.000 A 
ATOM     21  F   UNL     1      46.749  -0.002   7.950  0.00  0.00    +0.000 F 
ATOM     22  N   UNL     1      45.558   1.814   8.700  0.00  0.00    +0.000 NA
ENDBRANCH  15  16
ENDBRANCH  13  15
ENDBRANCH   4  13
TORSDOF 5
ENDMDL
MODEL 3
REMARK VINA RESULT:    -7.073      1.512      1.817
REMARK INTER + INTRA:          -9.414
REMARK INTER:                  -8.979
REMARK INTRA:                  -0.435
REMARK UNBOUND:                -0.480
REMARK  Name = 
REMARK  5 active torsions:
REMARK  status: ('A' for Active; 'I' for Inactive)
REMARK    1  A    between atoms: N_1  and  S_2
REMARK    2  A    between atoms: S_2  and  C_5
REMARK    3  A    between atoms: C_8  and  N_9
REMARK    4  A    between atoms: N_9  and  C_10
REMARK    5  A    between atoms: C_10  and  C_11
REMARK                            x       y       z     vdW  Elec       q    Type
REMARK                         _______ _______ _______ _____ _____    ______ ____
ROOT
ATOM      1  C   UNL     1      46.806   6.062  12.728  0.00  0.00    +0.000 A 
ATOM      2  C   UNL     1      46.581   6.833  11.587  0.00  0.00    +0.000 A 
ATOM      3  C   UNL     1      45.709   6.363  10.598  0.00  0.00    +0.000 A 
ATOM      4  C   UNL     1      45.088   5.112  10.723  0.00  0.00    +0.000 A 
ATOM      5  C   UNL     1      45.276   4.390  11.906  0.00  0.00    +0.000 A 
ATOM      6  C   UNL     1      46.148   4.843  12.899  0.00  0.00    +0.000 A 
ENDROOT
BRANCH   1   7
ATOM      7  S   UNL     1      48.004   6.563  13.930  0.00  0.00    +0.000 S 
ATOM      8  O   UNL     1      48.176   5.508  14.900  0.00  0.00    +0.000 OA
ATOM      9  O   UNL     1      47.748   7.933  14.313  0.00  0.00    +0.000 OA
BRANCH   7  10
ATOM     10  N   UNL     1      49.417   6.597  13.026  0.00  0.00    +0.000 NA
ATOM     11  H   UNL     1      49.892   5.697  13.110  0.00  0.00    +0.000 HD
ATOM     12  H   UNL     1      49.989   7.392  13.306  0.00  0.00    +0.000 HD
ENDBRANCH   7  10
ENDBRANCH   1   7
BRANCH   4  13
ATOM     13  N   UNL     1      44.233   4.560   9.765  0.00  0.00    +0.000 N 
ATOM     14  H   UNL     1      44.341   5.034   8.868  0.00  0.00    +0.000 HD
BRANCH  13  15
ATOM     15  C   UNL     1      44.236   3.107   9.589  0.00  0.00    +0.000 C 
BRANCH  15  16
ATOM     16  C   UNL     1      45.237   2.712   8.519  0.00  0.00    +0.000 A 
ATOM     17  C   UNL     1      45.845   1.454   8.566  0.00  0.00    +0.000 A 
ATOM     18  C   UNL     1      46.792   1.120   7.603  0.00  0.00    +0.000 A 
ATOM     19  C   UNL     1      47.106   2.049   6.619  0.00  0.00    +0.000 A 
ATOM     20  C   UNL     1      46.454   3.269   6.641  0.00  0.00    +0.000 A 
ATOM     21  F   UNL     1      46.756   4.168   5.693  0.00  0.00    +0.000 F 
ATOM     22  N   UNL     1      45.532   3.626   7.560  0.00  0.00    +0.000 NA
ENDBRANCH  15  16
ENDBRANCH  13  15
ENDBRANCH   4  13
TORSDOF 5
ENDMDL
MODEL 4
REMARK VINA RESULT:    -6.327      1.992      2.746
REMARK INTER + INTRA:          -8.471
REMARK INTER:                  -8.128
REMARK INTRA:                  -0.344
REMARK UNBOUND:                -0.480
REMARK  Name = 
REMARK  5 active torsions:
REMARK  status: ('A' for Active; 'I' for Inactive)
REMARK    1  A    between atoms: N_1  and  S_2
REMARK    2  A    between atoms: S_2  and  C_5
REMARK    3  A    between atoms: C_8  and  N_9
REMARK    4  A    between atoms: N_9  and  C_10
REMARK    5  A    between atoms: C_10  and  C_11
REMARK                            x       y       z     vdW  Elec       q    Type
REMARK                         _______ _______ _______ _____ _____    ______ ____
ROOT
ATOM      1  C   UNL     1      47.874   6.730  13.895  0.00  0.00    +0.000 A 
ATOM      2  C   UNL     1      47.310   5.484  13.619  0.00  0.00    +0.000 A 
ATOM      3  C   UNL     1      46.398   5.359  12.564  0.00  0.00    +0.000 A 
ATOM      4  C   UNL     1      46.017   6.475  11.807  0.00  0.00    +0.000 A 
ATOM      5  C   UNL     1      46.647   7.698  12.060  0.00  0.00    +0.000 A 
ATOM      6  C   UNL     1      47.554   7.840  13.112  0.00  0.00    +0.000 A 
ENDROOT
BRANCH   1   7
ATOM      7  S   UNL     1      48.923   6.950  15.302  0.00  0.00    +0.000 S 
ATOM      8  O   UNL     1      48.985   5.715  16.047  0.00  0.00    +0.000 OA
ATOM      9  O   UNL     1      48.621   8.216  15.928  0.00  0.00    +0.000 OA
BRANCH   7  10
ATOM     10  N   UNL     1      50.431   7.138  14.592  0.00  0.00    +0.000 NA
ATOM     11  H   UNL     1      50.480   6.566  13.747  0.00  0.00    +0.000 HD
ATOM     12  H   UNL     1      51.163   6.932  15.270  0.00  0.00    +0.000 HD
ENDBRANCH   7  10
ENDBRANCH   1   7
BRANCH   4  13
ATOM     13  N   UNL     1      45.088   6.436  10.763  0.00  0.00    +0.000 N 
ATOM     14  H   UNL     1      45.544   6.619   9.868  0.00  0.00    +0.000 HD
BRANCH  13  15
ATOM     15  C   UNL     1      44.201   5.276  10.667  0.00  0.00    +0.000 C 
BRANCH  15  16
ATOM     16  C   UNL     1      44.766   4.264   9.688  0.00  0.00    +0.000 A 
ATOM     17  C   UNL     1      44.480   2.905   9.848  0.00  0.00    +0.000 A 
ATOM     18  C   UNL     1      45.038   1.985   8.967  0.00  0.00    +0.000 A 
ATOM     19  C   UNL     1      45.865   2.443   7.950  0.00  0.00    +0.000 A 
ATOM     20  C   UNL     1      46.092   3.805   7.857  0.00  0.00    +0.000 A 
ATOM     21  F   UNL     1      46.891   4.250   6.876  0.00  0.00    +0.000 F 
ATOM     22  N   UNL     1      45.568   4.725   8.694  0.00  0.00    +0.000 NA
ENDBRANCH  15  16
ENDBRANCH  13  15
ENDBRANCH   4  13
TORSDOF 5
ENDMDL
MODEL 5
REMARK VINA RESULT:    -6.145      4.775      7.415
REMARK INTER + INTRA:          -8.242
REMARK INTER:                  -7.926
REMARK INTRA:                  -0.315
REMARK UNBOUND:                -0.480
REMARK  Name = 
REMARK  5 active torsions:
REMARK  status: ('A' for Active; 'I' for Inactive)
REMARK    1  A    between atoms: N_1  and  S_2
REMARK    2  A    between atoms: S_2  and  C_5
REMARK    3  A    between atoms: C_8  and  N_9
REMARK    4  A    between atoms: N_9  and  C_10
REMARK    5  A    between atoms: C_10  and  C_11
REMARK                            x       y       z     vdW  Elec       q    Type
REMARK                         _______ _______ _______ _____ _____    ______ ____
ROOT
ATOM      1  C   UNL     1      45.176   4.666  11.663  0.00  0.00    +0.000 A 
ATOM      2  C   UNL     1      45.549   5.966  12.006  0.00  0.00    +0.000 A 
ATOM      3  C   UNL     1      46.354   6.179  13.132  0.00  0.00    +0.000 A 
ATOM      4  C   UNL     1      46.758   5.107  13.939  0.00  0.00    +0.000 A 
ATOM      5  C   UNL     1      46.428   3.808  13.537  0.00  0.00    +0.000 A 
ATOM      6  C   UNL     1      45.621   3.581  12.420  0.00  0.00    +0.000 A 
ENDROOT
BRANCH   1   7
ATOM      7  S   UNL     1      44.051   4.376  10.329  0.00  0.00    +0.000 S 
ATOM      8  O   UNL     1      42.918   5.261  10.462  0.00  0.00    +0.000 OA
ATOM      9  O   UNL     1      43.903   2.953  10.133  0.00  0.00    +0.000 OA
BRANCH   7  10
ATOM     10  N   UNL     1      44.922   4.932   9.007  0.00  0.00    +0.000 NA
ATOM     11  H   UNL     1      44.793   5.941   8.920  0.00  0.00    +0.000 HD
ATOM     12  H   UNL     1      44.657   4.410   8.173  0.00  0.00    +0.000 HD
ENDBRANCH   7  10
ENDBRANCH   1   7
BRANCH   4  13
ATOM     13  N   UNL     1      47.532   5.241  15.096  0.00  0.00    +0.000 N 
ATOM     14  H   UNL     1      47.445   6.182  15.480  0.00  0.00    +0.000 HD
BRANCH  13  15
ATOM     15  C   UNL     1      47.385   4.234  16.148  0.00  0.00    +0.000 C 
BRANCH  15  16
ATOM     16  C   UNL     1      48.731   3.944  16.785  0.00  0.00    +0.000 A 
ATOM     17  C   UNL     1      49.462   4.982  17.370  0.00  0.00    +0.000 A 
ATOM     18  C   UNL     1      50.714   4.709  17.914  0.00  0.00    +0.000 A 
ATOM     19  C   UNL     1      51.200   3.410  17.862  0.00  0.00    +0.000 A 
ATOM     20  C   UNL     1      50.410   2.439  17.271  0.00  0.00    +0.000 A 
ATOM     21  F   UNL     1      50.878   1.184  17.219  0.00  0.00    +0.000 F 
ATOM     22  N   UNL     1      49.194   2.669  16.733  0.00  0.00    +0.000 NA
ENDBRANCH  15  16
ENDBRANCH  13  15
ENDBRANCH   4  13
TORSDOF 5
ENDMDL
MODEL 6
REMARK VINA RESULT:    -5.978      4.611      7.574
REMARK INTER + INTRA:          -8.030
REMARK INTER:                  -7.669
REMARK INTRA:                  -0.361
REMARK UNBOUND:                -0.480
REMARK  Name = 
REMARK  5 active torsions:
REMARK  status: ('A' for Active; 'I' for Inactive)
REMARK    1  A    between atoms: N_1  and  S_2
REMARK    2  A    between atoms: S_2  and  C_5
REMARK    3  A    between atoms: C_8  and  N_9
REMARK    4  A    between atoms: N_9  and  C_10
REMARK    5  A    between atoms: C_10  and  C_11
REMARK                            x       y       z     vdW  Elec       q    Type
REMARK                         _______ _______ _______ _____ _____    ______ ____
ROOT
ATOM      1  C   UNL     1      45.232   4.549  11.390  0.00  0.00    +0.000 A 
ATOM      2  C   UNL     1      45.806   5.712  10.874  0.00  0.00    +0.000 A 
ATOM      3  C   UNL     1      46.488   6.583  11.733  0.00  0.00    +0.000 A 
ATOM      4  C   UNL     1      46.569   6.320  13.107  0.00  0.00    +0.000 A 
ATOM      5  C   UNL     1      46.045   5.115  13.587  0.00  0.00    +0.000 A 
ATOM      6  C   UNL     1      45.357   4.239  12.745  0.00  0.00    +0.000 A 
ENDROOT
BRANCH   1   7
ATOM      7  S   UNL     1      44.249   3.500  10.359  0.00  0.00    +0.000 S 
ATOM      8  O   UNL     1      43.044   3.132  11.064  0.00  0.00    +0.000 OA
ATOM      9  O   UNL     1      45.103   2.522   9.725  0.00  0.00    +0.000 OA
BRANCH   7  10
ATOM     10  N   UNL     1      43.771   4.550   9.141  0.00  0.00    +0.000 NA
ATOM     11  H   UNL     1      43.074   4.090   8.554  0.00  0.00    +0.000 HD
ATOM     12  H   UNL     1      44.587   4.880   8.628  0.00  0.00    +0.000 HD
ENDBRANCH   7  10
ENDBRANCH   1   7
BRANCH   4  13
ATOM     13  N   UNL     1      47.202   7.156  14.031  0.00  0.00    +0.000 N 
ATOM     14  H   UNL     1      46.650   7.234  14.885  0.00  0.00    +0.000 HD
BRANCH  13  15
ATOM     15  C   UNL     1      48.610   6.903  14.344  0.00  0.00    +0.000 C 
BRANCH  15  16
ATOM     16  C   UNL     1      48.751   6.447  15.784  0.00  0.00    +0.000 A 
ATOM     17  C   UNL     1      48.976   7.388  16.793  0.00  0.00    +0.000 A 
ATOM     18  C   UNL     1      49.145   6.952  18.103  0.00  0.00    +0.000 A 
ATOM     19  C   UNL     1      49.084   5.591  18.373  0.00  0.00    +0.000 A 
ATOM     20  C   UNL     1      48.852   4.727  17.317  0.00  0.00    +0.000 A 
ATOM     21  F   UNL     1      48.794   3.412  17.575  0.00  0.00    +0.000 F 
ATOM     22  N   UNL     1      48.685   5.115  16.036  0.00  0.00    +0.000 NA
ENDBRANCH  15  16
ENDBRANCH  13  15
ENDBRANCH   4  13
TORSDOF 5
ENDMDL
MODEL 7
REMARK VINA RESULT:    -5.763      2.382      3.025
REMARK INTER + INTRA:          -7.759
REMARK INTER:                  -7.356
REMARK INTRA:                  -0.403
REMARK UNBOUND:                -0.480
REMARK  Name = 
REMARK  5 active torsions:
REMARK  status: ('A' for Active; 'I' for Inactive)
REMARK    1  A    between atoms: N_1  and  S_2
REMARK    2  A    between atoms: S_2  and  C_5
REMARK    3  A    between atoms: C_8  and  N_9
REMARK    4  A    between atoms: N_9  and  C_10
REMARK    5  A    between atoms: C_10  and  C_11
REMARK                            x       y       z     vdW  Elec       q    Type
REMARK                         _______ _______ _______ _____ _____    ______ ____
ROOT
ATOM      1  C   UNL     1      48.893   7.573  12.951  0.00  0.00    +0.000 A 
ATOM      2  C   UNL     1      48.257   7.740  11.721  0.00  0.00    +0.000 A 
ATOM      3  C   UNL     1      47.126   6.970  11.419  0.00  0.00    +0.000 A 
ATOM      4  C   UNL     1      46.649   6.010  12.321  0.00  0.00    +0.000 A 
ATOM      5  C   UNL     1      47.262   5.910  13.575  0.00  0.00    +0.000 A 
ATOM      6  C   UNL     1      48.394   6.666  13.888  0.00  0.00    +0.000 A 
ENDROOT
BRANCH   1   7
ATOM      7  S   UNL     1      50.399   8.430  13.308  0.00  0.00    +0.000 S 
ATOM      8  O   UNL     1      50.090   9.700  13.920  0.00  0.00    +0.000 OA
ATOM      9  O   UNL     1      51.291   8.313  12.178  0.00  0.00    +0.000 OA
BRANCH   7  10
ATOM     10  N   UNL     1      51.066   7.481  14.519  0.00  0.00    +0.000 NA
ATOM     11  H   UNL     1      50.475   6.662  14.670  0.00  0.00    +0.000 HD
ATOM     12  H   UNL     1      51.213   8.041  15.358  0.00  0.00    +0.000 HD
ENDBRANCH   7  10
ENDBRANCH   1   7
BRANCH   4  13
ATOM     13  N   UNL     1      45.549   5.182  12.078  0.00  0.00    +0.000 N 
ATOM     14  H   UNL     1      44.947   5.131  12.900  0.00  0.00    +0.000 HD
BRANCH  13  15
ATOM     15  C   UNL     1      44.759   5.416  10.868  0.00  0.00    +0.000 C 
BRANCH  15  16
ATOM     16  C   UNL     1      45.088   4.371   9.818  0.00  0.00    +0.000 A 
ATOM     17  C   UNL     1      44.747   3.033  10.038  0.00  0.00    +0.000 A 
ATOM     18  C   UNL     1      45.091   2.079   9.085  0.00  0.00    +0.000 A 
ATOM     19  C   UNL     1      45.763   2.485   7.940  0.00  0.00    +0.000 A 
ATOM     20  C   UNL     1      46.058   3.829   7.797  0.00  0.00    +0.000 A 
ATOM     21  F   UNL     1      46.708   4.223   6.692  0.00  0.00    +0.000 F 
ATOM     22  N   UNL     1      45.740   4.780   8.701  0.00  0.00    +0.000 NA
ENDBRANCH  15  16
ENDBRANCH  13  15
ENDBRANCH   4  13
TORSDOF 5
ENDMDL
MODEL 8
REMARK VINA RESULT:    -5.541      4.756      7.617
REMARK INTER + INTRA:          -7.479
REMARK INTER:                  -7.069
REMARK INTRA:                  -0.410
REMARK UNBOUND:                -0.480
REMARK  Name = 
REMARK  5 active torsions:
REMARK  status: ('A' for Active; 'I' for Inactive)
REMARK    1  A    between atoms: N_1  and  S_2
REMARK    2  A    between atoms: S_2  and  C_5
REMARK    3  A    between atoms: C_8  and  N_9
REMARK    4  A    between atoms: N_9  and  C_10
REMARK    5  A    between atoms: C_10  and  C_11
REMARK                            x       y       z     vdW  Elec       q    Type
REMARK                         _______ _______ _______ _____ _____    ______ ____
ROOT
ATOM      1  C   UNL     1      45.662   4.888  11.906  0.00  0.00    +0.000 A 
ATOM      2  C   UNL     1      45.727   3.957  12.943  0.00  0.00    +0.000 A 
ATOM      3  C   UNL     1      46.479   4.252  14.088  0.00  0.00    +0.000 A 
ATOM      4  C   UNL     1      47.194   5.453  14.187  0.00  0.00    +0.000 A 
ATOM      5  C   UNL     1      47.058   6.398  13.164  0.00  0.00    +0.000 A 
ATOM      6  C   UNL     1      46.318   6.116  12.015  0.00  0.00    +0.000 A 
ENDROOT
BRANCH   1   7
ATOM      7  S   UNL     1      44.836   4.490  10.393  0.00  0.00    +0.000 S 
ATOM      8  O   UNL     1      45.642   4.932   9.280  0.00  0.00    +0.000 OA
ATOM      9  O   UNL     1      43.436   4.824  10.515  0.00  0.00    +0.000 OA
BRANCH   7  10
ATOM     10  N   UNL     1      44.909   2.814  10.382  0.00  0.00    +0.000 NA
ATOM     11  H   UNL     1      44.156   2.441  10.962  0.00  0.00    +0.000 HD
ATOM     12  H   UNL     1      45.838   2.506  10.666  0.00  0.00    +0.000 HD
ENDBRANCH   7  10
ENDBRANCH   1   7
BRANCH   4  13
ATOM     13  N   UNL     1      47.992   5.804  15.281  0.00  0.00    +0.000 N 
ATOM     14  H   UNL     1      47.983   6.814  15.424  0.00  0.00    +0.000 HD
BRANCH  13  15
ATOM     15  C   UNL     1      47.783   5.097  16.546  0.00  0.00    +0.000 C 
BRANCH  15  16
ATOM     16  C   UNL     1      48.976   4.211  16.853  0.00  0.00    +0.000 A 
ATOM     17  C   UNL     1      48.836   2.821  16.825  0.00  0.00    +0.000 A 
ATOM     18  C   UNL     1      49.927   2.021  17.149  0.00  0.00    +0.000 A 
ATOM     19  C   UNL     1      51.128   2.628  17.491  0.00  0.00    +0.000 A 
ATOM     20  C   UNL     1      51.184   4.011  17.489  0.00  0.00    +0.000 A 
ATOM     21  F   UNL     1      52.343   4.600  17.819  0.00  0.00    +0.000 F 
ATOM     22  N   UNL     1      50.146   4.816  17.181  0.00  0.00    +0.000 NA
ENDBRANCH  15  16
ENDBRANCH  13  15
ENDBRANCH   4  13
TORSDOF 5
ENDMDL
MODEL 9
REMARK VINA RESULT:    -5.533      5.123      8.159
REMARK INTER + INTRA:          -7.469
REMARK INTER:                  -7.071
REMARK INTRA:                  -0.398
REMARK UNBOUND:                -0.480
REMARK  Name = 
REMARK  5 active torsions:
REMARK  status: ('A' for Active; 'I' for Inactive)
REMARK    1  A    between atoms: N_1  and  S_2
REMARK    2  A    between atoms: S_2  and  C_5
REMARK    3  A    between atoms: C_8  and  N_9
REMARK    4  A    between atoms: N_9  and  C_10
REMARK    5  A    between atoms: C_10  and  C_11
REMARK                            x       y       z     vdW  Elec       q    Type
REMARK                         _______ _______ _______ _____ _____    ______ ____
ROOT
ATOM      1  C   UNL     1      45.095   4.508  11.524  0.00  0.00    +0.000 A 
ATOM      2  C   UNL     1      45.328   4.151  12.853  0.00  0.00    +0.000 A 
ATOM      3  C   UNL     1      46.057   5.014  13.681  0.00  0.00    +0.000 A 
ATOM      4  C   UNL     1      46.584   6.213  13.182  0.00  0.00    +0.000 A 
ATOM      5  C   UNL     1      46.279   6.580  11.867  0.00  0.00    +0.000 A 
ATOM      6  C   UNL     1      45.559   5.727  11.028  0.00  0.00    +0.000 A 
ENDROOT
BRANCH   1   7
ATOM      7  S   UNL     1      44.297   3.381  10.418  0.00  0.00    +0.000 S 
ATOM      8  O   UNL     1      43.125   2.834  11.060  0.00  0.00    +0.000 OA
ATOM      9  O   UNL     1      45.295   2.547   9.788  0.00  0.00    +0.000 OA
BRANCH   7  10
ATOM     10  N   UNL     1      43.732   4.407   9.217  0.00  0.00    +0.000 NA
ATOM     11  H   UNL     1      44.390   5.178   9.096  0.00  0.00    +0.000 HD
ATOM     12  H   UNL     1      42.783   4.707   9.435  0.00  0.00    +0.000 HD
ENDBRANCH   7  10
ENDBRANCH   1   7
BRANCH   4  13
ATOM     13  N   UNL     1      47.349   7.109  13.936  0.00  0.00    +0.000 N 
ATOM     14  H   UNL     1      46.800   7.493  14.705  0.00  0.00    +0.000 HD
BRANCH  13  15
ATOM     15  C   UNL     1      48.666   6.672  14.404  0.00  0.00    +0.000 C 
BRANCH  15  16
ATOM     16  C   UNL     1      48.690   6.617  15.920  0.00  0.00    +0.000 A 
ATOM     17  C   UNL     1      48.620   5.383  16.572  0.00  0.00    +0.000 A 
ATOM     18  C   UNL     1      48.601   5.349  17.963  0.00  0.00    +0.000 A 
ATOM     19  C   UNL     1      48.656   6.546  18.665  0.00  0.00    +0.000 A 
ATOM     20  C   UNL     1      48.730   7.724  17.943  0.00  0.00    +0.000 A 
ATOM     21  F   UNL     1      48.782   8.881  18.619  0.00  0.00    +0.000 F 
ATOM     22  N   UNL     1      48.749   7.793  16.595  0.00  0.00    +0.000 NA
ENDBRANCH  15  16
ENDBRANCH  13  15
ENDBRANCH   4  13
TORSDOF 5
ENDMDL
