MODEL 1
REMARK VINA RESULT:    -7.487      0.000      0.000
REMARK INTER + INTRA:          -9.796
REMARK INTER:                  -9.238
REMARK INTRA:                  -0.558
REMARK UNBOUND:                -0.558
REMARK  Name = 
REMARK  5 active torsions:
REMARK  status: ('A' for Active; 'I' for Inactive)
REMARK    1  A    between atoms: C_1  and  O_2
REMARK    2  A    between atoms: O_2  and  C_3
REMARK    3  A    between atoms: N_7  and  C_8
REMARK    4  A    between atoms: C_8  and  C_9
REMARK    5  A    between atoms: C_13  and  C_14
REMARK                            x       y       z     vdW  Elec       q    Type
REMARK                         _______ _______ _______ _____ _____    ______ ____
ROOT
ATOM      1  C   UNL     1      44.812   4.792  11.573  0.00  0.00    +0.000 A 
ATOM      2  C   UNL     1      44.732   3.976  12.696  0.00  0.00    +0.000 A 
ATOM      3  N   UNL     1      45.570   4.098  13.750  0.00  0.00    +0.000 NA
ATOM      4  C   UNL     1      46.482   5.095  13.652  0.00  0.00    +0.000 A 
ATOM      5  C   UNL     1      46.585   5.937  12.546  0.00  0.00    +0.000 A 
ATOM      6  N   UNL     1      45.754   5.772  11.481  0.00  0.00    +0.000 NA
ENDROOT
BRANCH   5   7
ATOM      7  C   UNL     1      47.553   7.029  12.442  0.00  0.00    +0.000 A 
ATOM      8  C   UNL     1      48.910   6.847  12.654  0.00  0.00    +0.000 A 
ATOM      9  N   UNL     1      49.844   7.823  12.576  0.00  0.00    +0.000 NA
ATOM     10  C   UNL     1      49.386   9.041  12.258  0.00  0.00    +0.000 A 
ATOM     11  N   UNL     1      48.107   9.354  12.015  0.00  0.00    +0.000 NA
ATOM     12  C   UNL     1      47.224   8.335  12.110  0.00  0.00    +0.000 A 
ENDBRANCH   5   7
BRANCH   1  13
ATOM     13  C   UNL     1      43.814   4.638  10.444  0.00  0.00    +0.000 C 
BRANCH  13  18
ATOM     14  C   UNL     1      46.998   2.263   7.218  0.00  0.00    +0.000 A 
ATOM     15  C   UNL     1      46.648   3.602   7.298  0.00  0.00    +0.000 A 
ATOM     16  C   UNL     1      45.630   3.994   8.170  0.00  0.00    +0.000 A 
ATOM     17  C   UNL     1      44.991   3.053   8.966  0.00  0.00    +0.000 A 
ATOM     18  N   UNL     1      43.933   3.339   9.803  0.00  0.00    +0.000 N 
ATOM     19  N   UNL     1      45.339   1.752   8.922  0.00  0.00    +0.000 NA
ATOM     20  C   UNL     1      46.321   1.391   8.055  0.00  0.00    +0.000 A 
ATOM     21  H   UNL     1      43.775   2.524  10.388  0.00  0.00    +0.000 HD
BRANCH  14  23
ATOM     22  C   UNL     1      48.081   2.332   5.111  0.00  0.00    +0.000 C 
ATOM     23  O   UNL     1      47.939   1.724   6.391  0.00  0.00    +0.000 OA
ENDBRANCH  14  23
ENDBRANCH  13  18
ENDBRANCH   1  13
TORSDOF 4
ENDMDL
MODEL 2
REMARK VINA RESULT:    -7.129      2.572      6.441
REMARK INTER + INTRA:          -9.354
REMARK INTER:                  -8.798
REMARK INTRA:                  -0.555
REMARK UNBOUND:                -0.558
REMARK  Name = 
REMARK  5 active torsions:
REMARK  status: ('A' for Active; 'I' for Inactive)
REMARK    1  A    between atoms: C_1  and  O_2
REMARK    2  A    between atoms: O_2  and  C_3
REMARK    3  A    between atoms: N_7  and  C_8
REMARK    4  A    between atoms: C_8  and  C_9
REMARK    5  A    between atoms: C_13  and  C_14
REMARK                            x       y       z     vdW  Elec       q    Type
REMARK                         _______ _______ _______ _____ _____    ______ ____
ROOT
ATOM      1  C   UNL     1      44.376   4.524  12.035  0.00  0.00    +0.000 A 
ATOM      2  C   UNL     1      43.439   3.598  12.480  0.00  0.00    +0.000 A 
ATOM      3  N   UNL     1      43.111   2.492  11.774  0.00  0.00    +0.000 NA
ATOM      4  C   UNL     1      43.782   2.329  10.609  0.00  0.00    +0.000 A 
ATOM      5  C   UNL     1      44.733   3.231  10.137  0.00  0.00    +0.000 A 
ATOM      6  N   UNL     1      45.022   4.357  10.847  0.00  0.00    +0.000 NA
ENDROOT
BRANCH   5   7
ATOM      7  C   UNL     1      45.478   3.051   8.890  0.00  0.00    +0.000 A 
ATOM      8  C   UNL     1      45.768   4.102   8.036  0.00  0.00    +0.000 A 
ATOM      9  N   UNL     1      46.447   3.989   6.870  0.00  0.00    +0.000 NA
ATOM     10  C   UNL     1      46.861   2.755   6.558  0.00  0.00    +0.000 A 
ATOM     11  N   UNL     1      46.662   1.655   7.296  0.00  0.00    +0.000 NA
ATOM     12  C   UNL     1      45.977   1.836   8.448  0.00  0.00    +0.000 A 
ENDBRANCH   5   7
BRANCH   1  13
ATOM     13  C   UNL     1      44.736   5.719  12.894  0.00  0.00    +0.000 C 
BRANCH  13  18
ATOM     14  C   UNL     1      49.461   7.681  12.741  0.00  0.00    +0.000 A 
ATOM     15  C   UNL     1      48.533   7.514  11.724  0.00  0.00    +0.000 A 
ATOM     16  C   UNL     1      47.357   6.805  11.977  0.00  0.00    +0.000 A 
ATOM     17  C   UNL     1      47.110   6.292  13.244  0.00  0.00    +0.000 A 
ATOM     18  N   UNL     1      46.010   5.525  13.565  0.00  0.00    +0.000 N 
ATOM     19  N   UNL     1      47.987   6.471  14.251  0.00  0.00    +0.000 NA
ATOM     20  C   UNL     1      49.131   7.149  13.978  0.00  0.00    +0.000 A 
ATOM     21  H   UNL     1      45.985   5.433  14.577  0.00  0.00    +0.000 HD
BRANCH  14  23
ATOM     22  C   UNL     1      51.139   8.559  11.317  0.00  0.00    +0.000 C 
ATOM     23  O   UNL     1      50.665   8.311  12.637  0.00  0.00    +0.000 OA
ENDBRANCH  14  23
ENDBRANCH  13  18
ENDBRANCH   1  13
TORSDOF 4
ENDMDL
MODEL 3
REMARK VINA RESULT:    -6.991      2.592      6.429
REMARK INTER + INTRA:          -9.183
REMARK INTER:                  -8.805
REMARK INTRA:                  -0.378
REMARK UNBOUND:                -0.558
REMARK  Name = 
REMARK  5 active torsions:
REMARK  status: ('A' for Active; 'I' for Inactive)
REMARK    1  A    between atoms: C_1  and  O_2
REMARK    2  A    between atoms: O_2  and  C_3
REMARK    3  A    between atoms: N_7  and  C_8
REMARK    4  A    between atoms: C_8  and  C_9
REMARK    5  A    between atoms: C_13  and  C_14
REMARK                            x       y       z     vdW  Elec       q    Type
REMARK                         _______ _______ _______ _____ _____    ______ ____
ROOT
ATOM      1  C   UNL     1      43.563   4.694  10.732  0.00  0.00    +0.000 A 
ATOM      2  C   UNL     1      43.047   3.701  11.556  0.00  0.00    +0.000 A 
ATOM      3  N   UNL     1      43.305   2.387  11.368  0.00  0.00    +0.000 NA
ATOM      4  C   UNL     1      44.130   2.101  10.333  0.00  0.00    +0.000 A 
ATOM      5  C   UNL     1      44.672   3.071   9.491  0.00  0.00    +0.000 A 
ATOM      6  N   UNL     1      44.369   4.385   9.677  0.00  0.00    +0.000 NA
ENDROOT
BRANCH   5   7
ATOM      7  C   UNL     1      45.580   2.773   8.383  0.00  0.00    +0.000 A 
ATOM      8  C   UNL     1      45.929   3.715   7.430  0.00  0.00    +0.000 A 
ATOM      9  N   UNL     1      46.759   3.489   6.384  0.00  0.00    +0.000 NA
ATOM     10  C   UNL     1      47.268   2.253   6.304  0.00  0.00    +0.000 A 
ATOM     11  N   UNL     1      47.026   1.252   7.161  0.00  0.00    +0.000 NA
ATOM     12  C   UNL     1      46.189   1.543   8.183  0.00  0.00    +0.000 A 
ENDBRANCH   5   7
BRANCH   1  13
ATOM     13  C   UNL     1      43.277   6.153  11.022  0.00  0.00    +0.000 C 
BRANCH  13  18
ATOM     14  C   UNL     1      47.811   6.317  13.390  0.00  0.00    +0.000 A 
ATOM     15  C   UNL     1      46.568   5.938  13.873  0.00  0.00    +0.000 A 
ATOM     16  C   UNL     1      45.436   6.126  13.077  0.00  0.00    +0.000 A 
ATOM     17  C   UNL     1      45.559   6.668  11.804  0.00  0.00    +0.000 A 
ATOM     18  N   UNL     1      44.492   6.950  10.979  0.00  0.00    +0.000 N 
ATOM     19  N   UNL     1      46.763   7.014  11.309  0.00  0.00    +0.000 NA
ATOM     20  C   UNL     1      47.848   6.836  12.106  0.00  0.00    +0.000 A 
ATOM     21  H   UNL     1      44.864   7.168  10.059  0.00  0.00    +0.000 HD
BRANCH  14  23
ATOM     22  C   UNL     1      49.788   7.415  14.099  0.00  0.00    +0.000 C 
ATOM     23  O   UNL     1      48.996   6.232  14.060  0.00  0.00    +0.000 OA
ENDBRANCH  14  23
ENDBRANCH  13  18
ENDBRANCH   1  13
TORSDOF 4
ENDMDL
MODEL 4
REMARK VINA RESULT:    -6.807      3.958      7.804
REMARK INTER + INTRA:          -8.957
REMARK INTER:                  -8.618
REMARK INTRA:                  -0.339
REMARK UNBOUND:                -0.558
REMARK  Name = 
REMARK  5 active torsions:
REMARK  status: ('A' for Active; 'I' for Inactive)
REMARK    1  A    between atoms: C_1  and  O_2
REMARK    2  A    between atoms: O_2  and  C_3
REMARK    3  A    between atoms: N_7  and  C_8
REMARK    4  A    between atoms: C_8  and  C_9
REMARK    5  A    between atoms: C_13  and  C_14
REMARK                            x       y       z     vdW  Elec       q    Type
REMARK                         _______ _______ _______ _____ _____    ______ ____
ROOT
ATOM      1  C   UNL     1      45.106   5.085  12.733  0.00  0.00    +0.000 A 
ATOM      2  C   UNL     1      43.735   5.186  12.938  0.00  0.00    +0.000 A 
ATOM      3  N   UNL     1      42.827   4.831  12.001  0.00  0.00    +0.000 NA
ATOM      4  C   UNL     1      43.344   4.339  10.851  0.00  0.00    +0.000 A 
ATOM      5  C   UNL     1      44.712   4.216  10.614  0.00  0.00    +0.000 A 
ATOM      6  N   UNL     1      45.609   4.613  11.558  0.00  0.00    +0.000 NA
ENDROOT
BRANCH   5   7
ATOM      7  C   UNL     1      45.279   3.665   9.382  0.00  0.00    +0.000 A 
ATOM      8  C   UNL     1      45.434   2.305   9.175  0.00  0.00    +0.000 A 
ATOM      9  N   UNL     1      45.956   1.745   8.058  0.00  0.00    +0.000 NA
ATOM     10  C   UNL     1      46.333   2.603   7.101  0.00  0.00    +0.000 A 
ATOM     11  N   UNL     1      46.229   3.937   7.164  0.00  0.00    +0.000 NA
ATOM     12  C   UNL     1      45.699   4.432   8.305  0.00  0.00    +0.000 A 
ENDBRANCH   5   7
BRANCH   1  13
ATOM     13  C   UNL     1      46.074   5.453  13.839  0.00  0.00    +0.000 C 
BRANCH  13  18
ATOM     14  C   UNL     1      48.771   4.458  18.073  0.00  0.00    +0.000 A 
ATOM     15  C   UNL     1      49.040   5.332  17.032  0.00  0.00    +0.000 A 
ATOM     16  C   UNL     1      48.227   5.319  15.896  0.00  0.00    +0.000 A 
ATOM     17  C   UNL     1      47.144   4.452  15.823  0.00  0.00    +0.000 A 
ATOM     18  N   UNL     1      46.331   4.324  14.717  0.00  0.00    +0.000 N 
ATOM     19  N   UNL     1      46.851   3.617  16.838  0.00  0.00    +0.000 NA
ATOM     20  C   UNL     1      47.665   3.636  17.926  0.00  0.00    +0.000 A 
ATOM     21  H   UNL     1      45.529   3.764  14.989  0.00  0.00    +0.000 HD
BRANCH  14  23
ATOM     22  C   UNL     1      48.775   4.482  20.443  0.00  0.00    +0.000 C 
ATOM     23  O   UNL     1      49.493   4.327  19.223  0.00  0.00    +0.000 OA
ENDBRANCH  14  23
ENDBRANCH  13  18
ENDBRANCH   1  13
TORSDOF 4
ENDMDL
MODEL 5
REMARK VINA RESULT:    -6.694      1.882      3.198
REMARK INTER + INTRA:          -8.817
REMARK INTER:                  -8.375
REMARK INTRA:                  -0.443
REMARK UNBOUND:                -0.558
REMARK  Name = 
REMARK  5 active torsions:
REMARK  status: ('A' for Active; 'I' for Inactive)
REMARK    1  A    between atoms: C_1  and  O_2
REMARK    2  A    between atoms: O_2  and  C_3
REMARK    3  A    between atoms: N_7  and  C_8
REMARK    4  A    between atoms: C_8  and  C_9
REMARK    5  A    between atoms: C_13  and  C_14
REMARK                            x       y       z     vdW  Elec       q    Type
REMARK                         _______ _______ _______ _____ _____    ______ ____
ROOT
ATOM      1  C   UNL     1      44.839   5.677  11.946  0.00  0.00    +0.000 A 
ATOM      2  C   UNL     1      45.448   6.722  11.262  0.00  0.00    +0.000 A 
ATOM      3  N   UNL     1      46.638   7.246  11.636  0.00  0.00    +0.000 NA
ATOM      4  C   UNL     1      47.215   6.661  12.713  0.00  0.00    +0.000 A 
ATOM      5  C   UNL     1      46.636   5.607  13.417  0.00  0.00    +0.000 A 
ATOM      6  N   UNL     1      45.421   5.119  13.045  0.00  0.00    +0.000 NA
ENDROOT
BRANCH   5   7
ATOM      7  C   UNL     1      47.263   4.956  14.569  0.00  0.00    +0.000 A 
ATOM      8  C   UNL     1      47.187   3.590  14.786  0.00  0.00    +0.000 A 
ATOM      9  N   UNL     1      47.743   2.940  15.836  0.00  0.00    +0.000 NA
ATOM     10  C   UNL     1      48.415   3.708  16.703  0.00  0.00    +0.000 A 
ATOM     11  N   UNL     1      48.577   5.034  16.609  0.00  0.00    +0.000 NA
ATOM     12  C   UNL     1      47.998   5.622  15.538  0.00  0.00    +0.000 A 
ENDBRANCH   5   7
BRANCH   1  13
ATOM     13  C   UNL     1      43.528   5.101  11.450  0.00  0.00    +0.000 C 
BRANCH  13  18
ATOM     14  C   UNL     1      45.907   2.635   7.648  0.00  0.00    +0.000 A 
ATOM     15  C   UNL     1      45.340   3.900   7.671  0.00  0.00    +0.000 A 
ATOM     16  C   UNL     1      44.602   4.301   8.786  0.00  0.00    +0.000 A 
ATOM     17  C   UNL     1      44.457   3.448   9.872  0.00  0.00    +0.000 A 
ATOM     18  N   UNL     1      43.693   3.734  10.983  0.00  0.00    +0.000 N 
ATOM     19  N   UNL     1      45.026   2.227   9.878  0.00  0.00    +0.000 NA
ATOM     20  C   UNL     1      45.727   1.851   8.777  0.00  0.00    +0.000 A 
ATOM     21  H   UNL     1      43.899   3.032  11.687  0.00  0.00    +0.000 HD
BRANCH  14  23
ATOM     22  C   UNL     1      48.036   2.200   6.702  0.00  0.00    +0.000 C 
ATOM     23  O   UNL     1      46.619   2.089   6.621  0.00  0.00    +0.000 OA
ENDBRANCH  14  23
ENDBRANCH  13  18
ENDBRANCH   1  13
TORSDOF 4
ENDMDL
MODEL 6
REMARK VINA RESULT:    -6.291      5.529      8.468
REMARK INTER + INTRA:          -8.320
REMARK INTER:                  -7.909
REMARK INTRA:                  -0.411
REMARK UNBOUND:                -0.558
REMARK  Name = 
REMARK  5 active torsions:
REMARK  status: ('A' for Active; 'I' for Inactive)
REMARK    1  A    between atoms: C_1  and  O_2
REMARK    2  A    between atoms: O_2  and  C_3
REMARK    3  A    between atoms: N_7  and  C_8
REMARK    4  A    between atoms: C_8  and  C_9
REMARK    5  A    between atoms: C_13  and  C_14
REMARK                            x       y       z     vdW  Elec       q    Type
REMARK                         _______ _______ _______ _____ _____    ______ ____
ROOT
ATOM      1  C   UNL     1      47.615   4.159  15.773  0.00  0.00    +0.000 A 
ATOM      2  C   UNL     1      48.362   5.326  15.668  0.00  0.00    +0.000 A 
ATOM      3  N   UNL     1      48.128   6.261  14.719  0.00  0.00    +0.000 NA
ATOM      4  C   UNL     1      47.091   5.998  13.890  0.00  0.00    +0.000 A 
ATOM      5  C   UNL     1      46.315   4.843  13.972  0.00  0.00    +0.000 A 
ATOM      6  N   UNL     1      46.591   3.897  14.912  0.00  0.00    +0.000 NA
ENDROOT
BRANCH   5   7
ATOM      7  C   UNL     1      45.179   4.560  13.093  0.00  0.00    +0.000 A 
ATOM      8  C   UNL     1      45.128   3.444  12.275  0.00  0.00    +0.000 A 
ATOM      9  N   UNL     1      44.105   3.140  11.442  0.00  0.00    +0.000 NA
ATOM     10  C   UNL     1      43.081   4.002  11.442  0.00  0.00    +0.000 A 
ATOM     11  N   UNL     1      42.994   5.110  12.189  0.00  0.00    +0.000 NA
ATOM     12  C   UNL     1      44.048   5.357  13.000  0.00  0.00    +0.000 A 
ENDBRANCH   5   7
BRANCH   1  13
ATOM     13  C   UNL     1      47.894   3.171  16.887  0.00  0.00    +0.000 C 
BRANCH  13  18
ATOM     14  C   UNL     1      52.760   2.206  18.148  0.00  0.00    +0.000 A 
ATOM     15  C   UNL     1      52.072   3.409  18.109  0.00  0.00    +0.000 A 
ATOM     16  C   UNL     1      50.781   3.445  17.579  0.00  0.00    +0.000 A 
ATOM     17  C   UNL     1      50.183   2.281  17.115  0.00  0.00    +0.000 A 
ATOM     18  N   UNL     1      48.942   2.235  16.516  0.00  0.00    +0.000 N 
ATOM     19  N   UNL     1      50.826   1.098  17.172  0.00  0.00    +0.000 NA
ATOM     20  C   UNL     1      52.087   1.089  17.678  0.00  0.00    +0.000 A 
ATOM     21  H   UNL     1      48.676   1.258  16.436  0.00  0.00    +0.000 HD
BRANCH  14  23
ATOM     22  C   UNL     1      54.619   0.748  18.334  0.00  0.00    +0.000 C 
ATOM     23  O   UNL     1      54.033   2.019  18.598  0.00  0.00    +0.000 OA
ENDBRANCH  14  23
ENDBRANCH  13  18
ENDBRANCH   1  13
TORSDOF 4
ENDMDL
MODEL 7
REMARK VINA RESULT:    -6.264      5.020      6.694
REMARK INTER + INTRA:          -8.287
REMARK INTER:                  -7.955
REMARK INTRA:                  -0.332
REMARK UNBOUND:                -0.558
REMARK  Name = 
REMARK  5 active torsions:
REMARK  status: ('A' for Active; 'I' for Inactive)
REMARK    1  A    between atoms: C_1  and  O_2
REMARK    2  A    between atoms: O_2  and  C_3
REMARK    3  A    between atoms: N_7  and  C_8
REMARK    4  A    between atoms: C_8  and  C_9
REMARK    5  A    between atoms: C_13  and  C_14
REMARK                            x       y       z     vdW  Elec       q    Type
REMARK                         _______ _______ _______ _____ _____    ______ ____
ROOT
ATOM      1  C   UNL     1      48.089   4.771  16.586  0.00  0.00    +0.000 A 
ATOM      2  C   UNL     1      47.473   5.172  17.766  0.00  0.00    +0.000 A 
ATOM      3  N   UNL     1      47.959   4.859  18.988  0.00  0.00    +0.000 NA
ATOM      4  C   UNL     1      49.112   4.148  18.988  0.00  0.00    +0.000 A 
ATOM      5  C   UNL     1      49.761   3.737  17.825  0.00  0.00    +0.000 A 
ATOM      6  N   UNL     1      49.234   4.032  16.605  0.00  0.00    +0.000 NA
ENDROOT
BRANCH   5   7
ATOM      7  C   UNL     1      51.018   2.987  17.816  0.00  0.00    +0.000 A 
ATOM      8  C   UNL     1      51.101   1.676  17.375  0.00  0.00    +0.000 A 
ATOM      9  N   UNL     1      52.235   0.937  17.351  0.00  0.00    +0.000 NA
ATOM     10  C   UNL     1      53.340   1.557  17.785  0.00  0.00    +0.000 A 
ATOM     11  N   UNL     1      53.405   2.820  18.225  0.00  0.00    +0.000 NA
ATOM     12  C   UNL     1      52.238   3.504  18.223  0.00  0.00    +0.000 A 
ENDBRANCH   5   7
BRANCH   1  13
ATOM     13  C   UNL     1      47.522   5.194  15.246  0.00  0.00    +0.000 C 
BRANCH  13  18
ATOM     14  C   UNL     1      44.544   4.555  11.133  0.00  0.00    +0.000 A 
ATOM     15  C   UNL     1      44.936   5.719  11.776  0.00  0.00    +0.000 A 
ATOM     16  C   UNL     1      45.631   5.636  12.984  0.00  0.00    +0.000 A 
ATOM     17  C   UNL     1      45.947   4.396  13.524  0.00  0.00    +0.000 A 
ATOM     18  N   UNL     1      46.570   4.219  14.742  0.00  0.00    +0.000 N 
ATOM     19  N   UNL     1      45.600   3.255  12.897  0.00  0.00    +0.000 NA
ATOM     20  C   UNL     1      44.910   3.360  11.732  0.00  0.00    +0.000 A 
ATOM     21  H   UNL     1      46.835   3.241  14.812  0.00  0.00    +0.000 HD
BRANCH  14  23
ATOM     22  C   UNL     1      44.545   4.053   8.817  0.00  0.00    +0.000 C 
ATOM     23  O   UNL     1      43.830   4.476   9.974  0.00  0.00    +0.000 OA
ENDBRANCH  14  23
ENDBRANCH  13  18
ENDBRANCH   1  13
TORSDOF 4
ENDMDL
MODEL 8
REMARK VINA RESULT:    -5.967      4.191      8.050
REMARK INTER + INTRA:          -7.920
REMARK INTER:                  -7.536
REMARK INTRA:                  -0.384
REMARK UNBOUND:                -0.558
REMARK  Name = 
REMARK  5 active torsions:
REMARK  status: ('A' for Active; 'I' for Inactive)
REMARK    1  A    between atoms: C_1  and  O_2
REMARK    2  A    between atoms: O_2  and  C_3
REMARK    3  A    between atoms: N_7  and  C_8
REMARK    4  A    between atoms: C_8  and  C_9
REMARK    5  A    between atoms: C_13  and  C_14
REMARK                            x       y       z     vdW  Elec       q    Type
REMARK                         _______ _______ _______ _____ _____    ______ ____
ROOT
ATOM      1  C   UNL     1      46.590   6.732  12.976  0.00  0.00    +0.000 A 
ATOM      2  C   UNL     1      45.918   7.944  12.868  0.00  0.00    +0.000 A 
ATOM      3  N   UNL     1      44.981   8.178  11.922  0.00  0.00    +0.000 NA
ATOM      4  C   UNL     1      44.716   7.137  11.098  0.00  0.00    +0.000 A 
ATOM      5  C   UNL     1      45.365   5.906  11.182  0.00  0.00    +0.000 A 
ATOM      6  N   UNL     1      46.331   5.704  12.119  0.00  0.00    +0.000 NA
ENDROOT
BRANCH   5   7
ATOM      7  C   UNL     1      45.070   4.769  10.309  0.00  0.00    +0.000 A 
ATOM      8  C   UNL     1      45.495   4.709   8.992  0.00  0.00    +0.000 A 
ATOM      9  N   UNL     1      45.245   3.686   8.143  0.00  0.00    +0.000 NA
ATOM     10  C   UNL     1      44.539   2.669   8.652  0.00  0.00    +0.000 A 
ATOM     11  N   UNL     1      44.078   2.590   9.907  0.00  0.00    +0.000 NA
ATOM     12  C   UNL     1      44.361   3.645  10.704  0.00  0.00    +0.000 A 
ENDBRANCH   5   7
BRANCH   1  13
ATOM     13  C   UNL     1      47.596   6.512  14.087  0.00  0.00    +0.000 C 
BRANCH  13  18
ATOM     14  C   UNL     1      48.375   4.217  18.594  0.00  0.00    +0.000 A 
ATOM     15  C   UNL     1      49.044   5.281  18.010  0.00  0.00    +0.000 A 
ATOM     16  C   UNL     1      48.751   5.637  16.692  0.00  0.00    +0.000 A 
ATOM     17  C   UNL     1      47.780   4.944  15.981  0.00  0.00    +0.000 A 
ATOM     18  N   UNL     1      47.474   5.182  14.658  0.00  0.00    +0.000 N 
ATOM     19  N   UNL     1      47.100   3.925  16.543  0.00  0.00    +0.000 NA
ATOM     20  C   UNL     1      47.413   3.587  17.821  0.00  0.00    +0.000 A 
ATOM     21  H   UNL     1      46.625   4.668  14.442  0.00  0.00    +0.000 HD
BRANCH  14  23
ATOM     22  C   UNL     1      48.820   4.691  20.873  0.00  0.00    +0.000 C 
ATOM     23  O   UNL     1      48.578   3.729  19.851  0.00  0.00    +0.000 OA
ENDBRANCH  14  23
ENDBRANCH  13  18
ENDBRANCH   1  13
TORSDOF 4
ENDMDL
MODEL 9
REMARK VINA RESULT:    -5.957      3.173      5.756
REMARK INTER + INTRA:          -7.908
REMARK INTER:                  -7.376
REMARK INTRA:                  -0.532
REMARK UNBOUND:                -0.558
REMARK  Name = 
REMARK  5 active torsions:
REMARK  status: ('A' for Active; 'I' for Inactive)
REMARK    1  A    between atoms: C_1  and  O_2
REMARK    2  A    between atoms: O_2  and  C_3
REMARK    3  A    between atoms: N_7  and  C_8
REMARK    4  A    between atoms: C_8  and  C_9
REMARK    5  A    between atoms: C_13  and  C_14
REMARK                            x       y       z     vdW  Elec       q    Type
REMARK                         _______ _______ _______ _____ _____    ______ ____
ROOT
ATOM      1  C   UNL     1      48.262   7.731  14.014  0.00  0.00    +0.000 A 
ATOM      2  C   UNL     1      49.504   8.342  14.130  0.00  0.00    +0.000 A 
ATOM      3  N   UNL     1      50.426   7.959  15.043  0.00  0.00    +0.000 NA
ATOM      4  C   UNL     1      50.066   6.914  15.825  0.00  0.00    +0.000 A 
ATOM      5  C   UNL     1      48.832   6.272  15.731  0.00  0.00    +0.000 A 
ATOM      6  N   UNL     1      47.906   6.697  14.829  0.00  0.00    +0.000 NA
ENDROOT
BRANCH   5   7
ATOM      7  C   UNL     1      48.444   5.129  16.558  0.00  0.00    +0.000 A 
ATOM      8  C   UNL     1      49.220   4.671  17.610  0.00  0.00    +0.000 A 
ATOM      9  N   UNL     1      48.910   3.616  18.400  0.00  0.00    +0.000 NA
ATOM     10  C   UNL     1      47.755   3.000  18.119  0.00  0.00    +0.000 A 
ATOM     11  N   UNL     1      46.905   3.344  17.142  0.00  0.00    +0.000 NA
ATOM     12  C   UNL     1      47.273   4.406  16.390  0.00  0.00    +0.000 A 
ENDBRANCH   5   7
BRANCH   1  13
ATOM     13  C   UNL     1      47.290   8.172  12.939  0.00  0.00    +0.000 C 
BRANCH  13  18
ATOM     14  C   UNL     1      44.279   4.473  11.081  0.00  0.00    +0.000 A 
ATOM     15  C   UNL     1      45.230   5.253  10.441  0.00  0.00    +0.000 A 
ATOM     16  C   UNL     1      45.822   6.316  11.126  0.00  0.00    +0.000 A 
ATOM     17  C   UNL     1      45.476   6.575  12.446  0.00  0.00    +0.000 A 
ATOM     18  N   UNL     1      45.959   7.640  13.176  0.00  0.00    +0.000 N 
ATOM     19  N   UNL     1      44.576   5.809  13.092  0.00  0.00    +0.000 NA
ATOM     20  C   UNL     1      44.002   4.790  12.401  0.00  0.00    +0.000 A 
ATOM     21  H   UNL     1      45.690   7.496  14.145  0.00  0.00    +0.000 HD
BRANCH  14  23
ATOM     22  C   UNL     1      44.363   2.446   9.857  0.00  0.00    +0.000 C 
ATOM     23  O   UNL     1      43.590   3.432  10.534  0.00  0.00    +0.000 OA
ENDBRANCH  14  23
ENDBRANCH  13  18
ENDBRANCH   1  13
TORSDOF 4
ENDMDL
