MODEL 1
REMARK VINA RESULT:    -8.137      0.000      0.000
REMARK INTER + INTRA:         -11.543
REMARK INTER:                 -10.991
REMARK INTRA:                  -0.552
REMARK UNBOUND:                -0.552
REMARK  Name = 
REMARK  7 active torsions:
REMARK  status: ('A' for Active; 'I' for Inactive)
REMARK    1  A    between atoms: C_1  and  S_2
REMARK    2  A    between atoms: S_2  and  C_5
REMARK    3  A    between atoms: C_8  and  C_9
REMARK    4  A    between atoms: C_13  and  C_14
REMARK    5  A    between atoms: C_14  and  C_15
REMARK    6  A    between atoms: C_15  and  C_16
REMARK    7  A    between atoms: C_20  and  C_21
REMARK                            x       y       z     vdW  Elec       q    Type
REMARK                         _______ _______ _______ _____ _____    ______ ____
ROOT
ATOM      1  C   UNL     1      46.074   5.808  13.390  0.00  0.00    +0.000 A 
ATOM      2  C   UNL     1      46.006   7.089  12.841  0.00  0.00    +0.000 A 
ATOM      3  N   UNL     1      45.154   7.471  11.859  0.00  0.00    +0.000 NA
ATOM      4  C   UNL     1      44.319   6.526  11.377  0.00  0.00    +0.000 A 
ATOM      5  C   UNL     1      44.276   5.214  11.834  0.00  0.00    +0.000 A 
ATOM      6  C   UNL     1      45.179   4.872  12.848  0.00  0.00    +0.000 A 
ENDROOT
BRANCH   1  10
ATOM      7  C   UNL     1      48.799   4.745  16.539  0.00  0.00    +0.000 A 
ATOM      8  C   UNL     1      48.948   5.964  15.881  0.00  0.00    +0.000 A 
ATOM      9  C   UNL     1      48.055   6.309  14.861  0.00  0.00    +0.000 A 
ATOM     10  C   UNL     1      47.018   5.443  14.467  0.00  0.00    +0.000 A 
ATOM     11  C   UNL     1      46.908   4.212  15.148  0.00  0.00    +0.000 A 
ATOM     12  C   UNL     1      47.785   3.862  16.178  0.00  0.00    +0.000 A 
BRANCH   7  14
ATOM     13  C   UNL     1      50.931   5.747  18.014  0.00  0.00    +0.000 C 
ATOM     14  S   UNL     1      49.950   4.284  17.809  0.00  0.00    +0.000 S 
ATOM     15  O   UNL     1      50.801   3.241  17.268  0.00  0.00    +0.000 OA
ATOM     16  O   UNL     1      49.195   4.072  19.029  0.00  0.00    +0.000 OA
ENDBRANCH   7  14
ENDBRANCH   1  10
BRANCH   5  17
ATOM     17  C   UNL     1      43.343   4.213  11.194  0.00  0.00    +0.000 C 
BRANCH  17  18
ATOM     18  C   UNL     1      44.008   2.897  10.764  0.00  0.00    +0.000 C 
BRANCH  18  19
ATOM     19  C   UNL     1      44.834   3.043   9.519  0.00  0.00    +0.000 A 
ATOM     20  C   UNL     1      44.887   4.245   8.823  0.00  0.00    +0.000 A 
ATOM     21  N   UNL     1      45.596   4.427   7.688  0.00  0.00    +0.000 NA
ATOM     22  C   UNL     1      46.292   3.360   7.221  0.00  0.00    +0.000 A 
ATOM     23  C   UNL     1      46.324   2.119   7.839  0.00  0.00    +0.000 A 
ATOM     24  C   UNL     1      45.579   1.969   9.012  0.00  0.00    +0.000 A 
BRANCH  23  25
ATOM     25  C   UNL     1      47.096   0.961   7.324  0.00  0.00    +0.000 C 
ATOM     26  N   UNL     1      46.727  -0.302   7.694  0.00  0.00    +0.000 N 
ATOM     27  O   UNL     1      48.053   1.123   6.575  0.00  0.00    +0.000 OA
ATOM     28  H   UNL     1      45.960  -0.546   8.299  0.00  0.00    +0.000 HD
ATOM     29  H   UNL     1      47.275  -1.062   7.312  0.00  0.00    +0.000 HD
ENDBRANCH  23  25
ENDBRANCH  18  19
ENDBRANCH  17  18
ENDBRANCH   5  17
TORSDOF 6
ENDMDL
MODEL 2
REMARK VINA RESULT:    -8.125      3.975      4.688
REMARK INTER + INTRA:         -11.527
REMARK INTER:                 -10.605
REMARK INTRA:                  -0.922
REMARK UNBOUND:                -0.552
REMARK  Name = 
REMARK  7 active torsions:
REMARK  status: ('A' for Active; 'I' for Inactive)
REMARK    1  A    between atoms: C_1  and  S_2
REMARK    2  A    between atoms: S_2  and  C_5
REMARK    3  A    between atoms: C_8  and  C_9
REMARK    4  A    between atoms: C_13  and  C_14
REMARK    5  A    between atoms: C_14  and  C_15
REMARK    6  A    between atoms: C_15  and  C_16
REMARK    7  A    between atoms: C_20  and  C_21
REMARK                            x       y       z     vdW  Elec       q    Type
REMARK                         _______ _______ _______ _____ _____    ______ ____
ROOT
ATOM      1  C   UNL     1      46.785   6.020  12.524  0.00  0.00    +0.000 A 
ATOM      2  C   UNL     1      46.838   5.164  13.624  0.00  0.00    +0.000 A 
ATOM      3  N   UNL     1      46.013   4.108  13.829  0.00  0.00    +0.000 NA
ATOM      4  C   UNL     1      45.066   3.885  12.893  0.00  0.00    +0.000 A 
ATOM      5  C   UNL     1      44.903   4.655  11.748  0.00  0.00    +0.000 A 
ATOM      6  C   UNL     1      45.781   5.735  11.586  0.00  0.00    +0.000 A 
ENDROOT
BRANCH   1  10
ATOM      7  C   UNL     1      49.496   9.318  12.023  0.00  0.00    +0.000 A 
ATOM      8  C   UNL     1      48.123   9.532  11.920  0.00  0.00    +0.000 A 
ATOM      9  C   UNL     1      47.243   8.457  12.090  0.00  0.00    +0.000 A 
ATOM     10  C   UNL     1      47.714   7.155  12.343  0.00  0.00    +0.000 A 
ATOM     11  C   UNL     1      49.111   6.976  12.427  0.00  0.00    +0.000 A 
ATOM     12  C   UNL     1      49.999   8.044  12.273  0.00  0.00    +0.000 A 
BRANCH   7  14
ATOM     13  C   UNL     1      52.088   9.869  11.185  0.00  0.00    +0.000 C 
ATOM     14  S   UNL     1      50.619  10.669  11.772  0.00  0.00    +0.000 S 
ATOM     15  O   UNL     1      50.905  11.245  13.072  0.00  0.00    +0.000 OA
ATOM     16  O   UNL     1      50.089  11.484  10.696  0.00  0.00    +0.000 OA
ENDBRANCH   7  14
ENDBRANCH   1  10
BRANCH   5  17
ATOM     17  C   UNL     1      43.778   4.361  10.784  0.00  0.00    +0.000 C 
BRANCH  17  18
ATOM     18  C   UNL     1      44.138   4.535   9.301  0.00  0.00    +0.000 C 
BRANCH  18  19
ATOM     19  C   UNL     1      44.916   3.374   8.752  0.00  0.00    +0.000 A 
ATOM     20  C   UNL     1      44.758   2.091   9.262  0.00  0.00    +0.000 A 
ATOM     21  N   UNL     1      45.445   1.015   8.821  0.00  0.00    +0.000 NA
ATOM     22  C   UNL     1      46.335   1.224   7.818  0.00  0.00    +0.000 A 
ATOM     23  C   UNL     1      46.565   2.456   7.224  0.00  0.00    +0.000 A 
ATOM     24  C   UNL     1      45.834   3.546   7.706  0.00  0.00    +0.000 A 
BRANCH  23  25
ATOM     25  C   UNL     1      47.534   2.671   6.120  0.00  0.00    +0.000 C 
ATOM     26  N   UNL     1      48.873   2.587   6.385  0.00  0.00    +0.000 N 
ATOM     27  O   UNL     1      47.151   2.919   4.983  0.00  0.00    +0.000 OA
ATOM     28  H   UNL     1      49.293   2.387   7.278  0.00  0.00    +0.000 HD
ATOM     29  H   UNL     1      49.497   2.731   5.601  0.00  0.00    +0.000 HD
ENDBRANCH  23  25
ENDBRANCH  18  19
ENDBRANCH  17  18
ENDBRANCH   5  17
TORSDOF 6
ENDMDL
MODEL 3
REMARK VINA RESULT:    -8.089      3.057      3.486
REMARK INTER + INTRA:         -11.479
REMARK INTER:                 -10.656
REMARK INTRA:                  -0.823
REMARK UNBOUND:                -0.552
REMARK  Name = 
REMARK  7 active torsions:
REMARK  status: ('A' for Active; 'I' for Inactive)
REMARK    1  A    between atoms: C_1  and  S_2
REMARK    2  A    between atoms: S_2  and  C_5
REMARK    3  A    between atoms: C_8  and  C_9
REMARK    4  A    between atoms: C_13  and  C_14
REMARK    5  A    between atoms: C_14  and  C_15
REMARK    6  A    between atoms: C_15  and  C_16
REMARK    7  A    between atoms: C_20  and  C_21
REMARK                            x       y       z     vdW  Elec       q    Type
REMARK                         _______ _______ _______ _____ _____    ______ ____
ROOT
ATOM      1  C   UNL     1      46.569   6.542  12.734  0.00  0.00    +0.000 A 
ATOM      2  C   UNL     1      45.422   7.336  12.777  0.00  0.00    +0.000 A 
ATOM      3  N   UNL     1      44.153   6.877  12.657  0.00  0.00    +0.000 NA
ATOM      4  C   UNL     1      44.001   5.548  12.470  0.00  0.00    +0.000 A 
ATOM      5  C   UNL     1      45.054   4.643  12.411  0.00  0.00    +0.000 A 
ATOM      6  C   UNL     1      46.345   5.170  12.539  0.00  0.00    +0.000 A 
ENDROOT
BRANCH   1  10
ATOM      7  C   UNL     1      50.547   8.119  13.135  0.00  0.00    +0.000 A 
ATOM      8  C   UNL     1      49.857   7.691  14.268  0.00  0.00    +0.000 A 
ATOM      9  C   UNL     1      48.565   7.172  14.133  0.00  0.00    +0.000 A 
ATOM     10  C   UNL     1      47.934   7.091  12.877  0.00  0.00    +0.000 A 
ATOM     11  C   UNL     1      48.658   7.546  11.756  0.00  0.00    +0.000 A 
ATOM     12  C   UNL     1      49.955   8.053  11.876  0.00  0.00    +0.000 A 
BRANCH   7  14
ATOM     13  C   UNL     1      52.827   7.966  14.716  0.00  0.00    +0.000 C 
ATOM     14  S   UNL     1      52.172   8.812  13.303  0.00  0.00    +0.000 S 
ATOM     15  O   UNL     1      52.014  10.213  13.647  0.00  0.00    +0.000 OA
ATOM     16  O   UNL     1      52.941   8.412  12.141  0.00  0.00    +0.000 OA
ENDBRANCH   7  14
ENDBRANCH   1  10
BRANCH   5  17
ATOM     17  C   UNL     1      44.788   3.180  12.144  0.00  0.00    +0.000 C 
BRANCH  17  18
ATOM     18  C   UNL     1      44.033   2.890  10.839  0.00  0.00    +0.000 C 
BRANCH  18  19
ATOM     19  C   UNL     1      44.886   3.086   9.619  0.00  0.00    +0.000 A 
ATOM     20  C   UNL     1      45.005   4.331   9.012  0.00  0.00    +0.000 A 
ATOM     21  N   UNL     1      45.741   4.561   7.903  0.00  0.00    +0.000 NA
ATOM     22  C   UNL     1      46.395   3.499   7.369  0.00  0.00    +0.000 A 
ATOM     23  C   UNL     1      46.360   2.217   7.896  0.00  0.00    +0.000 A 
ATOM     24  C   UNL     1      45.589   2.017   9.045  0.00  0.00    +0.000 A 
BRANCH  23  25
ATOM     25  C   UNL     1      47.088   1.063   7.309  0.00  0.00    +0.000 C 
ATOM     26  N   UNL     1      46.758  -0.203   7.706  0.00  0.00    +0.000 N 
ATOM     27  O   UNL     1      47.972   1.232   6.478  0.00  0.00    +0.000 OA
ATOM     28  H   UNL     1      46.049  -0.452   8.378  0.00  0.00    +0.000 HD
ATOM     29  H   UNL     1      47.272  -0.959   7.273  0.00  0.00    +0.000 HD
ENDBRANCH  23  25
ENDBRANCH  18  19
ENDBRANCH  17  18
ENDBRANCH   5  17
TORSDOF 6
ENDMDL
MODEL 4
REMARK VINA RESULT:    -7.551      4.447      8.409
REMARK INTER + INTRA:         -10.751
REMARK INTER:                  -9.660
REMARK INTRA:                  -1.091
REMARK UNBOUND:                -0.552
REMARK  Name = 
REMARK  7 active torsions:
REMARK  status: ('A' for Active; 'I' for Inactive)
REMARK    1  A    between atoms: C_1  and  S_2
REMARK    2  A    between atoms: S_2  and  C_5
REMARK    3  A    between atoms: C_8  and  C_9
REMARK    4  A    between atoms: C_13  and  C_14
REMARK    5  A    between atoms: C_14  and  C_15
REMARK    6  A    between atoms: C_15  and  C_16
REMARK    7  A    between atoms: C_20  and  C_21
REMARK                            x       y       z     vdW  Elec       q    Type
REMARK                         _______ _______ _______ _____ _____    ______ ____
ROOT
ATOM      1  C   UNL     1      48.591   6.980  13.565  0.00  0.00    +0.000 A 
ATOM      2  C   UNL     1      49.631   7.451  12.763  0.00  0.00    +0.000 A 
ATOM      3  N   UNL     1      50.764   8.035  13.222  0.00  0.00    +0.000 NA
ATOM      4  C   UNL     1      50.878   8.174  14.561  0.00  0.00    +0.000 A 
ATOM      5  C   UNL     1      49.922   7.746  15.474  0.00  0.00    +0.000 A 
ATOM      6  C   UNL     1      48.769   7.152  14.946  0.00  0.00    +0.000 A 
ENDROOT
BRANCH   1  10
ATOM      7  C   UNL     1      45.045   5.153  11.963  0.00  0.00    +0.000 A 
ATOM      8  C   UNL     1      45.550   4.722  13.189  0.00  0.00    +0.000 A 
ATOM      9  C   UNL     1      46.700   5.323  13.710  0.00  0.00    +0.000 A 
ATOM     10  C   UNL     1      47.376   6.343  13.014  0.00  0.00    +0.000 A 
ATOM     11  C   UNL     1      46.843   6.743  11.771  0.00  0.00    +0.000 A 
ATOM     12  C   UNL     1      45.686   6.159  11.247  0.00  0.00    +0.000 A 
BRANCH   7  14
ATOM     13  C   UNL     1      42.297   5.481  11.712  0.00  0.00    +0.000 C 
ATOM     14  S   UNL     1      43.608   4.369  11.279  0.00  0.00    +0.000 S 
ATOM     15  O   UNL     1      43.404   3.127  11.999  0.00  0.00    +0.000 OA
ATOM     16  O   UNL     1      43.749   4.379   9.835  0.00  0.00    +0.000 OA
ENDBRANCH   7  14
ENDBRANCH   1  10
BRANCH   5  17
ATOM     17  C   UNL     1      50.113   7.995  16.952  0.00  0.00    +0.000 C 
BRANCH  17  18
ATOM     18  C   UNL     1      50.910   6.910  17.690  0.00  0.00    +0.000 C 
BRANCH  18  19
ATOM     19  C   UNL     1      50.112   5.658  17.920  0.00  0.00    +0.000 A 
ATOM     20  C   UNL     1      48.960   5.668  18.696  0.00  0.00    +0.000 A 
ATOM     21  N   UNL     1      48.215   4.571  18.953  0.00  0.00    +0.000 NA
ATOM     22  C   UNL     1      48.636   3.402  18.407  0.00  0.00    +0.000 A 
ATOM     23  C   UNL     1      49.761   3.276  17.606  0.00  0.00    +0.000 A 
ATOM     24  C   UNL     1      50.506   4.434  17.362  0.00  0.00    +0.000 A 
BRANCH  23  25
ATOM     25  C   UNL     1      50.207   1.994  17.007  0.00  0.00    +0.000 C 
ATOM     26  N   UNL     1      51.130   1.234  17.671  0.00  0.00    +0.000 N 
ATOM     27  O   UNL     1      49.760   1.610  15.932  0.00  0.00    +0.000 OA
ATOM     28  H   UNL     1      51.558   1.454  18.557  0.00  0.00    +0.000 HD
ATOM     29  H   UNL     1      51.398   0.363  17.231  0.00  0.00    +0.000 HD
ENDBRANCH  23  25
ENDBRANCH  18  19
ENDBRANCH  17  18
ENDBRANCH   5  17
TORSDOF 6
ENDMDL
MODEL 5
REMARK VINA RESULT:    -7.025      3.520      7.933
REMARK INTER + INTRA:         -10.042
REMARK INTER:                  -9.264
REMARK INTRA:                  -0.778
REMARK UNBOUND:                -0.552
REMARK  Name = 
REMARK  7 active torsions:
REMARK  status: ('A' for Active; 'I' for Inactive)
REMARK    1  A    between atoms: C_1  and  S_2
REMARK    2  A    between atoms: S_2  and  C_5
REMARK    3  A    between atoms: C_8  and  C_9
REMARK    4  A    between atoms: C_13  and  C_14
REMARK    5  A    between atoms: C_14  and  C_15
REMARK    6  A    between atoms: C_15  and  C_16
REMARK    7  A    between atoms: C_20  and  C_21
REMARK                            x       y       z     vdW  Elec       q    Type
REMARK                         _______ _______ _______ _____ _____    ______ ____
ROOT
ATOM      1  C   UNL     1      44.521   5.011  10.519  0.00  0.00    +0.000 A 
ATOM      2  C   UNL     1      43.244   4.712  10.995  0.00  0.00    +0.000 A 
ATOM      3  N   UNL     1      42.562   5.445  11.908  0.00  0.00    +0.000 NA
ATOM      4  C   UNL     1      43.183   6.542  12.393  0.00  0.00    +0.000 A 
ATOM      5  C   UNL     1      44.450   6.959  12.004  0.00  0.00    +0.000 A 
ATOM      6  C   UNL     1      45.111   6.163  11.060  0.00  0.00    +0.000 A 
ENDROOT
BRANCH   1  10
ATOM      7  C   UNL     1      46.570   2.584   7.622  0.00  0.00    +0.000 A 
ATOM      8  C   UNL     1      46.683   3.972   7.563  0.00  0.00    +0.000 A 
ATOM      9  C   UNL     1      46.020   4.759   8.511  0.00  0.00    +0.000 A 
ATOM     10  C   UNL     1      45.221   4.181   9.516  0.00  0.00    +0.000 A 
ATOM     11  C   UNL     1      45.120   2.774   9.535  0.00  0.00    +0.000 A 
ATOM     12  C   UNL     1      45.789   1.978   8.602  0.00  0.00    +0.000 A 
BRANCH   7  14
ATOM     13  C   UNL     1      46.857   2.313   4.871  0.00  0.00    +0.000 C 
ATOM     14  S   UNL     1      47.378   1.583   6.400  0.00  0.00    +0.000 S 
ATOM     15  O   UNL     1      46.809   0.251   6.484  0.00  0.00    +0.000 OA
ATOM     16  O   UNL     1      48.807   1.793   6.537  0.00  0.00    +0.000 OA
ENDBRANCH   7  14
ENDBRANCH   1  10
BRANCH   5  17
ATOM     17  C   UNL     1      45.084   8.171  12.644  0.00  0.00    +0.000 C 
BRANCH  17  18
ATOM     18  C   UNL     1      46.614   8.236  12.526  0.00  0.00    +0.000 C 
BRANCH  18  19
ATOM     19  C   UNL     1      47.314   7.491  13.626  0.00  0.00    +0.000 A 
ATOM     20  C   UNL     1      48.280   8.105  14.414  0.00  0.00    +0.000 A 
ATOM     21  N   UNL     1      48.955   7.479  15.402  0.00  0.00    +0.000 NA
ATOM     22  C   UNL     1      48.653   6.175  15.622  0.00  0.00    +0.000 A 
ATOM     23  C   UNL     1      47.699   5.465  14.908  0.00  0.00    +0.000 A 
ATOM     24  C   UNL     1      47.019   6.146  13.894  0.00  0.00    +0.000 A 
BRANCH  23  25
ATOM     25  C   UNL     1      47.369   4.040  15.163  0.00  0.00    +0.000 C 
ATOM     26  N   UNL     1      46.987   3.661  16.420  0.00  0.00    +0.000 N 
ATOM     27  O   UNL     1      47.433   3.208  14.266  0.00  0.00    +0.000 OA
ATOM     28  H   UNL     1      46.900   4.261  17.224  0.00  0.00    +0.000 HD
ATOM     29  H   UNL     1      46.762   2.682  16.546  0.00  0.00    +0.000 HD
ENDBRANCH  23  25
ENDBRANCH  18  19
ENDBRANCH  17  18
ENDBRANCH   5  17
TORSDOF 6
ENDMDL
MODEL 6
REMARK VINA RESULT:    -7.012      2.845      3.458
REMARK INTER + INTRA:         -10.024
REMARK INTER:                  -9.511
REMARK INTRA:                  -0.513
REMARK UNBOUND:                -0.552
REMARK  Name = 
REMARK  7 active torsions:
REMARK  status: ('A' for Active; 'I' for Inactive)
REMARK    1  A    between atoms: C_1  and  S_2
REMARK    2  A    between atoms: S_2  and  C_5
REMARK    3  A    between atoms: C_8  and  C_9
REMARK    4  A    between atoms: C_13  and  C_14
REMARK    5  A    between atoms: C_14  and  C_15
REMARK    6  A    between atoms: C_15  and  C_16
REMARK    7  A    between atoms: C_20  and  C_21
REMARK                            x       y       z     vdW  Elec       q    Type
REMARK                         _______ _______ _______ _____ _____    ______ ____
ROOT
ATOM      1  C   UNL     1      47.301   5.548  13.778  0.00  0.00    +0.000 A 
ATOM      2  C   UNL     1      47.201   4.219  14.192  0.00  0.00    +0.000 A 
ATOM      3  N   UNL     1      46.359   3.299  13.660  0.00  0.00    +0.000 NA
ATOM      4  C   UNL     1      45.553   3.718  12.661  0.00  0.00    +0.000 A 
ATOM      5  C   UNL     1      45.551   5.010  12.148  0.00  0.00    +0.000 A 
ATOM      6  C   UNL     1      46.439   5.921  12.736  0.00  0.00    +0.000 A 
ENDROOT
BRANCH   1  10
ATOM      7  C   UNL     1      50.057   8.342  15.531  0.00  0.00    +0.000 A 
ATOM      8  C   UNL     1      49.535   7.308  16.307  0.00  0.00    +0.000 A 
ATOM      9  C   UNL     1      48.643   6.397  15.732  0.00  0.00    +0.000 A 
ATOM     10  C   UNL     1      48.242   6.511  14.388  0.00  0.00    +0.000 A 
ATOM     11  C   UNL     1      48.781   7.577  13.638  0.00  0.00    +0.000 A 
ATOM     12  C   UNL     1      49.683   8.485  14.198  0.00  0.00    +0.000 A 
BRANCH   7  14
ATOM     13  C   UNL     1      50.624   9.581  17.954  0.00  0.00    +0.000 C 
ATOM     14  S   UNL     1      51.159   9.523  16.265  0.00  0.00    +0.000 S 
ATOM     15  O   UNL     1      50.884  10.811  15.658  0.00  0.00    +0.000 OA
ATOM     16  O   UNL     1      52.494   8.955  16.234  0.00  0.00    +0.000 OA
ENDBRANCH   7  14
ENDBRANCH   1  10
BRANCH   5  17
ATOM     17  C   UNL     1      44.574   5.400  11.065  0.00  0.00    +0.000 C 
BRANCH  17  18
ATOM     18  C   UNL     1      45.163   5.431   9.647  0.00  0.00    +0.000 C 
BRANCH  18  19
ATOM     19  C   UNL     1      45.349   4.060   9.064  0.00  0.00    +0.000 A 
ATOM     20  C   UNL     1      44.620   2.972   9.528  0.00  0.00    +0.000 A 
ATOM     21  N   UNL     1      44.761   1.714   9.056  0.00  0.00    +0.000 NA
ATOM     22  C   UNL     1      45.672   1.528   8.069  0.00  0.00    +0.000 A 
ATOM     23  C   UNL     1      46.445   2.540   7.520  0.00  0.00    +0.000 A 
ATOM     24  C   UNL     1      46.271   3.829   8.033  0.00  0.00    +0.000 A 
BRANCH  23  25
ATOM     25  C   UNL     1      47.433   2.326   6.433  0.00  0.00    +0.000 C 
ATOM     26  N   UNL     1      47.382   3.122   5.322  0.00  0.00    +0.000 N 
ATOM     27  O   UNL     1      48.289   1.453   6.520  0.00  0.00    +0.000 OA
ATOM     28  H   UNL     1      46.726   3.866   5.150  0.00  0.00    +0.000 HD
ATOM     29  H   UNL     1      48.081   2.948   4.611  0.00  0.00    +0.000 HD
ENDBRANCH  23  25
ENDBRANCH  18  19
ENDBRANCH  17  18
ENDBRANCH   5  17
TORSDOF 6
ENDMDL
MODEL 7
REMARK VINA RESULT:    -6.819      4.351      8.407
REMARK INTER + INTRA:          -9.763
REMARK INTER:                  -8.713
REMARK INTRA:                  -1.051
REMARK UNBOUND:                -0.552
REMARK  Name = 
REMARK  7 active torsions:
REMARK  status: ('A' for Active; 'I' for Inactive)
REMARK    1  A    between atoms: C_1  and  S_2
REMARK    2  A    between atoms: S_2  and  C_5
REMARK    3  A    between atoms: C_8  and  C_9
REMARK    4  A    between atoms: C_13  and  C_14
REMARK    5  A    between atoms: C_14  and  C_15
REMARK    6  A    between atoms: C_15  and  C_16
REMARK    7  A    between atoms: C_20  and  C_21
REMARK                            x       y       z     vdW  Elec       q    Type
REMARK                         _______ _______ _______ _____ _____    ______ ____
ROOT
ATOM      1  C   UNL     1      47.972   7.687  13.653  0.00  0.00    +0.000 A 
ATOM      2  C   UNL     1      48.121   9.070  13.540  0.00  0.00    +0.000 A 
ATOM      3  N   UNL     1      49.136   9.790  14.077  0.00  0.00    +0.000 NA
ATOM      4  C   UNL     1      50.062   9.105  14.782  0.00  0.00    +0.000 A 
ATOM      5  C   UNL     1      50.039   7.728  14.970  0.00  0.00    +0.000 A 
ATOM      6  C   UNL     1      48.967   7.033  14.396  0.00  0.00    +0.000 A 
ENDROOT
BRANCH   1  10
ATOM      7  C   UNL     1      44.723   5.521  11.858  0.00  0.00    +0.000 A 
ATOM      8  C   UNL     1      44.724   6.914  11.826  0.00  0.00    +0.000 A 
ATOM      9  C   UNL     1      45.786   7.616  12.406  0.00  0.00    +0.000 A 
ATOM     10  C   UNL     1      46.849   6.947  13.042  0.00  0.00    +0.000 A 
ATOM     11  C   UNL     1      46.806   5.537  13.065  0.00  0.00    +0.000 A 
ATOM     12  C   UNL     1      45.757   4.825  12.477  0.00  0.00    +0.000 A 
BRANCH   7  14
ATOM     13  C   UNL     1      43.464   3.045  11.953  0.00  0.00    +0.000 C 
ATOM     14  S   UNL     1      43.360   4.626  11.157  0.00  0.00    +0.000 S 
ATOM     15  O   UNL     1      43.639   4.441   9.746  0.00  0.00    +0.000 OA
ATOM     16  O   UNL     1      42.139   5.272  11.597  0.00  0.00    +0.000 OA
ENDBRANCH   7  14
ENDBRANCH   1  10
BRANCH   5  17
ATOM     17  C   UNL     1      51.090   7.056  15.821  0.00  0.00    +0.000 C 
BRANCH  17  18
ATOM     18  C   UNL     1      50.872   7.185  17.336  0.00  0.00    +0.000 C 
BRANCH  18  19
ATOM     19  C   UNL     1      49.589   6.554  17.794  0.00  0.00    +0.000 A 
ATOM     20  C   UNL     1      48.739   7.203  18.681  0.00  0.00    +0.000 A 
ATOM     21  N   UNL     1      47.585   6.675  19.142  0.00  0.00    +0.000 NA
ATOM     22  C   UNL     1      47.255   5.437  18.695  0.00  0.00    +0.000 A 
ATOM     23  C   UNL     1      48.018   4.702  17.801  0.00  0.00    +0.000 A 
ATOM     24  C   UNL     1      49.205   5.282  17.345  0.00  0.00    +0.000 A 
BRANCH  23  25
ATOM     25  C   UNL     1      47.643   3.352  17.312  0.00  0.00    +0.000 C 
ATOM     26  N   UNL     1      48.611   2.543  16.784  0.00  0.00    +0.000 N 
ATOM     27  O   UNL     1      46.484   2.956  17.377  0.00  0.00    +0.000 OA
ATOM     28  H   UNL     1      49.588   2.768  16.686  0.00  0.00    +0.000 HD
ATOM     29  H   UNL     1      48.312   1.627  16.472  0.00  0.00    +0.000 HD
ENDBRANCH  23  25
ENDBRANCH  18  19
ENDBRANCH  17  18
ENDBRANCH   5  17
TORSDOF 6
ENDMDL
MODEL 8
REMARK VINA RESULT:    -6.753      4.496      8.052
REMARK INTER + INTRA:          -9.674
REMARK INTER:                  -8.714
REMARK INTRA:                  -0.960
REMARK UNBOUND:                -0.552
REMARK  Name = 
REMARK  7 active torsions:
REMARK  status: ('A' for Active; 'I' for Inactive)
REMARK    1  A    between atoms: C_1  and  S_2
REMARK    2  A    between atoms: S_2  and  C_5
REMARK    3  A    between atoms: C_8  and  C_9
REMARK    4  A    between atoms: C_13  and  C_14
REMARK    5  A    between atoms: C_14  and  C_15
REMARK    6  A    between atoms: C_15  and  C_16
REMARK    7  A    between atoms: C_20  and  C_21
REMARK                            x       y       z     vdW  Elec       q    Type
REMARK                         _______ _______ _______ _____ _____    ______ ____
ROOT
ATOM      1  C   UNL     1      44.546   4.811  10.724  0.00  0.00    +0.000 A 
ATOM      2  C   UNL     1      43.326   4.427  11.281  0.00  0.00    +0.000 A 
ATOM      3  N   UNL     1      42.661   5.110  12.245  0.00  0.00    +0.000 NA
ATOM      4  C   UNL     1      43.241   6.241  12.700  0.00  0.00    +0.000 A 
ATOM      5  C   UNL     1      44.450   6.741  12.232  0.00  0.00    +0.000 A 
ATOM      6  C   UNL     1      45.097   5.996  11.238  0.00  0.00    +0.000 A 
ENDROOT
BRANCH   1  10
ATOM      7  C   UNL     1      46.515   2.564   7.635  0.00  0.00    +0.000 A 
ATOM      8  C   UNL     1      45.814   1.893   8.635  0.00  0.00    +0.000 A 
ATOM      9  C   UNL     1      45.170   2.628   9.636  0.00  0.00    +0.000 A 
ATOM     10  C   UNL     1      45.229   4.034   9.668  0.00  0.00    +0.000 A 
ATOM     11  C   UNL     1      45.959   4.676   8.647  0.00  0.00    +0.000 A 
ATOM     12  C   UNL     1      46.595   3.954   7.634  0.00  0.00    +0.000 A 
BRANCH   7  14
ATOM     13  C   UNL     1      46.820   2.395   4.877  0.00  0.00    +0.000 C 
ATOM     14  S   UNL     1      47.367   1.637   6.384  0.00  0.00    +0.000 S 
ATOM     15  O   UNL     1      46.853   0.281   6.421  0.00  0.00    +0.000 OA
ATOM     16  O   UNL     1      48.785   1.901   6.532  0.00  0.00    +0.000 OA
ENDBRANCH   7  14
ENDBRANCH   1  10
BRANCH   5  17
ATOM     17  C   UNL     1      45.048   7.987  12.841  0.00  0.00    +0.000 C 
BRANCH  17  18
ATOM     18  C   UNL     1      46.169   8.634  12.015  0.00  0.00    +0.000 C 
BRANCH  18  19
ATOM     19  C   UNL     1      47.538   8.325  12.550  0.00  0.00    +0.000 A 
ATOM     20  C   UNL     1      47.732   7.973  13.880  0.00  0.00    +0.000 A 
ATOM     21  N   UNL     1      48.941   7.704  14.419  0.00  0.00    +0.000 NA
ATOM     22  C   UNL     1      50.014   7.788  13.593  0.00  0.00    +0.000 A 
ATOM     23  C   UNL     1      49.938   8.117  12.248  0.00  0.00    +0.000 A 
ATOM     24  C   UNL     1      48.670   8.386  11.725  0.00  0.00    +0.000 A 
BRANCH  23  25
ATOM     25  C   UNL     1      51.118   8.196  11.350  0.00  0.00    +0.000 C 
ATOM     26  N   UNL     1      51.548   7.064  10.715  0.00  0.00    +0.000 N 
ATOM     27  O   UNL     1      51.705   9.258  11.172  0.00  0.00    +0.000 OA
ATOM     28  H   UNL     1      51.139   6.147  10.789  0.00  0.00    +0.000 HD
ATOM     29  H   UNL     1      52.349   7.167  10.105  0.00  0.00    +0.000 HD
ENDBRANCH  23  25
ENDBRANCH  18  19
ENDBRANCH  17  18
ENDBRANCH   5  17
TORSDOF 6
ENDMDL
MODEL 9
REMARK VINA RESULT:    -6.534      5.688      7.396
REMARK INTER + INTRA:          -9.379
REMARK INTER:                  -8.497
REMARK INTRA:                  -0.881
REMARK UNBOUND:                -0.552
REMARK  Name = 
REMARK  7 active torsions:
REMARK  status: ('A' for Active; 'I' for Inactive)
REMARK    1  A    between atoms: C_1  and  S_2
REMARK    2  A    between atoms: S_2  and  C_5
REMARK    3  A    between atoms: C_8  and  C_9
REMARK    4  A    between atoms: C_13  and  C_14
REMARK    5  A    between atoms: C_14  and  C_15
REMARK    6  A    between atoms: C_15  and  C_16
REMARK    7  A    between atoms: C_20  and  C_21
REMARK                            x       y       z     vdW  Elec       q    Type
REMARK                         _______ _______ _______ _____ _____    ______ ____
ROOT
ATOM      1  C   UNL     1      48.884   7.033  13.320  0.00  0.00    +0.000 A 
ATOM      2  C   UNL     1      49.324   7.130  14.641  0.00  0.00    +0.000 A 
ATOM      3  N   UNL     1      50.430   7.800  15.046  0.00  0.00    +0.000 NA
ATOM      4  C   UNL     1      51.159   8.407  14.086  0.00  0.00    +0.000 A 
ATOM      5  C   UNL     1      50.835   8.396  12.734  0.00  0.00    +0.000 A 
ATOM      6  C   UNL     1      49.684   7.687  12.370  0.00  0.00    +0.000 A 
ENDROOT
BRANCH   1  10
ATOM      7  C   UNL     1      45.353   4.862  12.185  0.00  0.00    +0.000 A 
ATOM      8  C   UNL     1      45.829   5.882  11.364  0.00  0.00    +0.000 A 
ATOM      9  C   UNL     1      46.982   6.583  11.733  0.00  0.00    +0.000 A 
ATOM     10  C   UNL     1      47.665   6.294  12.929  0.00  0.00    +0.000 A 
ATOM     11  C   UNL     1      47.146   5.264  13.740  0.00  0.00    +0.000 A 
ATOM     12  C   UNL     1      46.003   4.548  13.375  0.00  0.00    +0.000 A 
BRANCH   7  14
ATOM     13  C   UNL     1      42.624   5.252  11.831  0.00  0.00    +0.000 C 
ATOM     14  S   UNL     1      43.870   3.994  11.741  0.00  0.00    +0.000 S 
ATOM     15  O   UNL     1      43.606   3.020  12.783  0.00  0.00    +0.000 OA
ATOM     16  O   UNL     1      43.999   3.586  10.355  0.00  0.00    +0.000 OA
ENDBRANCH   7  14
ENDBRANCH   1  10
BRANCH   5  17
ATOM     17  C   UNL     1      51.744   9.059  11.726  0.00  0.00    +0.000 C 
BRANCH  17  18
ATOM     18  C   UNL     1      51.643   8.497  10.301  0.00  0.00    +0.000 C 
BRANCH  18  19
ATOM     19  C   UNL     1      52.655   7.422  10.027  0.00  0.00    +0.000 A 
ATOM     20  C   UNL     1      53.707   7.179  10.902  0.00  0.00    +0.000 A 
ATOM     21  N   UNL     1      54.656   6.240  10.696  0.00  0.00    +0.000 NA
ATOM     22  C   UNL     1      54.554   5.502   9.562  0.00  0.00    +0.000 A 
ATOM     23  C   UNL     1      53.542   5.648   8.626  0.00  0.00    +0.000 A 
ATOM     24  C   UNL     1      52.576   6.628   8.873  0.00  0.00    +0.000 A 
BRANCH  23  25
ATOM     25  C   UNL     1      53.434   4.828   7.393  0.00  0.00    +0.000 C 
ATOM     26  N   UNL     1      54.227   3.723   7.258  0.00  0.00    +0.000 N 
ATOM     27  O   UNL     1      52.647   5.128   6.502  0.00  0.00    +0.000 OA
ATOM     28  H   UNL     1      54.903   3.387   7.926  0.00  0.00    +0.000 HD
ATOM     29  H   UNL     1      54.114   3.188   6.406  0.00  0.00    +0.000 HD
ENDBRANCH  23  25
ENDBRANCH  18  19
ENDBRANCH  17  18
ENDBRANCH   5  17
TORSDOF 6
ENDMDL
