MODEL 1
REMARK VINA RESULT:    -7.287      0.000      0.000
REMARK INTER + INTRA:          -8.344
REMARK INTER:                  -8.139
REMARK INTRA:                  -0.204
REMARK UNBOUND:                -0.204
REMARK  Name = 
REMARK  2 active torsions:
REMARK  status: ('A' for Active; 'I' for Inactive)
REMARK    1  A    between atoms: N_6  and  C_7
REMARK    2  A    between atoms: C_7  and  C_8
REMARK                            x       y       z     vdW  Elec       q    Type
REMARK                         _______ _______ _______ _____ _____    ______ ____
ROOT
ATOM      1  F   UNL     1      42.695   5.064  13.810  0.00  0.00    +0.000 F 
ATOM      2  C   UNL     1      43.369   5.025  12.658  0.00  0.00    +0.000 A 
ATOM      3  C   UNL     1      44.723   5.237  12.593  0.00  0.00    +0.000 A 
ATOM      4  N   UNL     1      45.431   5.187  11.441  0.00  0.00    +0.000 NA
ATOM      5  C   UNL     1      44.742   4.929  10.317  0.00  0.00    +0.000 A 
ATOM      6  N   UNL     1      45.474   4.883   9.140  0.00  0.00    +0.000 N 
ATOM      7  N   UNL     1      43.416   4.710  10.287  0.00  0.00    +0.000 NA
ATOM      8  C   UNL     1      42.755   4.765  11.464  0.00  0.00    +0.000 A 
ATOM      9  H   UNL     1      46.443   4.726   9.390  0.00  0.00    +0.000 HD
ENDROOT
BRANCH   6  10
ATOM     10  C   UNL     1      44.925   3.975   8.150  0.00  0.00    +0.000 C 
BRANCH  10  11
ATOM     11  C   UNL     1      45.983   3.007   7.677  0.00  0.00    +0.000 A 
ATOM     12  C   UNL     1      46.026   1.689   8.143  0.00  0.00    +0.000 A 
ATOM     13  C   UNL     1      46.989   0.833   7.627  0.00  0.00    +0.000 A 
ATOM     14  N   UNL     1      47.893   1.193   6.692  0.00  0.00    +0.000 NA
ATOM     15  C   UNL     1      47.833   2.467   6.252  0.00  0.00    +0.000 A 
ATOM     16  C   UNL     1      46.910   3.396   6.704  0.00  0.00    +0.000 A 
ENDBRANCH  10  11
ENDBRANCH   6  10
TORSDOF 2
ENDMDL
MODEL 2
REMARK VINA RESULT:    -7.200      1.312      1.419
REMARK INTER + INTRA:          -8.247
REMARK INTER:                  -7.960
REMARK INTRA:                  -0.287
REMARK UNBOUND:                -0.204
REMARK  Name = 
REMARK  2 active torsions:
REMARK  status: ('A' for Active; 'I' for Inactive)
REMARK    1  A    between atoms: N_6  and  C_7
REMARK    2  A    between atoms: C_7  and  C_8
REMARK                            x       y       z     vdW  Elec       q    Type
REMARK                         _______ _______ _______ _____ _____    ______ ____
ROOT
ATOM      1  F   UNL     1      45.945   5.012  14.294  0.00  0.00    +0.000 F 
ATOM      2  C   UNL     1      45.681   4.966  12.985  0.00  0.00    +0.000 A 
ATOM      3  C   UNL     1      46.289   5.805  12.086  0.00  0.00    +0.000 A 
ATOM      4  N   UNL     1      46.050   5.767  10.754  0.00  0.00    +0.000 NA
ATOM      5  C   UNL     1      45.158   4.862  10.323  0.00  0.00    +0.000 A 
ATOM      6  N   UNL     1      44.916   4.832   8.958  0.00  0.00    +0.000 N 
ATOM      7  N   UNL     1      44.514   4.003  11.132  0.00  0.00    +0.000 NA
ATOM      8  C   UNL     1      44.790   4.075  12.453  0.00  0.00    +0.000 A 
ATOM      9  H   UNL     1      45.703   5.277   8.500  0.00  0.00    +0.000 HD
ENDROOT
BRANCH   6  10
ATOM     10  C   UNL     1      44.559   3.517   8.459  0.00  0.00    +0.000 C 
BRANCH  10  11
ATOM     11  C   UNL     1      45.778   2.806   7.925  0.00  0.00    +0.000 A 
ATOM     12  C   UNL     1      46.005   1.451   8.186  0.00  0.00    +0.000 A 
ATOM     13  C   UNL     1      47.115   0.841   7.619  0.00  0.00    +0.000 A 
ATOM     14  N   UNL     1      47.999   1.477   6.821  0.00  0.00    +0.000 NA
ATOM     15  C   UNL     1      47.761   2.783   6.578  0.00  0.00    +0.000 A 
ATOM     16  C   UNL     1      46.682   3.480   7.095  0.00  0.00    +0.000 A 
ENDBRANCH  10  11
ENDBRANCH   6  10
TORSDOF 2
ENDMDL
MODEL 3
REMARK VINA RESULT:    -6.884      1.588      2.216
REMARK INTER + INTRA:          -7.893
REMARK INTER:                  -7.678
REMARK INTRA:                  -0.215
REMARK UNBOUND:                -0.204
REMARK  Name = 
REMARK  2 active torsions:
REMARK  status: ('A' for Active; 'I' for Inactive)
REMARK    1  A    between atoms: N_6  and  C_7
REMARK    2  A    between atoms: C_7  and  C_8
REMARK                            x       y       z     vdW  Elec       q    Type
REMARK                         _______ _______ _______ _____ _____    ______ ____
ROOT
ATOM      1  F   UNL     1      45.547   7.705  13.060  0.00  0.00    +0.000 F 
ATOM      2  C   UNL     1      45.397   6.531  12.439  0.00  0.00    +0.000 A 
ATOM      3  C   UNL     1      44.951   5.410  13.090  0.00  0.00    +0.000 A 
ATOM      4  N   UNL     1      44.775   4.214  12.480  0.00  0.00    +0.000 NA
ATOM      5  C   UNL     1      45.076   4.151  11.173  0.00  0.00    +0.000 A 
ATOM      6  N   UNL     1      44.897   2.922  10.556  0.00  0.00    +0.000 N 
ATOM      7  N   UNL     1      45.520   5.198  10.457  0.00  0.00    +0.000 NA
ATOM      8  C   UNL     1      45.673   6.371  11.109  0.00  0.00    +0.000 A 
ATOM      9  H   UNL     1      44.259   2.383  11.130  0.00  0.00    +0.000 HD
ENDROOT
BRANCH   6  10
ATOM     10  C   UNL     1      44.547   3.022   9.151  0.00  0.00    +0.000 C 
BRANCH  10  11
ATOM     11  C   UNL     1      45.654   2.465   8.289  0.00  0.00    +0.000 A 
ATOM     12  C   UNL     1      46.477   3.302   7.529  0.00  0.00    +0.000 A 
ATOM     13  C   UNL     1      47.512   2.733   6.801  0.00  0.00    +0.000 A 
ATOM     14  N   UNL     1      47.781   1.411   6.782  0.00  0.00    +0.000 NA
ATOM     15  C   UNL     1      46.978   0.620   7.524  0.00  0.00    +0.000 A 
ATOM     16  C   UNL     1      45.921   1.091   8.285  0.00  0.00    +0.000 A 
ENDBRANCH  10  11
ENDBRANCH   6  10
TORSDOF 2
ENDMDL
MODEL 4
REMARK VINA RESULT:    -6.733      3.107      5.888
REMARK INTER + INTRA:          -7.724
REMARK INTER:                  -7.435
REMARK INTRA:                  -0.289
REMARK UNBOUND:                -0.204
REMARK  Name = 
REMARK  2 active torsions:
REMARK  status: ('A' for Active; 'I' for Inactive)
REMARK    1  A    between atoms: N_6  and  C_7
REMARK    2  A    between atoms: C_7  and  C_8
REMARK                            x       y       z     vdW  Elec       q    Type
REMARK                         _______ _______ _______ _____ _____    ______ ____
ROOT
ATOM      1  F   UNL     1      48.276   1.774   5.782  0.00  0.00    +0.000 F 
ATOM      2  C   UNL     1      47.289   2.065   6.634  0.00  0.00    +0.000 A 
ATOM      3  C   UNL     1      46.877   1.189   7.606  0.00  0.00    +0.000 A 
ATOM      4  N   UNL     1      45.892   1.467   8.491  0.00  0.00    +0.000 NA
ATOM      5  C   UNL     1      45.296   2.665   8.377  0.00  0.00    +0.000 A 
ATOM      6  N   UNL     1      44.284   2.941   9.286  0.00  0.00    +0.000 N 
ATOM      7  N   UNL     1      45.633   3.583   7.456  0.00  0.00    +0.000 NA
ATOM      8  C   UNL     1      46.627   3.261   6.599  0.00  0.00    +0.000 A 
ATOM      9  H   UNL     1      44.406   2.319  10.076  0.00  0.00    +0.000 HD
ENDROOT
BRANCH   6  10
ATOM     10  C   UNL     1      44.162   4.350   9.609  0.00  0.00    +0.000 C 
BRANCH  10  11
ATOM     11  C   UNL     1      44.918   4.670  10.875  0.00  0.00    +0.000 A 
ATOM     12  C   UNL     1      44.953   3.775  11.949  0.00  0.00    +0.000 A 
ATOM     13  C   UNL     1      45.712   4.104  13.064  0.00  0.00    +0.000 A 
ATOM     14  N   UNL     1      46.429   5.241  13.178  0.00  0.00    +0.000 NA
ATOM     15  C   UNL     1      46.386   6.090  12.130  0.00  0.00    +0.000 A 
ATOM     16  C   UNL     1      45.660   5.853  10.975  0.00  0.00    +0.000 A 
ENDBRANCH  10  11
ENDBRANCH   6  10
TORSDOF 2
ENDMDL
MODEL 5
REMARK VINA RESULT:    -6.627      3.045      5.894
REMARK INTER + INTRA:          -7.606
REMARK INTER:                  -7.333
REMARK INTRA:                  -0.273
REMARK UNBOUND:                -0.204
REMARK  Name = 
REMARK  2 active torsions:
REMARK  status: ('A' for Active; 'I' for Inactive)
REMARK    1  A    between atoms: N_6  and  C_7
REMARK    2  A    between atoms: C_7  and  C_8
REMARK                            x       y       z     vdW  Elec       q    Type
REMARK                         _______ _______ _______ _____ _____    ______ ____
ROOT
ATOM      1  F   UNL     1      47.926   1.913   5.995  0.00  0.00    +0.000 F 
ATOM      2  C   UNL     1      46.999   2.225   6.905  0.00  0.00    +0.000 A 
ATOM      3  C   UNL     1      46.599   1.343   7.876  0.00  0.00    +0.000 A 
ATOM      4  N   UNL     1      45.673   1.642   8.818  0.00  0.00    +0.000 NA
ATOM      5  C   UNL     1      45.127   2.867   8.763  0.00  0.00    +0.000 A 
ATOM      6  N   UNL     1      44.177   3.164   9.730  0.00  0.00    +0.000 N 
ATOM      7  N   UNL     1      45.458   3.793   7.847  0.00  0.00    +0.000 NA
ATOM      8  C   UNL     1      46.391   3.450   6.932  0.00  0.00    +0.000 A 
ATOM      9  H   UNL     1      44.311   2.517  10.497  0.00  0.00    +0.000 HD
ENDROOT
BRANCH   6  10
ATOM     10  C   UNL     1      44.136   4.569  10.091  0.00  0.00    +0.000 C 
BRANCH  10  11
ATOM     11  C   UNL     1      45.157   4.870  11.161  0.00  0.00    +0.000 A 
ATOM     12  C   UNL     1      45.971   6.005  11.093  0.00  0.00    +0.000 A 
ATOM     13  C   UNL     1      46.851   6.255  12.136  0.00  0.00    +0.000 A 
ATOM     14  N   UNL     1      46.973   5.467  13.224  0.00  0.00    +0.000 NA
ATOM     15  C   UNL     1      46.177   4.378  13.274  0.00  0.00    +0.000 A 
ATOM     16  C   UNL     1      45.266   4.043  12.285  0.00  0.00    +0.000 A 
ENDBRANCH  10  11
ENDBRANCH   6  10
TORSDOF 2
ENDMDL
MODEL 6
REMARK VINA RESULT:    -5.760      4.440      6.667
REMARK INTER + INTRA:          -6.638
REMARK INTER:                  -6.473
REMARK INTRA:                  -0.164
REMARK UNBOUND:                -0.204
REMARK  Name = 
REMARK  2 active torsions:
REMARK  status: ('A' for Active; 'I' for Inactive)
REMARK    1  A    between atoms: N_6  and  C_7
REMARK    2  A    between atoms: C_7  and  C_8
REMARK                            x       y       z     vdW  Elec       q    Type
REMARK                         _______ _______ _______ _____ _____    ______ ____
ROOT
ATOM      1  F   UNL     1      49.310   5.027  19.064  0.00  0.00    +0.000 F 
ATOM      2  C   UNL     1      48.672   4.702  17.935  0.00  0.00    +0.000 A 
ATOM      3  C   UNL     1      47.870   3.593  17.840  0.00  0.00    +0.000 A 
ATOM      4  N   UNL     1      47.202   3.252  16.713  0.00  0.00    +0.000 NA
ATOM      5  C   UNL     1      47.364   4.051  15.647  0.00  0.00    +0.000 A 
ATOM      6  N   UNL     1      46.679   3.693  14.495  0.00  0.00    +0.000 N 
ATOM      7  N   UNL     1      48.131   5.155  15.650  0.00  0.00    +0.000 NA
ATOM      8  C   UNL     1      48.773   5.457  16.800  0.00  0.00    +0.000 A 
ATOM      9  H   UNL     1      45.923   3.077  14.770  0.00  0.00    +0.000 HD
ENDROOT
BRANCH   6  10
ATOM     10  C   UNL     1      46.301   4.823  13.668  0.00  0.00    +0.000 C 
BRANCH  10  11
ATOM     11  C   UNL     1      45.078   4.493  12.848  0.00  0.00    +0.000 A 
ATOM     12  C   UNL     1      43.916   5.267  12.926  0.00  0.00    +0.000 A 
ATOM     13  C   UNL     1      42.845   4.943  12.105  0.00  0.00    +0.000 A 
ATOM     14  N   UNL     1      42.854   3.922  11.223  0.00  0.00    +0.000 NA
ATOM     15  C   UNL     1      43.985   3.189  11.159  0.00  0.00    +0.000 A 
ATOM     16  C   UNL     1      45.106   3.432  11.935  0.00  0.00    +0.000 A 
ENDBRANCH  10  11
ENDBRANCH   6  10
TORSDOF 2
ENDMDL
MODEL 7
REMARK VINA RESULT:    -5.049      4.048      5.838
REMARK INTER + INTRA:          -5.844
REMARK INTER:                  -5.612
REMARK INTRA:                  -0.231
REMARK UNBOUND:                -0.204
REMARK  Name = 
REMARK  2 active torsions:
REMARK  status: ('A' for Active; 'I' for Inactive)
REMARK    1  A    between atoms: N_6  and  C_7
REMARK    2  A    between atoms: C_7  and  C_8
REMARK                            x       y       z     vdW  Elec       q    Type
REMARK                         _______ _______ _______ _____ _____    ______ ____
ROOT
ATOM      1  F   UNL     1      50.923   8.618  12.190  0.00  0.00    +0.000 F 
ATOM      2  C   UNL     1      49.838   7.918  12.535  0.00  0.00    +0.000 A 
ATOM      3  C   UNL     1      49.681   7.380  13.787  0.00  0.00    +0.000 A 
ATOM      4  N   UNL     1      48.586   6.681  14.166  0.00  0.00    +0.000 NA
ATOM      5  C   UNL     1      47.627   6.510  13.242  0.00  0.00    +0.000 A 
ATOM      6  N   UNL     1      46.509   5.789  13.637  0.00  0.00    +0.000 N 
ATOM      7  N   UNL     1      47.697   6.999  11.992  0.00  0.00    +0.000 NA
ATOM      8  C   UNL     1      48.808   7.695  11.664  0.00  0.00    +0.000 A 
ATOM      9  H   UNL     1      46.477   5.808  14.649  0.00  0.00    +0.000 HD
ENDROOT
BRANCH   6  10
ATOM     10  C   UNL     1      45.290   6.192  12.961  0.00  0.00    +0.000 C 
BRANCH  10  11
ATOM     11  C   UNL     1      44.707   5.035  12.187  0.00  0.00    +0.000 A 
ATOM     12  C   UNL     1      43.999   4.013  12.827  0.00  0.00    +0.000 A 
ATOM     13  C   UNL     1      43.441   3.006  12.053  0.00  0.00    +0.000 A 
ATOM     14  N   UNL     1      43.535   2.950  10.708  0.00  0.00    +0.000 NA
ATOM     15  C   UNL     1      44.219   3.947  10.108  0.00  0.00    +0.000 A 
ATOM     16  C   UNL     1      44.811   4.996  10.792  0.00  0.00    +0.000 A 
ENDBRANCH  10  11
ENDBRANCH   6  10
TORSDOF 2
ENDMDL
MODEL 8
REMARK VINA RESULT:    -4.983      5.042      7.473
REMARK INTER + INTRA:          -5.770
REMARK INTER:                  -5.572
REMARK INTRA:                  -0.199
REMARK UNBOUND:                -0.204
REMARK  Name = 
REMARK  2 active torsions:
REMARK  status: ('A' for Active; 'I' for Inactive)
REMARK    1  A    between atoms: N_6  and  C_7
REMARK    2  A    between atoms: C_7  and  C_8
REMARK                            x       y       z     vdW  Elec       q    Type
REMARK                         _______ _______ _______ _____ _____    ______ ____
ROOT
ATOM      1  F   UNL     1      43.892   4.965  10.917  0.00  0.00    +0.000 F 
ATOM      2  C   UNL     1      44.765   5.023  11.926  0.00  0.00    +0.000 A 
ATOM      3  C   UNL     1      45.404   6.185  12.277  0.00  0.00    +0.000 A 
ATOM      4  N   UNL     1      46.280   6.272  13.305  0.00  0.00    +0.000 NA
ATOM      5  C   UNL     1      46.528   5.143  13.987  0.00  0.00    +0.000 A 
ATOM      6  N   UNL     1      47.430   5.240  15.037  0.00  0.00    +0.000 N 
ATOM      7  N   UNL     1      45.950   3.961  13.713  0.00  0.00    +0.000 NA
ATOM      8  C   UNL     1      45.078   3.926  12.681  0.00  0.00    +0.000 A 
ATOM      9  H   UNL     1      47.485   6.216  15.302  0.00  0.00    +0.000 HD
ENDROOT
BRANCH   6  10
ATOM     10  C   UNL     1      47.166   4.309  16.118  0.00  0.00    +0.000 C 
BRANCH  10  11
ATOM     11  C   UNL     1      48.459   3.807  16.711  0.00  0.00    +0.000 A 
ATOM     12  C   UNL     1      48.838   2.464  16.604  0.00  0.00    +0.000 A 
ATOM     13  C   UNL     1      50.066   2.077  17.122  0.00  0.00    +0.000 A 
ATOM     14  N   UNL     1      50.929   2.920  17.726  0.00  0.00    +0.000 NA
ATOM     15  C   UNL     1      50.548   4.212  17.816  0.00  0.00    +0.000 A 
ATOM     16  C   UNL     1      49.344   4.697  17.331  0.00  0.00    +0.000 A 
ENDBRANCH  10  11
ENDBRANCH   6  10
TORSDOF 2
ENDMDL
MODEL 9
REMARK VINA RESULT:    -4.748      4.092      6.370
REMARK INTER + INTRA:          -5.508
REMARK INTER:                  -5.311
REMARK INTRA:                  -0.197
REMARK UNBOUND:                -0.204
REMARK  Name = 
REMARK  2 active torsions:
REMARK  status: ('A' for Active; 'I' for Inactive)
REMARK    1  A    between atoms: N_6  and  C_7
REMARK    2  A    between atoms: C_7  and  C_8
REMARK                            x       y       z     vdW  Elec       q    Type
REMARK                         _______ _______ _______ _____ _____    ______ ____
ROOT
ATOM      1  F   UNL     1      43.051   2.227  12.062  0.00  0.00    +0.000 F 
ATOM      2  C   UNL     1      43.770   3.314  12.355  0.00  0.00    +0.000 A 
ATOM      3  C   UNL     1      43.214   4.429  12.928  0.00  0.00    +0.000 A 
ATOM      4  N   UNL     1      43.924   5.536  13.249  0.00  0.00    +0.000 NA
ATOM      5  C   UNL     1      45.236   5.517  12.966  0.00  0.00    +0.000 A 
ATOM      6  N   UNL     1      45.957   6.655  13.294  0.00  0.00    +0.000 N 
ATOM      7  N   UNL     1      45.864   4.470  12.404  0.00  0.00    +0.000 NA
ATOM      8  C   UNL     1      45.113   3.386  12.107  0.00  0.00    +0.000 A 
ATOM      9  H   UNL     1      45.422   7.164  13.988  0.00  0.00    +0.000 HD
ENDROOT
BRANCH   6  10
ATOM     10  C   UNL     1      47.341   6.389  13.637  0.00  0.00    +0.000 C 
BRANCH  10  11
ATOM     11  C   UNL     1      48.223   7.535  13.208  0.00  0.00    +0.000 A 
ATOM     12  C   UNL     1      48.856   7.541  11.961  0.00  0.00    +0.000 A 
ATOM     13  C   UNL     1      49.609   8.650  11.602  0.00  0.00    +0.000 A 
ATOM     14  N   UNL     1      49.769   9.737  12.386  0.00  0.00    +0.000 NA
ATOM     15  C   UNL     1      49.147   9.715  13.584  0.00  0.00    +0.000 A 
ATOM     16  C   UNL     1      48.374   8.656  14.032  0.00  0.00    +0.000 A 
ENDBRANCH  10  11
ENDBRANCH   6  10
TORSDOF 2
ENDMDL
