MODEL 1
REMARK VINA RESULT:    -8.418      0.000      0.000
REMARK INTER + INTRA:         -12.137
REMARK INTER:                 -11.371
REMARK INTRA:                  -0.767
REMARK UNBOUND:                -0.767
REMARK  Name = 
REMARK  6 active torsions:
REMARK  status: ('A' for Active; 'I' for Inactive)
REMARK    1  A    between atoms: C_2  and  C_4
REMARK    2  A    between atoms: N_8  and  C_9
REMARK    3  A    between atoms: C_9  and  C_10
REMARK    4  A    between atoms: C_13  and  O_14
REMARK    5  A    between atoms: O_14  and  C_15
REMARK    6  A    between atoms: C_15  and  C_16
REMARK                            x       y       z     vdW  Elec       q    Type
REMARK                         _______ _______ _______ _____ _____    ______ ____
ROOT
ATOM      1  C   UNL     1      46.648   2.707   7.366  0.00  0.00    +0.000 A 
ATOM      2  C   UNL     1      46.402   4.043   7.673  0.00  0.00    +0.000 A 
ATOM      3  C   UNL     1      45.529   4.356   8.717  0.00  0.00    +0.000 A 
ATOM      4  C   UNL     1      44.909   3.334   9.427  0.00  0.00    +0.000 A 
ATOM      5  N   UNL     1      43.945   3.557  10.413  0.00  0.00    +0.000 N 
ATOM      6  N   UNL     1      45.136   2.035   9.133  0.00  0.00    +0.000 NA
ATOM      7  C   UNL     1      45.990   1.747   8.116  0.00  0.00    +0.000 A 
ATOM      8  H   UNL     1      43.712   2.640  10.787  0.00  0.00    +0.000 HD
ENDROOT
BRANCH   1  10
ATOM      9  N   UNL     1      47.484   3.011   5.104  0.00  0.00    +0.000 N 
ATOM     10  C   UNL     1      47.530   2.283   6.261  0.00  0.00    +0.000 C 
ATOM     11  O   UNL     1      48.294   1.333   6.378  0.00  0.00    +0.000 OA
ATOM     12  H   UNL     1      48.150   2.759   4.384  0.00  0.00    +0.000 HD
ATOM     13  H   UNL     1      47.058   3.925   5.045  0.00  0.00    +0.000 HD
ENDBRANCH   1  10
BRANCH   5  14
ATOM     14  C   UNL     1      43.922   4.692  11.344  0.00  0.00    +0.000 C 
ATOM     15  C   UNL     1      42.536   5.036  11.888  0.00  0.00    +0.000 C 
ATOM     16  C   UNL     1      43.253   6.019  11.026  0.00  0.00    +0.000 C 
BRANCH  14  17
ATOM     17  C   UNL     1      45.083   4.721  12.329  0.00  0.00    +0.000 A 
ATOM     18  C   UNL     1      45.708   5.913  12.722  0.00  0.00    +0.000 A 
ATOM     19  C   UNL     1      46.706   5.903  13.697  0.00  0.00    +0.000 A 
ATOM     20  C   UNL     1      47.083   4.687  14.238  0.00  0.00    +0.000 A 
ATOM     21  N   UNL     1      46.543   3.510  13.872  0.00  0.00    +0.000 NA
ATOM     22  C   UNL     1      45.570   3.559  12.933  0.00  0.00    +0.000 A 
BRANCH  20  23
ATOM     23  O   UNL     1      48.012   4.713  15.256  0.00  0.00    +0.000 OA
BRANCH  23  24
ATOM     24  C   UNL     1      47.501   4.143  16.466  0.00  0.00    +0.000 C 
BRANCH  24  25
ATOM     25  C   UNL     1      48.462   3.074  16.957  0.00  0.00    +0.000 C 
ATOM     26  F   UNL     1      48.630   2.127  15.994  0.00  0.00    +0.000 F 
ENDBRANCH  24  25
ENDBRANCH  23  24
ENDBRANCH  20  23
ENDBRANCH  14  17
ENDBRANCH   5  14
TORSDOF 6
ENDMDL
MODEL 2
REMARK VINA RESULT:    -8.015      1.956      2.111
REMARK INTER + INTRA:         -11.592
REMARK INTER:                 -10.800
REMARK INTRA:                  -0.793
REMARK UNBOUND:                -0.767
REMARK  Name = 
REMARK  6 active torsions:
REMARK  status: ('A' for Active; 'I' for Inactive)
REMARK    1  A    between atoms: C_2  and  C_4
REMARK    2  A    between atoms: N_8  and  C_9
REMARK    3  A    between atoms: C_9  and  C_10
REMARK    4  A    between atoms: C_13  and  O_14
REMARK    5  A    between atoms: O_14  and  C_15
REMARK    6  A    between atoms: C_15  and  C_16
REMARK                            x       y       z     vdW  Elec       q    Type
REMARK                         _______ _______ _______ _____ _____    ______ ____
ROOT
ATOM      1  C   UNL     1      46.509   2.693   7.413  0.00  0.00    +0.000 A 
ATOM      2  C   UNL     1      46.178   4.028   7.627  0.00  0.00    +0.000 A 
ATOM      3  C   UNL     1      45.376   4.367   8.718  0.00  0.00    +0.000 A 
ATOM      4  C   UNL     1      44.910   3.371   9.569  0.00  0.00    +0.000 A 
ATOM      5  N   UNL     1      44.022   3.609  10.619  0.00  0.00    +0.000 N 
ATOM      6  N   UNL     1      45.222   2.072   9.367  0.00  0.00    +0.000 NA
ATOM      7  C   UNL     1      46.005   1.759   8.301  0.00  0.00    +0.000 A 
ATOM      8  H   UNL     1      43.901   2.715  11.091  0.00  0.00    +0.000 HD
ENDROOT
BRANCH   1  10
ATOM      9  N   UNL     1      47.334   3.025   5.150  0.00  0.00    +0.000 N 
ATOM     10  C   UNL     1      47.324   2.238   6.269  0.00  0.00    +0.000 C 
ATOM     11  O   UNL     1      47.988   1.210   6.323  0.00  0.00    +0.000 OA
ATOM     12  H   UNL     1      47.957   2.744   4.404  0.00  0.00    +0.000 HD
ATOM     13  H   UNL     1      47.003   3.979   5.145  0.00  0.00    +0.000 HD
ENDBRANCH   1  10
BRANCH   5  14
ATOM     14  C   UNL     1      43.982   4.820  11.448  0.00  0.00    +0.000 C 
ATOM     15  C   UNL     1      42.785   4.901  12.394  0.00  0.00    +0.000 C 
ATOM     16  C   UNL     1      42.926   5.901  11.297  0.00  0.00    +0.000 C 
BRANCH  14  17
ATOM     17  C   UNL     1      45.336   5.247  12.001  0.00  0.00    +0.000 A 
ATOM     18  C   UNL     1      45.929   6.475  11.676  0.00  0.00    +0.000 A 
ATOM     19  C   UNL     1      47.125   6.868  12.277  0.00  0.00    +0.000 A 
ATOM     20  C   UNL     1      47.725   6.001  13.172  0.00  0.00    +0.000 A 
ATOM     21  N   UNL     1      47.219   4.795  13.493  0.00  0.00    +0.000 NA
ATOM     22  C   UNL     1      46.052   4.454  12.900  0.00  0.00    +0.000 A 
BRANCH  20  23
ATOM     23  O   UNL     1      48.861   6.446  13.813  0.00  0.00    +0.000 OA
BRANCH  23  24
ATOM     24  C   UNL     1      48.640   6.669  15.209  0.00  0.00    +0.000 C 
BRANCH  24  25
ATOM     25  C   UNL     1      48.785   8.151  15.506  0.00  0.00    +0.000 C 
ATOM     26  F   UNL     1      47.744   8.835  14.956  0.00  0.00    +0.000 F 
ENDBRANCH  24  25
ENDBRANCH  23  24
ENDBRANCH  20  23
ENDBRANCH  14  17
ENDBRANCH   5  14
TORSDOF 6
ENDMDL
MODEL 3
REMARK VINA RESULT:    -6.805      3.063      6.887
REMARK INTER + INTRA:          -9.959
REMARK INTER:                  -9.354
REMARK INTRA:                  -0.605
REMARK UNBOUND:                -0.767
REMARK  Name = 
REMARK  6 active torsions:
REMARK  status: ('A' for Active; 'I' for Inactive)
REMARK    1  A    between atoms: C_2  and  C_4
REMARK    2  A    between atoms: N_8  and  C_9
REMARK    3  A    between atoms: C_9  and  C_10
REMARK    4  A    between atoms: C_13  and  O_14
REMARK    5  A    between atoms: O_14  and  C_15
REMARK    6  A    between atoms: C_15  and  C_16
REMARK                            x       y       z     vdW  Elec       q    Type
REMARK                         _______ _______ _______ _____ _____    ______ ____
ROOT
ATOM      1  C   UNL     1      48.403   7.104  13.611  0.00  0.00    +0.000 A 
ATOM      2  C   UNL     1      47.697   5.949  13.938  0.00  0.00    +0.000 A 
ATOM      3  C   UNL     1      46.419   5.757  13.409  0.00  0.00    +0.000 A 
ATOM      4  C   UNL     1      45.864   6.721  12.576  0.00  0.00    +0.000 A 
ATOM      5  N   UNL     1      44.557   6.659  12.090  0.00  0.00    +0.000 N 
ATOM      6  N   UNL     1      46.539   7.847  12.258  0.00  0.00    +0.000 NA
ATOM      7  C   UNL     1      47.782   8.019  12.778  0.00  0.00    +0.000 A 
ATOM      8  H   UNL     1      44.448   7.463  11.476  0.00  0.00    +0.000 HD
ENDROOT
BRANCH   1  10
ATOM      9  N   UNL     1      50.701   7.814  13.257  0.00  0.00    +0.000 N 
ATOM     10  C   UNL     1      49.745   7.407  14.147  0.00  0.00    +0.000 C 
ATOM     11  O   UNL     1      49.992   7.323  15.344  0.00  0.00    +0.000 OA
ATOM     12  H   UNL     1      51.592   8.094  13.646  0.00  0.00    +0.000 HD
ATOM     13  H   UNL     1      50.485   8.121  12.320  0.00  0.00    +0.000 HD
ENDBRANCH   1  10
BRANCH   5  14
ATOM     14  C   UNL     1      43.837   5.431  11.729  0.00  0.00    +0.000 C 
ATOM     15  C   UNL     1      42.315   5.541  11.813  0.00  0.00    +0.000 C 
ATOM     16  C   UNL     1      43.036   4.609  12.725  0.00  0.00    +0.000 C 
BRANCH  14  17
ATOM     17  C   UNL     1      44.415   4.693  10.529  0.00  0.00    +0.000 A 
ATOM     18  C   UNL     1      44.134   3.345  10.266  0.00  0.00    +0.000 A 
ATOM     19  C   UNL     1      44.609   2.734   9.105  0.00  0.00    +0.000 A 
ATOM     20  C   UNL     1      45.392   3.481   8.244  0.00  0.00    +0.000 A 
ATOM     21  N   UNL     1      45.723   4.767   8.465  0.00  0.00    +0.000 NA
ATOM     22  C   UNL     1      45.234   5.330   9.593  0.00  0.00    +0.000 A 
BRANCH  20  23
ATOM     23  O   UNL     1      45.781   2.879   7.066  0.00  0.00    +0.000 OA
BRANCH  23  24
ATOM     24  C   UNL     1      47.169   3.090   6.786  0.00  0.00    +0.000 C 
BRANCH  24  25
ATOM     25  C   UNL     1      47.912   1.772   6.926  0.00  0.00    +0.000 C 
ATOM     26  F   UNL     1      47.022   0.759   7.108  0.00  0.00    +0.000 F 
ENDBRANCH  24  25
ENDBRANCH  23  24
ENDBRANCH  20  23
ENDBRANCH  14  17
ENDBRANCH   5  14
TORSDOF 6
ENDMDL
MODEL 4
REMARK VINA RESULT:    -6.432      2.700      7.340
REMARK INTER + INTRA:          -9.454
REMARK INTER:                  -9.639
REMARK INTRA:                   0.185
REMARK UNBOUND:                -0.767
REMARK  Name = 
REMARK  6 active torsions:
REMARK  status: ('A' for Active; 'I' for Inactive)
REMARK    1  A    between atoms: C_2  and  C_4
REMARK    2  A    between atoms: N_8  and  C_9
REMARK    3  A    between atoms: C_9  and  C_10
REMARK    4  A    between atoms: C_13  and  O_14
REMARK    5  A    between atoms: O_14  and  C_15
REMARK    6  A    between atoms: C_15  and  C_16
REMARK                            x       y       z     vdW  Elec       q    Type
REMARK                         _______ _______ _______ _____ _____    ______ ____
ROOT
ATOM      1  C   UNL     1      48.249   5.767  15.452  0.00  0.00    +0.000 A 
ATOM      2  C   UNL     1      47.964   6.259  14.182  0.00  0.00    +0.000 A 
ATOM      3  C   UNL     1      47.002   5.615  13.399  0.00  0.00    +0.000 A 
ATOM      4  C   UNL     1      46.353   4.489  13.891  0.00  0.00    +0.000 A 
ATOM      5  N   UNL     1      45.458   3.726  13.139  0.00  0.00    +0.000 N 
ATOM      6  N   UNL     1      46.627   4.001  15.121  0.00  0.00    +0.000 NA
ATOM      7  C   UNL     1      47.563   4.639  15.871  0.00  0.00    +0.000 A 
ATOM      8  H   UNL     1      45.108   3.006  13.767  0.00  0.00    +0.000 HD
ENDROOT
BRANCH   1  10
ATOM      9  N   UNL     1      48.871   6.758  17.583  0.00  0.00    +0.000 N 
ATOM     10  C   UNL     1      49.271   6.362  16.336  0.00  0.00    +0.000 C 
ATOM     11  O   UNL     1      50.438   6.476  15.982  0.00  0.00    +0.000 OA
ATOM     12  H   UNL     1      49.596   7.091  18.206  0.00  0.00    +0.000 HD
ATOM     13  H   UNL     1      47.996   6.471  17.997  0.00  0.00    +0.000 HD
ENDBRANCH   1  10
BRANCH   5  14
ATOM     14  C   UNL     1      44.531   4.247  12.126  0.00  0.00    +0.000 C 
ATOM     15  C   UNL     1      43.845   5.557  12.510  0.00  0.00    +0.000 C 
ATOM     16  C   UNL     1      43.028   4.324  12.331  0.00  0.00    +0.000 C 
BRANCH  14  17
ATOM     17  C   UNL     1      45.028   4.117  10.693  0.00  0.00    +0.000 A 
ATOM     18  C   UNL     1      44.867   2.943   9.942  0.00  0.00    +0.000 A 
ATOM     19  C   UNL     1      45.253   2.897   8.603  0.00  0.00    +0.000 A 
ATOM     20  C   UNL     1      45.830   4.025   8.048  0.00  0.00    +0.000 A 
ATOM     21  N   UNL     1      46.042   5.166   8.730  0.00  0.00    +0.000 NA
ATOM     22  C   UNL     1      45.643   5.177  10.023  0.00  0.00    +0.000 A 
BRANCH  20  23
ATOM     23  O   UNL     1      46.128   3.982   6.702  0.00  0.00    +0.000 OA
BRANCH  23  24
ATOM     24  C   UNL     1      46.397   2.649   6.253  0.00  0.00    +0.000 C 
BRANCH  24  25
ATOM     25  C   UNL     1      47.900   2.437   6.194  0.00  0.00    +0.000 C 
ATOM     26  F   UNL     1      48.306   1.716   7.275  0.00  0.00    +0.000 F 
ENDBRANCH  24  25
ENDBRANCH  23  24
ENDBRANCH  20  23
ENDBRANCH  14  17
ENDBRANCH   5  14
TORSDOF 6
ENDMDL
MODEL 5
REMARK VINA RESULT:    -6.064      3.634      7.143
REMARK INTER + INTRA:          -8.957
REMARK INTER:                  -8.832
REMARK INTRA:                  -0.126
REMARK UNBOUND:                -0.767
REMARK  Name = 
REMARK  6 active torsions:
REMARK  status: ('A' for Active; 'I' for Inactive)
REMARK    1  A    between atoms: C_2  and  C_4
REMARK    2  A    between atoms: N_8  and  C_9
REMARK    3  A    between atoms: C_9  and  C_10
REMARK    4  A    between atoms: C_13  and  O_14
REMARK    5  A    between atoms: O_14  and  C_15
REMARK    6  A    between atoms: C_15  and  C_16
REMARK                            x       y       z     vdW  Elec       q    Type
REMARK                         _______ _______ _______ _____ _____    ______ ____
ROOT
ATOM      1  C   UNL     1      47.117   9.407  12.694  0.00  0.00    +0.000 A 
ATOM      2  C   UNL     1      47.397   8.131  13.174  0.00  0.00    +0.000 A 
ATOM      3  C   UNL     1      46.455   7.114  13.002  0.00  0.00    +0.000 A 
ATOM      4  C   UNL     1      45.250   7.390  12.366  0.00  0.00    +0.000 A 
ATOM      5  N   UNL     1      44.213   6.463  12.245  0.00  0.00    +0.000 N 
ATOM      6  N   UNL     1      44.967   8.627  11.902  0.00  0.00    +0.000 NA
ATOM      7  C   UNL     1      45.895   9.605  12.076  0.00  0.00    +0.000 A 
ATOM      8  H   UNL     1      43.489   6.923  11.698  0.00  0.00    +0.000 HD
ENDROOT
BRANCH   1  10
ATOM      9  N   UNL     1      48.611  10.725  14.089  0.00  0.00    +0.000 N 
ATOM     10  C   UNL     1      48.038  10.550  12.859  0.00  0.00    +0.000 C 
ATOM     11  O   UNL     1      48.304  11.299  11.927  0.00  0.00    +0.000 OA
ATOM     12  H   UNL     1      49.299  11.463  14.167  0.00  0.00    +0.000 HD
ATOM     13  H   UNL     1      48.610  10.011  14.803  0.00  0.00    +0.000 HD
ENDBRANCH   1  10
BRANCH   5  14
ATOM     14  C   UNL     1      44.378   5.015  12.064  0.00  0.00    +0.000 C 
ATOM     15  C   UNL     1      43.354   4.162  12.811  0.00  0.00    +0.000 C 
ATOM     16  C   UNL     1      44.794   4.075  13.183  0.00  0.00    +0.000 C 
BRANCH  14  17
ATOM     17  C   UNL     1      44.729   4.595  10.642  0.00  0.00    +0.000 A 
ATOM     18  C   UNL     1      45.605   5.332   9.833  0.00  0.00    +0.000 A 
ATOM     19  C   UNL     1      45.971   4.863   8.571  0.00  0.00    +0.000 A 
ATOM     20  C   UNL     1      45.421   3.674   8.128  0.00  0.00    +0.000 A 
ATOM     21  N   UNL     1      44.547   2.944   8.848  0.00  0.00    +0.000 NA
ATOM     22  C   UNL     1      44.225   3.424  10.071  0.00  0.00    +0.000 A 
BRANCH  20  23
ATOM     23  O   UNL     1      45.860   3.191   6.914  0.00  0.00    +0.000 OA
BRANCH  23  24
ATOM     24  C   UNL     1      47.273   2.959   6.906  0.00  0.00    +0.000 C 
BRANCH  24  25
ATOM     25  C   UNL     1      47.533   1.463   6.917  0.00  0.00    +0.000 C 
ATOM     26  F   UNL     1      46.954   0.903   8.013  0.00  0.00    +0.000 F 
ENDBRANCH  24  25
ENDBRANCH  23  24
ENDBRANCH  20  23
ENDBRANCH  14  17
ENDBRANCH   5  14
TORSDOF 6
ENDMDL
