MODEL 1
REMARK VINA RESULT:    -7.326      0.000      0.000
REMARK INTER + INTRA:         -11.448
REMARK INTER:                 -10.324
REMARK INTRA:                  -1.125
REMARK UNBOUND:                -1.125
REMARK  Name = 
REMARK  8 active torsions:
REMARK  status: ('A' for Active; 'I' for Inactive)
REMARK    1  A    between atoms: C_1  and  O_2
REMARK    2  A    between atoms: O_2  and  C_3
REMARK    3  A    between atoms: C_8  and  C_9
REMARK    4  A    between atoms: N_11  and  C_12
REMARK    5  A    between atoms: C_12  and  C_13
REMARK    6  A    between atoms: C_16  and  C_17
REMARK    7  A    between atoms: C_17  and  N_18
REMARK    8  A    between atoms: C_19  and  C_21
REMARK                            x       y       z     vdW  Elec       q    Type
REMARK                         _______ _______ _______ _____ _____    ______ ____
ROOT
ATOM      1  C   UNL     1      51.320   2.989  17.725  0.00  0.00    +0.000 A 
ATOM      2  C   UNL     1      50.580   1.954  17.150  0.00  0.00    +0.000 A 
ATOM      3  C   UNL     1      49.223   2.127  16.877  0.00  0.00    +0.000 A 
ATOM      4  C   UNL     1      48.616   3.331  17.219  0.00  0.00    +0.000 A 
ATOM      5  N   UNL     1      49.308   4.351  17.790  0.00  0.00    +0.000 NA
ATOM      6  C   UNL     1      50.631   4.159  18.024  0.00  0.00    +0.000 A 
ENDROOT
BRANCH   1   7
ATOM      7  C   UNL     1      52.793   2.848  17.974  0.00  0.00    +0.000 C 
BRANCH   7  10
ATOM      8  C   UNL     1      54.364   1.088  17.288  0.00  0.00    +0.000 C 
ATOM      9  O   UNL     1      55.038   1.884  16.642  0.00  0.00    +0.000 OA
ATOM     10  N   UNL     1      53.241   1.474  17.986  0.00  0.00    +0.000 N 
ATOM     11  H   UNL     1      52.686   0.766  18.454  0.00  0.00    +0.000 HD
BRANCH   8  17
ATOM     12  C   UNL     1      54.820  -1.156  18.487  0.00  0.00    +0.000 A 
ATOM     13  C   UNL     1      55.241  -2.478  18.328  0.00  0.00    +0.000 A 
ATOM     14  N   UNL     1      55.554  -3.061  17.148  0.00  0.00    +0.000 NA
ATOM     15  C   UNL     1      55.454  -2.286  16.055  0.00  0.00    +0.000 A 
ATOM     16  C   UNL     1      55.074  -0.955  16.094  0.00  0.00    +0.000 A 
ATOM     17  C   UNL     1      54.756  -0.366  17.330  0.00  0.00    +0.000 A 
BRANCH  12  19
ATOM     18  C   UNL     1      55.622  -0.348  20.560  0.00  0.00    +0.000 C 
ATOM     19  O   UNL     1      54.506  -0.615  19.707  0.00  0.00    +0.000 OA
ENDBRANCH  12  19
ENDBRANCH   8  17
ENDBRANCH   7  10
ENDBRANCH   1   7
BRANCH   4  20
ATOM     20  C   UNL     1      47.141   3.543  16.958  0.00  0.00    +0.000 C 
BRANCH  20  21
ATOM     21  N   UNL     1      46.890   4.501  15.906  0.00  0.00    +0.000 N 
ATOM     22  C   UNL     1      46.958   4.187  14.575  0.00  0.00    +0.000 C 
ATOM     23  O   UNL     1      47.264   3.066  14.181  0.00  0.00    +0.000 OA
ATOM     24  H   UNL     1      46.880   5.474  16.194  0.00  0.00    +0.000 HD
BRANCH  22  25
ATOM     25  C   UNL     1      46.566   5.255  13.642  0.00  0.00    +0.000 A 
ATOM     26  C   UNL     1      47.456   6.285  13.355  0.00  0.00    +0.000 A 
ATOM     27  S   UNL     1      46.849   7.416  12.231  0.00  0.00    +0.000 S 
ATOM     28  C   UNL     1      45.363   6.593  12.122  0.00  0.00    +0.000 A 
ATOM     29  N   UNL     1      44.359   7.058  11.333  0.00  0.00    +0.000 NA
ATOM     30  C   UNL     1      43.275   6.357  11.375  0.00  0.00    +0.000 A 
ATOM     31  N   UNL     1      43.114   5.222  12.122  0.00  0.00    +0.000 N 
ATOM     32  C   UNL     1      44.117   4.679  12.882  0.00  0.00    +0.000 A 
ATOM     33  O   UNL     1      43.973   3.601  13.447  0.00  0.00    +0.000 OA
ATOM     34  C   UNL     1      45.342   5.457  12.909  0.00  0.00    +0.000 A 
ATOM     35  H   UNL     1      42.251   4.696  12.091  0.00  0.00    +0.000 HD
ENDBRANCH  22  25
ENDBRANCH  20  21
ENDBRANCH   4  20
TORSDOF 7
ENDMDL
MODEL 2
REMARK VINA RESULT:    -7.059      3.314      5.342
REMARK INTER + INTRA:         -11.073
REMARK INTER:                  -9.953
REMARK INTRA:                  -1.119
REMARK UNBOUND:                -1.125
REMARK  Name = 
REMARK  8 active torsions:
REMARK  status: ('A' for Active; 'I' for Inactive)
REMARK    1  A    between atoms: C_1  and  O_2
REMARK    2  A    between atoms: O_2  and  C_3
REMARK    3  A    between atoms: C_8  and  C_9
REMARK    4  A    between atoms: N_11  and  C_12
REMARK    5  A    between atoms: C_12  and  C_13
REMARK    6  A    between atoms: C_16  and  C_17
REMARK    7  A    between atoms: C_17  and  N_18
REMARK    8  A    between atoms: C_19  and  C_21
REMARK                            x       y       z     vdW  Elec       q    Type
REMARK                         _______ _______ _______ _____ _____    ______ ____
ROOT
ATOM      1  C   UNL     1      50.254   7.362  15.262  0.00  0.00    +0.000 A 
ATOM      2  C   UNL     1      50.558   8.198  14.186  0.00  0.00    +0.000 A 
ATOM      3  C   UNL     1      49.667   8.327  13.120  0.00  0.00    +0.000 A 
ATOM      4  C   UNL     1      48.492   7.583  13.133  0.00  0.00    +0.000 A 
ATOM      5  N   UNL     1      48.174   6.753  14.161  0.00  0.00    +0.000 NA
ATOM      6  C   UNL     1      49.052   6.666  15.192  0.00  0.00    +0.000 A 
ENDROOT
BRANCH   1   7
ATOM      7  C   UNL     1      51.169   7.254  16.446  0.00  0.00    +0.000 C 
BRANCH   7  10
ATOM      8  C   UNL     1      51.212   5.165  17.737  0.00  0.00    +0.000 C 
ATOM      9  O   UNL     1      50.379   5.589  18.530  0.00  0.00    +0.000 OA
ATOM     10  N   UNL     1      51.657   5.913  16.670  0.00  0.00    +0.000 N 
ATOM     11  H   UNL     1      52.392   5.538  16.080  0.00  0.00    +0.000 HD
BRANCH   8  17
ATOM     12  C   UNL     1      51.258   2.607  17.363  0.00  0.00    +0.000 A 
ATOM     13  C   UNL     1      51.911   1.413  17.675  0.00  0.00    +0.000 A 
ATOM     14  N   UNL     1      53.025   1.307  18.435  0.00  0.00    +0.000 NA
ATOM     15  C   UNL     1      53.522   2.455  18.927  0.00  0.00    +0.000 A 
ATOM     16  C   UNL     1      52.944   3.694  18.708  0.00  0.00    +0.000 A 
ATOM     17  C   UNL     1      51.784   3.783  17.918  0.00  0.00    +0.000 A 
BRANCH  12  19
ATOM     18  C   UNL     1      48.894   2.588  17.288  0.00  0.00    +0.000 C 
ATOM     19  O   UNL     1      50.134   2.660  16.580  0.00  0.00    +0.000 OA
ENDBRANCH  12  19
ENDBRANCH   8  17
ENDBRANCH   7  10
ENDBRANCH   1   7
BRANCH   4  20
ATOM     20  C   UNL     1      47.514   7.680  11.983  0.00  0.00    +0.000 C 
BRANCH  20  21
ATOM     21  N   UNL     1      46.773   6.459  11.770  0.00  0.00    +0.000 N 
ATOM     22  C   UNL     1      45.405   6.405  11.750  0.00  0.00    +0.000 C 
ATOM     23  O   UNL     1      44.708   7.398  11.937  0.00  0.00    +0.000 OA
ATOM     24  H   UNL     1      47.309   5.602  11.861  0.00  0.00    +0.000 HD
BRANCH  22  25
ATOM     25  C   UNL     1      44.817   5.100  11.413  0.00  0.00    +0.000 A 
ATOM     26  C   UNL     1      44.024   4.437  12.344  0.00  0.00    +0.000 A 
ATOM     27  S   UNL     1      43.400   2.954  11.773  0.00  0.00    +0.000 S 
ATOM     28  C   UNL     1      44.203   3.127  10.282  0.00  0.00    +0.000 A 
ATOM     29  N   UNL     1      44.112   2.171   9.320  0.00  0.00    +0.000 NA
ATOM     30  C   UNL     1      44.801   2.414   8.256  0.00  0.00    +0.000 A 
ATOM     31  N   UNL     1      45.557   3.537   8.061  0.00  0.00    +0.000 N 
ATOM     32  C   UNL     1      45.628   4.558   8.973  0.00  0.00    +0.000 A 
ATOM     33  O   UNL     1      46.223   5.599   8.716  0.00  0.00    +0.000 OA
ATOM     34  C   UNL     1      44.911   4.312  10.211  0.00  0.00    +0.000 A 
ATOM     35  H   UNL     1      46.052   3.688   7.192  0.00  0.00    +0.000 HD
ENDBRANCH  22  25
ENDBRANCH  20  21
ENDBRANCH   4  20
TORSDOF 7
ENDMDL
MODEL 3
REMARK VINA RESULT:    -7.035      3.043      4.782
REMARK INTER + INTRA:         -11.039
REMARK INTER:                  -9.715
REMARK INTRA:                  -1.324
REMARK UNBOUND:                -1.125
REMARK  Name = 
REMARK  8 active torsions:
REMARK  status: ('A' for Active; 'I' for Inactive)
REMARK    1  A    between atoms: C_1  and  O_2
REMARK    2  A    between atoms: O_2  and  C_3
REMARK    3  A    between atoms: C_8  and  C_9
REMARK    4  A    between atoms: N_11  and  C_12
REMARK    5  A    between atoms: C_12  and  C_13
REMARK    6  A    between atoms: C_16  and  C_17
REMARK    7  A    between atoms: C_17  and  N_18
REMARK    8  A    between atoms: C_19  and  C_21
REMARK                            x       y       z     vdW  Elec       q    Type
REMARK                         _______ _______ _______ _____ _____    ______ ____
ROOT
ATOM      1  C   UNL     1      49.746   7.174  16.263  0.00  0.00    +0.000 A 
ATOM      2  C   UNL     1      48.754   6.349  15.729  0.00  0.00    +0.000 A 
ATOM      3  C   UNL     1      48.278   6.566  14.436  0.00  0.00    +0.000 A 
ATOM      4  C   UNL     1      48.783   7.636  13.704  0.00  0.00    +0.000 A 
ATOM      5  N   UNL     1      49.741   8.461  14.201  0.00  0.00    +0.000 NA
ATOM      6  C   UNL     1      50.198   8.211  15.455  0.00  0.00    +0.000 A 
ENDROOT
BRANCH   1   7
ATOM      7  C   UNL     1      50.315   6.923  17.629  0.00  0.00    +0.000 C 
BRANCH   7  10
ATOM      8  C   UNL     1      51.817   4.997  17.375  0.00  0.00    +0.000 C 
ATOM      9  O   UNL     1      52.628   5.660  16.737  0.00  0.00    +0.000 OA
ATOM     10  N   UNL     1      50.649   5.538  17.864  0.00  0.00    +0.000 N 
ATOM     11  H   UNL     1      49.985   4.930  18.332  0.00  0.00    +0.000 HD
BRANCH   8  17
ATOM     12  C   UNL     1      51.243   2.478  17.277  0.00  0.00    +0.000 A 
ATOM     13  C   UNL     1      51.647   1.193  17.644  0.00  0.00    +0.000 A 
ATOM     14  N   UNL     1      52.800   0.890  18.284  0.00  0.00    +0.000 NA
ATOM     15  C   UNL     1      53.601   1.925  18.592  0.00  0.00    +0.000 A 
ATOM     16  C   UNL     1      53.290   3.244  18.304  0.00  0.00    +0.000 A 
ATOM     17  C   UNL     1      52.086   3.538  17.641  0.00  0.00    +0.000 A 
BRANCH  12  19
ATOM     18  C   UNL     1      48.883   2.583  17.410  0.00  0.00    +0.000 C 
ATOM     19  O   UNL     1      50.065   2.730  16.620  0.00  0.00    +0.000 OA
ENDBRANCH  12  19
ENDBRANCH   8  17
ENDBRANCH   7  10
ENDBRANCH   1   7
BRANCH   4  20
ATOM     20  C   UNL     1      48.274   7.913  12.308  0.00  0.00    +0.000 C 
BRANCH  20  21
ATOM     21  N   UNL     1      47.508   6.818  11.761  0.00  0.00    +0.000 N 
ATOM     22  C   UNL     1      46.166   6.897  11.502  0.00  0.00    +0.000 C 
ATOM     23  O   UNL     1      45.511   7.906  11.743  0.00  0.00    +0.000 OA
ATOM     24  H   UNL     1      47.963   5.911  11.786  0.00  0.00    +0.000 HD
BRANCH  22  25
ATOM     25  C   UNL     1      45.567   5.725  10.846  0.00  0.00    +0.000 A 
ATOM     26  C   UNL     1      45.712   5.552   9.473  0.00  0.00    +0.000 A 
ATOM     27  S   UNL     1      44.984   4.124   8.887  0.00  0.00    +0.000 S 
ATOM     28  C   UNL     1      44.414   3.712  10.437  0.00  0.00    +0.000 A 
ATOM     29  N   UNL     1      43.672   2.591  10.638  0.00  0.00    +0.000 NA
ATOM     30  C   UNL     1      43.275   2.422  11.854  0.00  0.00    +0.000 A 
ATOM     31  N   UNL     1      43.570   3.265  12.891  0.00  0.00    +0.000 N 
ATOM     32  C   UNL     1      44.368   4.370  12.751  0.00  0.00    +0.000 A 
ATOM     33  O   UNL     1      44.704   5.038  13.724  0.00  0.00    +0.000 OA
ATOM     34  C   UNL     1      44.799   4.635  11.391  0.00  0.00    +0.000 A 
ATOM     35  H   UNL     1      43.257   3.064  13.832  0.00  0.00    +0.000 HD
ENDBRANCH  22  25
ENDBRANCH  20  21
ENDBRANCH   4  20
TORSDOF 7
ENDMDL
MODEL 4
REMARK VINA RESULT:    -6.926      1.544      2.409
REMARK INTER + INTRA:         -10.885
REMARK INTER:                  -9.461
REMARK INTRA:                  -1.424
REMARK UNBOUND:                -1.125
REMARK  Name = 
REMARK  8 active torsions:
REMARK  status: ('A' for Active; 'I' for Inactive)
REMARK    1  A    between atoms: C_1  and  O_2
REMARK    2  A    between atoms: O_2  and  C_3
REMARK    3  A    between atoms: C_8  and  C_9
REMARK    4  A    between atoms: N_11  and  C_12
REMARK    5  A    between atoms: C_12  and  C_13
REMARK    6  A    between atoms: C_16  and  C_17
REMARK    7  A    between atoms: C_17  and  N_18
REMARK    8  A    between atoms: C_19  and  C_21
REMARK                            x       y       z     vdW  Elec       q    Type
REMARK                         _______ _______ _______ _____ _____    ______ ____
ROOT
ATOM      1  C   UNL     1      51.354   2.824  17.806  0.00  0.00    +0.000 A 
ATOM      2  C   UNL     1      50.583   1.866  17.145  0.00  0.00    +0.000 A 
ATOM      3  C   UNL     1      49.253   2.134  16.822  0.00  0.00    +0.000 A 
ATOM      4  C   UNL     1      48.702   3.354  17.199  0.00  0.00    +0.000 A 
ATOM      5  N   UNL     1      49.425   4.301  17.853  0.00  0.00    +0.000 NA
ATOM      6  C   UNL     1      50.722   4.018  18.134  0.00  0.00    +0.000 A 
ENDROOT
BRANCH   1   7
ATOM      7  C   UNL     1      52.804   2.581  18.111  0.00  0.00    +0.000 C 
BRANCH   7  10
ATOM      8  C   UNL     1      54.278   0.770  17.347  0.00  0.00    +0.000 C 
ATOM      9  O   UNL     1      55.001   1.557  16.746  0.00  0.00    +0.000 OA
ATOM     10  N   UNL     1      53.173   1.185  18.057  0.00  0.00    +0.000 N 
ATOM     11  H   UNL     1      52.574   0.487  18.485  0.00  0.00    +0.000 HD
BRANCH   8  17
ATOM     12  C   UNL     1      54.625  -1.547  18.439  0.00  0.00    +0.000 A 
ATOM     13  C   UNL     1      54.966  -2.883  18.215  0.00  0.00    +0.000 A 
ATOM     14  N   UNL     1      55.223  -3.430  17.004  0.00  0.00    +0.000 NA
ATOM     15  C   UNL     1      55.148  -2.603  15.947  0.00  0.00    +0.000 A 
ATOM     16  C   UNL     1      54.846  -1.255  16.051  0.00  0.00    +0.000 A 
ATOM     17  C   UNL     1      54.586  -0.704  17.318  0.00  0.00    +0.000 A 
BRANCH  12  19
ATOM     18  C   UNL     1      55.517  -0.818  20.505  0.00  0.00    +0.000 C 
ATOM     19  O   UNL     1      54.366  -1.043  19.688  0.00  0.00    +0.000 OA
ENDBRANCH  12  19
ENDBRANCH   8  17
ENDBRANCH   7  10
ENDBRANCH   1   7
BRANCH   4  20
ATOM     20  C   UNL     1      47.256   3.669  16.885  0.00  0.00    +0.000 C 
BRANCH  20  21
ATOM     21  N   UNL     1      47.111   4.647  15.832  0.00  0.00    +0.000 N 
ATOM     22  C   UNL     1      47.094   4.321  14.503  0.00  0.00    +0.000 C 
ATOM     23  O   UNL     1      47.228   3.166  14.110  0.00  0.00    +0.000 OA
ATOM     24  H   UNL     1      47.247   5.613  16.112  0.00  0.00    +0.000 HD
BRANCH  22  25
ATOM     25  C   UNL     1      46.829   5.428  13.572  0.00  0.00    +0.000 A 
ATOM     26  C   UNL     1      45.694   5.399  12.768  0.00  0.00    +0.000 A 
ATOM     27  S   UNL     1      45.528   6.778  11.775  0.00  0.00    +0.000 S 
ATOM     28  C   UNL     1      46.987   7.438  12.354  0.00  0.00    +0.000 A 
ATOM     29  N   UNL     1      47.456   8.624  11.883  0.00  0.00    +0.000 NA
ATOM     30  C   UNL     1      48.591   8.986  12.382  0.00  0.00    +0.000 A 
ATOM     31  N   UNL     1      49.288   8.277  13.322  0.00  0.00    +0.000 N 
ATOM     32  C   UNL     1      48.824   7.112  13.874  0.00  0.00    +0.000 A 
ATOM     33  O   UNL     1      49.420   6.564  14.795  0.00  0.00    +0.000 OA
ATOM     34  C   UNL     1      47.575   6.633  13.310  0.00  0.00    +0.000 A 
ATOM     35  H   UNL     1      50.158   8.627  13.699  0.00  0.00    +0.000 HD
ENDBRANCH  22  25
ENDBRANCH  20  21
ENDBRANCH   4  20
TORSDOF 7
ENDMDL
MODEL 5
REMARK VINA RESULT:    -6.916      2.420      3.736
REMARK INTER + INTRA:         -10.871
REMARK INTER:                  -9.613
REMARK INTRA:                  -1.258
REMARK UNBOUND:                -1.125
REMARK  Name = 
REMARK  8 active torsions:
REMARK  status: ('A' for Active; 'I' for Inactive)
REMARK    1  A    between atoms: C_1  and  O_2
REMARK    2  A    between atoms: O_2  and  C_3
REMARK    3  A    between atoms: C_8  and  C_9
REMARK    4  A    between atoms: N_11  and  C_12
REMARK    5  A    between atoms: C_12  and  C_13
REMARK    6  A    between atoms: C_16  and  C_17
REMARK    7  A    between atoms: C_17  and  N_18
REMARK    8  A    between atoms: C_19  and  C_21
REMARK                            x       y       z     vdW  Elec       q    Type
REMARK                         _______ _______ _______ _____ _____    ______ ____
ROOT
ATOM      1  C   UNL     1      49.429   4.916  17.377  0.00  0.00    +0.000 A 
ATOM      2  C   UNL     1      50.113   6.051  16.939  0.00  0.00    +0.000 A 
ATOM      3  C   UNL     1      49.678   6.742  15.808  0.00  0.00    +0.000 A 
ATOM      4  C   UNL     1      48.575   6.261  15.108  0.00  0.00    +0.000 A 
ATOM      5  N   UNL     1      47.897   5.152  15.506  0.00  0.00    +0.000 NA
ATOM      6  C   UNL     1      48.333   4.514  16.621  0.00  0.00    +0.000 A 
ENDROOT
BRANCH   1   7
ATOM      7  C   UNL     1      49.843   4.191  18.624  0.00  0.00    +0.000 C 
BRANCH   7  10
ATOM      8  C   UNL     1      51.456   2.524  17.814  0.00  0.00    +0.000 C 
ATOM      9  O   UNL     1      50.590   1.937  17.174  0.00  0.00    +0.000 OA
ATOM     10  N   UNL     1      51.182   3.653  18.554  0.00  0.00    +0.000 N 
ATOM     11  H   UNL     1      51.922   4.064  19.114  0.00  0.00    +0.000 HD
BRANCH   8  17
ATOM     12  C   UNL     1      54.025   2.808  17.788  0.00  0.00    +0.000 A 
ATOM     13  C   UNL     1      55.253   2.144  17.748  0.00  0.00    +0.000 A 
ATOM     14  N   UNL     1      55.416   0.801  17.766  0.00  0.00    +0.000 NA
ATOM     15  C   UNL     1      54.293   0.065  17.815  0.00  0.00    +0.000 A 
ATOM     16  C   UNL     1      53.020   0.612  17.829  0.00  0.00    +0.000 A 
ATOM     17  C   UNL     1      52.872   2.010  17.807  0.00  0.00    +0.000 A 
BRANCH  12  19
ATOM     18  C   UNL     1      54.647   4.854  18.801  0.00  0.00    +0.000 C 
ATOM     19  O   UNL     1      53.916   4.175  17.777  0.00  0.00    +0.000 OA
ENDBRANCH  12  19
ENDBRANCH   8  17
ENDBRANCH   7  10
ENDBRANCH   1   7
BRANCH   4  20
ATOM     20  C   UNL     1      48.090   6.972  13.865  0.00  0.00    +0.000 C 
BRANCH  20  21
ATOM     21  N   UNL     1      47.266   6.135  13.024  0.00  0.00    +0.000 N 
ATOM     22  C   UNL     1      46.519   6.621  11.985  0.00  0.00    +0.000 C 
ATOM     23  O   UNL     1      46.479   7.816  11.710  0.00  0.00    +0.000 OA
ATOM     24  H   UNL     1      47.089   5.201  13.378  0.00  0.00    +0.000 HD
BRANCH  22  25
ATOM     25  C   UNL     1      45.826   5.615  11.166  0.00  0.00    +0.000 A 
ATOM     26  C   UNL     1      45.939   5.653   9.780  0.00  0.00    +0.000 A 
ATOM     27  S   UNL     1      45.098   4.393   8.994  0.00  0.00    +0.000 S 
ATOM     28  C   UNL     1      44.520   3.781  10.473  0.00  0.00    +0.000 A 
ATOM     29  N   UNL     1      43.698   2.699  10.513  0.00  0.00    +0.000 NA
ATOM     30  C   UNL     1      43.306   2.367  11.697  0.00  0.00    +0.000 A 
ATOM     31  N   UNL     1      43.677   3.010  12.847  0.00  0.00    +0.000 N 
ATOM     32  C   UNL     1      44.553   4.063  12.863  0.00  0.00    +0.000 A 
ATOM     33  O   UNL     1      44.952   4.542  13.920  0.00  0.00    +0.000 OA
ATOM     34  C   UNL     1      44.985   4.510  11.551  0.00  0.00    +0.000 A 
ATOM     35  H   UNL     1      43.362   2.685  13.751  0.00  0.00    +0.000 HD
ENDBRANCH  22  25
ENDBRANCH  20  21
ENDBRANCH   4  20
TORSDOF 7
ENDMDL
MODEL 6
REMARK VINA RESULT:    -6.904      3.761     10.259
REMARK INTER + INTRA:         -10.855
REMARK INTER:                  -9.720
REMARK INTRA:                  -1.135
REMARK UNBOUND:                -1.125
REMARK  Name = 
REMARK  8 active torsions:
REMARK  status: ('A' for Active; 'I' for Inactive)
REMARK    1  A    between atoms: C_1  and  O_2
REMARK    2  A    between atoms: O_2  and  C_3
REMARK    3  A    between atoms: C_8  and  C_9
REMARK    4  A    between atoms: N_11  and  C_12
REMARK    5  A    between atoms: C_12  and  C_13
REMARK    6  A    between atoms: C_16  and  C_17
REMARK    7  A    between atoms: C_17  and  N_18
REMARK    8  A    between atoms: C_19  and  C_21
REMARK                            x       y       z     vdW  Elec       q    Type
REMARK                         _______ _______ _______ _____ _____    ______ ____
ROOT
ATOM      1  C   UNL     1      48.090   7.675  13.340  0.00  0.00    +0.000 A 
ATOM      2  C   UNL     1      47.806   8.820  14.088  0.00  0.00    +0.000 A 
ATOM      3  C   UNL     1      48.271   8.938  15.398  0.00  0.00    +0.000 A 
ATOM      4  C   UNL     1      48.988   7.884  15.954  0.00  0.00    +0.000 A 
ATOM      5  N   UNL     1      49.269   6.753  15.255  0.00  0.00    +0.000 NA
ATOM      6  C   UNL     1      48.821   6.678  13.977  0.00  0.00    +0.000 A 
ENDROOT
BRANCH   1   7
ATOM      7  C   UNL     1      47.651   7.551  11.910  0.00  0.00    +0.000 C 
BRANCH   7  10
ATOM      8  C   UNL     1      45.543   6.368  11.475  0.00  0.00    +0.000 C 
ATOM      9  O   UNL     1      44.899   7.410  11.528  0.00  0.00    +0.000 OA
ATOM     10  N   UNL     1      46.909   6.340  11.643  0.00  0.00    +0.000 N 
ATOM     11  H   UNL     1      47.385   5.444  11.650  0.00  0.00    +0.000 HD
BRANCH   8  17
ATOM     12  C   UNL     1      44.906   4.317  10.035  0.00  0.00    +0.000 A 
ATOM     13  C   UNL     1      44.149   3.146   9.977  0.00  0.00    +0.000 A 
ATOM     14  N   UNL     1      43.387   2.657  10.984  0.00  0.00    +0.000 NA
ATOM     15  C   UNL     1      43.364   3.378  12.118  0.00  0.00    +0.000 A 
ATOM     16  C   UNL     1      44.052   4.569  12.280  0.00  0.00    +0.000 A 
ATOM     17  C   UNL     1      44.835   5.062  11.222  0.00  0.00    +0.000 A 
BRANCH  12  19
ATOM     18  C   UNL     1      45.769   3.867   7.879  0.00  0.00    +0.000 C 
ATOM     19  O   UNL     1      45.669   4.764   8.987  0.00  0.00    +0.000 OA
ENDBRANCH  12  19
ENDBRANCH   8  17
ENDBRANCH   7  10
ENDBRANCH   1   7
BRANCH   4  20
ATOM     20  C   UNL     1      49.488   7.969  17.379  0.00  0.00    +0.000 C 
BRANCH  20  21
ATOM     21  N   UNL     1      50.443   6.935  17.703  0.00  0.00    +0.000 N 
ATOM     22  C   UNL     1      50.162   5.890  18.542  0.00  0.00    +0.000 C 
ATOM     23  O   UNL     1      49.075   5.773  19.101  0.00  0.00    +0.000 OA
ATOM     24  H   UNL     1      51.407   7.138  17.458  0.00  0.00    +0.000 HD
BRANCH  22  25
ATOM     25  C   UNL     1      51.213   4.870  18.674  0.00  0.00    +0.000 A 
ATOM     26  C   UNL     1      52.361   5.151  19.408  0.00  0.00    +0.000 A 
ATOM     27  S   UNL     1      53.457   3.845  19.484  0.00  0.00    +0.000 S 
ATOM     28  C   UNL     1      52.457   2.878  18.504  0.00  0.00    +0.000 A 
ATOM     29  N   UNL     1      52.827   1.618  18.151  0.00  0.00    +0.000 NA
ATOM     30  C   UNL     1      51.992   1.012  17.375  0.00  0.00    +0.000 A 
ATOM     31  N   UNL     1      50.811   1.547  16.936  0.00  0.00    +0.000 N 
ATOM     32  C   UNL     1      50.366   2.786  17.317  0.00  0.00    +0.000 A 
ATOM     33  O   UNL     1      49.252   3.187  16.996  0.00  0.00    +0.000 OA
ATOM     34  C   UNL     1      51.292   3.531  18.150  0.00  0.00    +0.000 A 
ATOM     35  H   UNL     1      50.181   1.013  16.354  0.00  0.00    +0.000 HD
ENDBRANCH  22  25
ENDBRANCH  20  21
ENDBRANCH   4  20
TORSDOF 7
ENDMDL
MODEL 7
REMARK VINA RESULT:    -6.799      3.549     10.351
REMARK INTER + INTRA:         -10.706
REMARK INTER:                  -9.750
REMARK INTRA:                  -0.956
REMARK UNBOUND:                -1.125
REMARK  Name = 
REMARK  8 active torsions:
REMARK  status: ('A' for Active; 'I' for Inactive)
REMARK    1  A    between atoms: C_1  and  O_2
REMARK    2  A    between atoms: O_2  and  C_3
REMARK    3  A    between atoms: C_8  and  C_9
REMARK    4  A    between atoms: N_11  and  C_12
REMARK    5  A    between atoms: C_12  and  C_13
REMARK    6  A    between atoms: C_16  and  C_17
REMARK    7  A    between atoms: C_17  and  N_18
REMARK    8  A    between atoms: C_19  and  C_21
REMARK                            x       y       z     vdW  Elec       q    Type
REMARK                         _______ _______ _______ _____ _____    ______ ____
ROOT
ATOM      1  C   UNL     1      47.638   5.847  14.517  0.00  0.00    +0.000 A 
ATOM      2  C   UNL     1      46.997   4.623  14.721  0.00  0.00    +0.000 A 
ATOM      3  C   UNL     1      47.223   3.897  15.890  0.00  0.00    +0.000 A 
ATOM      4  C   UNL     1      48.121   4.395  16.828  0.00  0.00    +0.000 A 
ATOM      5  N   UNL     1      48.767   5.578  16.651  0.00  0.00    +0.000 NA
ATOM      6  C   UNL     1      48.510   6.270  15.513  0.00  0.00    +0.000 A 
ENDROOT
BRANCH   1   7
ATOM      7  C   UNL     1      47.365   6.673  13.294  0.00  0.00    +0.000 C 
BRANCH   7  10
ATOM      8  C   UNL     1      45.708   6.091  11.576  0.00  0.00    +0.000 C 
ATOM      9  O   UNL     1      44.927   6.945  11.981  0.00  0.00    +0.000 OA
ATOM     10  N   UNL     1      46.941   5.890  12.157  0.00  0.00    +0.000 N 
ATOM     11  H   UNL     1      47.523   5.130  11.822  0.00  0.00    +0.000 HD
BRANCH   8  17
ATOM     12  C   UNL     1      44.276   4.290  10.398  0.00  0.00    +0.000 A 
ATOM     13  C   UNL     1      44.100   3.547   9.229  0.00  0.00    +0.000 A 
ATOM     14  N   UNL     1      44.835   3.680   8.101  0.00  0.00    +0.000 NA
ATOM     15  C   UNL     1      45.814   4.600   8.132  0.00  0.00    +0.000 A 
ATOM     16  C   UNL     1      46.100   5.375   9.244  0.00  0.00    +0.000 A 
ATOM     17  C   UNL     1      45.327   5.219  10.408  0.00  0.00    +0.000 A 
BRANCH  12  19
ATOM     18  C   UNL     1      43.420   2.781  12.007  0.00  0.00    +0.000 C 
ATOM     19  O   UNL     1      43.497   4.121  11.514  0.00  0.00    +0.000 OA
ENDBRANCH  12  19
ENDBRANCH   8  17
ENDBRANCH   7  10
ENDBRANCH   1   7
BRANCH   4  20
ATOM     20  C   UNL     1      48.407   3.623  18.097  0.00  0.00    +0.000 C 
BRANCH  20  21
ATOM     21  N   UNL     1      49.797   3.252  18.227  0.00  0.00    +0.000 N 
ATOM     22  C   UNL     1      50.419   2.368  17.387  0.00  0.00    +0.000 C 
ATOM     23  O   UNL     1      49.825   1.807  16.471  0.00  0.00    +0.000 OA
ATOM     24  H   UNL     1      50.235   3.503  19.108  0.00  0.00    +0.000 HD
BRANCH  22  25
ATOM     25  C   UNL     1      51.863   2.188  17.598  0.00  0.00    +0.000 A 
ATOM     26  C   UNL     1      52.391   0.905  17.711  0.00  0.00    +0.000 A 
ATOM     27  S   UNL     1      54.085   0.883  17.919  0.00  0.00    +0.000 S 
ATOM     28  C   UNL     1      54.164   2.583  17.908  0.00  0.00    +0.000 A 
ATOM     29  N   UNL     1      55.347   3.232  18.072  0.00  0.00    +0.000 NA
ATOM     30  C   UNL     1      55.255   4.520  18.081  0.00  0.00    +0.000 A 
ATOM     31  N   UNL     1      54.088   5.216  17.922  0.00  0.00    +0.000 N 
ATOM     32  C   UNL     1      52.882   4.608  17.688  0.00  0.00    +0.000 A 
ATOM     33  O   UNL     1      51.878   5.265  17.437  0.00  0.00    +0.000 OA
ATOM     34  C   UNL     1      52.921   3.158  17.719  0.00  0.00    +0.000 A 
ATOM     35  H   UNL     1      54.082   6.227  17.906  0.00  0.00    +0.000 HD
ENDBRANCH  22  25
ENDBRANCH  20  21
ENDBRANCH   4  20
TORSDOF 7
ENDMDL
MODEL 8
REMARK VINA RESULT:    -6.703      6.761     10.453
REMARK INTER + INTRA:         -10.571
REMARK INTER:                  -9.341
REMARK INTRA:                  -1.230
REMARK UNBOUND:                -1.125
REMARK  Name = 
REMARK  8 active torsions:
REMARK  status: ('A' for Active; 'I' for Inactive)
REMARK    1  A    between atoms: C_1  and  O_2
REMARK    2  A    between atoms: O_2  and  C_3
REMARK    3  A    between atoms: C_8  and  C_9
REMARK    4  A    between atoms: N_11  and  C_12
REMARK    5  A    between atoms: C_12  and  C_13
REMARK    6  A    between atoms: C_16  and  C_17
REMARK    7  A    between atoms: C_17  and  N_18
REMARK    8  A    between atoms: C_19  and  C_21
REMARK                            x       y       z     vdW  Elec       q    Type
REMARK                         _______ _______ _______ _____ _____    ______ ____
ROOT
ATOM      1  C   UNL     1      48.949   7.015  13.922  0.00  0.00    +0.000 A 
ATOM      2  C   UNL     1      48.831   7.288  12.558  0.00  0.00    +0.000 A 
ATOM      3  C   UNL     1      49.813   8.029  11.901  0.00  0.00    +0.000 A 
ATOM      4  C   UNL     1      50.890   8.518  12.635  0.00  0.00    +0.000 A 
ATOM      5  N   UNL     1      51.025   8.277  13.965  0.00  0.00    +0.000 NA
ATOM      6  C   UNL     1      50.063   7.536  14.570  0.00  0.00    +0.000 A 
ENDROOT
BRANCH   1   7
ATOM      7  C   UNL     1      47.935   6.170  14.637  0.00  0.00    +0.000 C 
BRANCH   7  10
ATOM      8  C   UNL     1      46.560   4.594  13.349  0.00  0.00    +0.000 C 
ATOM      9  O   UNL     1      47.325   3.666  13.589  0.00  0.00    +0.000 OA
ATOM     10  N   UNL     1      46.775   5.866  13.832  0.00  0.00    +0.000 N 
ATOM     11  H   UNL     1      46.143   6.609  13.553  0.00  0.00    +0.000 HD
BRANCH   8  17
ATOM     12  C   UNL     1      44.853   5.234  11.516  0.00  0.00    +0.000 A 
ATOM     13  C   UNL     1      43.684   4.856  10.853  0.00  0.00    +0.000 A 
ATOM     14  N   UNL     1      43.010   3.701  11.056  0.00  0.00    +0.000 NA
ATOM     15  C   UNL     1      43.518   2.869  11.982  0.00  0.00    +0.000 A 
ATOM     16  C   UNL     1      44.655   3.150  12.721  0.00  0.00    +0.000 A 
ATOM     17  C   UNL     1      45.340   4.358  12.497  0.00  0.00    +0.000 A 
BRANCH  12  19
ATOM     18  C   UNL     1      44.727   7.596  11.483  0.00  0.00    +0.000 C 
ATOM     19  O   UNL     1      45.503   6.416  11.266  0.00  0.00    +0.000 OA
ENDBRANCH  12  19
ENDBRANCH   8  17
ENDBRANCH   7  10
ENDBRANCH   1   7
BRANCH   4  20
ATOM     20  C   UNL     1      51.962   9.343  11.959  0.00  0.00    +0.000 C 
BRANCH  20  21
ATOM     21  N   UNL     1      52.167   8.975  10.577  0.00  0.00    +0.000 N 
ATOM     22  C   UNL     1      53.362   8.513  10.094  0.00  0.00    +0.000 C 
ATOM     23  O   UNL     1      54.356   8.402  10.804  0.00  0.00    +0.000 OA
ATOM     24  H   UNL     1      51.449   9.288   9.931  0.00  0.00    +0.000 HD
BRANCH  22  25
ATOM     25  C   UNL     1      53.363   8.083   8.688  0.00  0.00    +0.000 A 
ATOM     26  C   UNL     1      53.163   9.018   7.678  0.00  0.00    +0.000 A 
ATOM     27  S   UNL     1      53.229   8.350   6.109  0.00  0.00    +0.000 S 
ATOM     28  C   UNL     1      53.484   6.785   6.726  0.00  0.00    +0.000 A 
ATOM     29  N   UNL     1      53.602   5.713   5.898  0.00  0.00    +0.000 NA
ATOM     30  C   UNL     1      53.754   4.583   6.502  0.00  0.00    +0.000 A 
ATOM     31  N   UNL     1      53.817   4.431   7.861  0.00  0.00    +0.000 N 
ATOM     32  C   UNL     1      53.768   5.487   8.733  0.00  0.00    +0.000 A 
ATOM     33  O   UNL     1      53.942   5.325   9.936  0.00  0.00    +0.000 OA
ATOM     34  C   UNL     1      53.547   6.777   8.107  0.00  0.00    +0.000 A 
ATOM     35  H   UNL     1      53.969   3.522   8.277  0.00  0.00    +0.000 HD
ENDBRANCH  22  25
ENDBRANCH  20  21
ENDBRANCH   4  20
TORSDOF 7
ENDMDL
MODEL 9
REMARK VINA RESULT:    -6.616      7.135      8.345
REMARK INTER + INTRA:         -10.448
REMARK INTER:                  -9.172
REMARK INTRA:                  -1.276
REMARK UNBOUND:                -1.125
REMARK  Name = 
REMARK  8 active torsions:
REMARK  status: ('A' for Active; 'I' for Inactive)
REMARK    1  A    between atoms: C_1  and  O_2
REMARK    2  A    between atoms: O_2  and  C_3
REMARK    3  A    between atoms: C_8  and  C_9
REMARK    4  A    between atoms: N_11  and  C_12
REMARK    5  A    between atoms: C_12  and  C_13
REMARK    6  A    between atoms: C_16  and  C_17
REMARK    7  A    between atoms: C_17  and  N_18
REMARK    8  A    between atoms: C_19  and  C_21
REMARK                            x       y       z     vdW  Elec       q    Type
REMARK                         _______ _______ _______ _____ _____    ______ ____
ROOT
ATOM      1  C   UNL     1      50.261   8.802  11.430  0.00  0.00    +0.000 A 
ATOM      2  C   UNL     1      49.879   7.491  11.718  0.00  0.00    +0.000 A 
ATOM      3  C   UNL     1      48.607   7.223  12.224  0.00  0.00    +0.000 A 
ATOM      4  C   UNL     1      47.742   8.285  12.466  0.00  0.00    +0.000 A 
ATOM      5  N   UNL     1      48.090   9.573  12.206  0.00  0.00    +0.000 NA
ATOM      6  C   UNL     1      49.327   9.798  11.696  0.00  0.00    +0.000 A 
ENDROOT
BRANCH   1   7
ATOM      7  C   UNL     1      51.602   9.108  10.831  0.00  0.00    +0.000 C 
BRANCH   7  10
ATOM      8  C   UNL     1      52.824   7.960   9.037  0.00  0.00    +0.000 C 
ATOM      9  O   UNL     1      52.794   8.955   8.322  0.00  0.00    +0.000 OA
ATOM     10  N   UNL     1      52.269   7.944  10.297  0.00  0.00    +0.000 N 
ATOM     11  H   UNL     1      52.269   7.076  10.822  0.00  0.00    +0.000 HD
BRANCH   8  17
ATOM     12  C   UNL     1      54.620   6.101   9.102  0.00  0.00    +0.000 A 
ATOM     13  C   UNL     1      55.106   4.952   8.475  0.00  0.00    +0.000 A 
ATOM     14  N   UNL     1      54.546   4.353   7.399  0.00  0.00    +0.000 NA
ATOM     15  C   UNL     1      53.441   4.933   6.902  0.00  0.00    +0.000 A 
ATOM     16  C   UNL     1      52.885   6.090   7.422  0.00  0.00    +0.000 A 
ATOM     17  C   UNL     1      53.483   6.699   8.539  0.00  0.00    +0.000 A 
BRANCH  12  19
ATOM     18  C   UNL     1      55.128   5.902  11.404  0.00  0.00    +0.000 C 
ATOM     19  O   UNL     1      55.222   6.664  10.198  0.00  0.00    +0.000 OA
ENDBRANCH  12  19
ENDBRANCH   8  17
ENDBRANCH   7  10
ENDBRANCH   1   7
BRANCH   4  20
ATOM     20  C   UNL     1      46.363   8.033  13.034  0.00  0.00    +0.000 C 
BRANCH  20  21
ATOM     21  N   UNL     1      45.842   6.732  12.686  0.00  0.00    +0.000 N 
ATOM     22  C   UNL     1      44.797   6.550  11.820  0.00  0.00    +0.000 C 
ATOM     23  O   UNL     1      44.211   7.492  11.294  0.00  0.00    +0.000 OA
ATOM     24  H   UNL     1      46.137   5.968  13.286  0.00  0.00    +0.000 HD
BRANCH  22  25
ATOM     25  C   UNL     1      44.466   5.154  11.495  0.00  0.00    +0.000 A 
ATOM     26  C   UNL     1      43.709   4.398  12.383  0.00  0.00    +0.000 A 
ATOM     27  S   UNL     1      43.393   2.814  11.832  0.00  0.00    +0.000 S 
ATOM     28  C   UNL     1      44.293   3.071  10.410  0.00  0.00    +0.000 A 
ATOM     29  N   UNL     1      44.452   2.082   9.491  0.00  0.00    +0.000 NA
ATOM     30  C   UNL     1      45.189   2.403   8.480  0.00  0.00    +0.000 A 
ATOM     31  N   UNL     1      45.766   3.630   8.299  0.00  0.00    +0.000 N 
ATOM     32  C   UNL     1      45.581   4.677   9.164  0.00  0.00    +0.000 A 
ATOM     33  O   UNL     1      46.019   5.795   8.911  0.00  0.00    +0.000 OA
ATOM     34  C   UNL     1      44.801   4.355  10.345  0.00  0.00    +0.000 A 
ATOM     35  H   UNL     1      46.308   3.834   7.470  0.00  0.00    +0.000 HD
ENDBRANCH  22  25
ENDBRANCH  20  21
ENDBRANCH   4  20
TORSDOF 7
ENDMDL
