MODEL 1
REMARK VINA RESULT:    -7.667      0.000      0.000
REMARK INTER + INTRA:         -12.468
REMARK INTER:                 -11.253
REMARK INTRA:                  -1.216
REMARK UNBOUND:                -1.216
REMARK  Name = 
REMARK  10 active torsions:
REMARK  status: ('A' for Active; 'I' for Inactive)
REMARK    1  A    between atoms: C_1  and  C_2
REMARK    2  A    between atoms: C_2  and  N_3
REMARK    3  A    between atoms: C_2  and  C_20
REMARK    4  A    between atoms: N_3  and  C_4
REMARK    5  A    between atoms: C_4  and  C_5
REMARK    6  A    between atoms: C_9  and  C_10
REMARK    7  A    between atoms: C_10  and  N_11
REMARK    8  A    between atoms: N_11  and  C_12
REMARK    9  A    between atoms: C_12  and  C_13
REMARK   10  A    between atoms: C_13  and  C_14
REMARK                            x       y       z     vdW  Elec       q    Type
REMARK                         _______ _______ _______ _____ _____    ______ ____
ROOT
ATOM      1  C   UNL     1      45.047   5.727  11.867  0.00  0.00    +0.000 A 
ATOM      2  C   UNL     1      44.022   5.787  12.806  0.00  0.00    +0.000 A 
ATOM      3  C   UNL     1      43.061   4.781  12.813  0.00  0.00    +0.000 A 
ATOM      4  C   UNL     1      43.142   3.750  11.880  0.00  0.00    +0.000 A 
ATOM      5  C   UNL     1      44.193   3.746  10.967  0.00  0.00    +0.000 A 
ATOM      6  N   UNL     1      45.139   4.719  10.964  0.00  0.00    +0.000 NA
ENDROOT
BRANCH   1   7
ATOM      7  C   UNL     1      46.165   6.756  11.884  0.00  0.00    +0.000 C 
BRANCH   7   8
ATOM      8  N   UNL     1      46.740   6.978  13.214  0.00  0.00    +0.000 NA
ATOM      9  H   UNL     1      46.164   6.511  13.912  0.00  0.00    +0.000 HD
BRANCH   8  11
ATOM     10  C   UNL     1      49.123   7.463  12.636  0.00  0.00    +0.000 C 
ATOM     11  C   UNL     1      48.128   6.519  13.332  0.00  0.00    +0.000 C 
BRANCH  11  12
ATOM     12  C   UNL     1      48.448   6.429  14.813  0.00  0.00    +0.000 A 
ATOM     13  C   UNL     1      49.239   7.348  15.487  0.00  0.00    +0.000 A 
ATOM     14  S   UNL     1      49.510   6.948  17.122  0.00  0.00    +0.000 S 
ATOM     15  C   UNL     1      48.555   5.547  16.998  0.00  0.00    +0.000 A 
ATOM     16  N   UNL     1      48.386   4.718  18.065  0.00  0.00    +0.000 NA
ATOM     17  C   UNL     1      47.634   3.695  17.829  0.00  0.00    +0.000 A 
ATOM     18  N   UNL     1      47.027   3.432  16.625  0.00  0.00    +0.000 N 
ATOM     19  C   UNL     1      47.163   4.242  15.521  0.00  0.00    +0.000 A 
ATOM     20  O   UNL     1      46.580   3.988  14.471  0.00  0.00    +0.000 OA
ATOM     21  C   UNL     1      48.022   5.394  15.730  0.00  0.00    +0.000 A 
ATOM     22  H   UNL     1      46.433   2.621  16.517  0.00  0.00    +0.000 HD
ENDBRANCH  11  12
ENDBRANCH   8  11
ENDBRANCH   7   8
ENDBRANCH   1   7
BRANCH   5  23
ATOM     23  C   UNL     1      44.273   2.652   9.908  0.00  0.00    +0.000 C 
BRANCH  23  24
ATOM     24  N   UNL     1      45.649   2.335   9.497  0.00  0.00    +0.000 NA
ATOM     25  H   UNL     1      46.036   1.683  10.174  0.00  0.00    +0.000 HD
BRANCH  24  26
ATOM     26  C   UNL     1      45.712   1.819   8.131  0.00  0.00    +0.000 C 
BRANCH  26  27
ATOM     27  C   UNL     1      46.672   2.600   7.198  0.00  0.00    +0.000 C 
ATOM     28  C   UNL     1      46.825   4.059   7.652  0.00  0.00    +0.000 C 
ATOM     29  C   UNL     1      46.297   2.481   5.734  0.00  0.00    +0.000 C 
ATOM     30  C   UNL     1      47.626   2.482   5.016  0.00  0.00    +0.000 C 
ATOM     31  N   UNL     1      48.657   2.166   6.000  0.00  0.00    +0.000 NA
ATOM     32  O   UNL     1      47.967   1.978   7.279  0.00  0.00    +0.000 OA
ATOM     33  H   UNL     1      49.224   2.993   6.198  0.00  0.00    +0.000 HD
ENDBRANCH  26  27
ENDBRANCH  24  26
ENDBRANCH  23  24
ENDBRANCH   5  23
TORSDOF 8
ENDMDL
MODEL 2
REMARK VINA RESULT:    -7.164      2.243      3.134
REMARK INTER + INTRA:         -11.730
REMARK INTER:                 -11.196
REMARK INTRA:                  -0.534
REMARK UNBOUND:                -1.216
REMARK  Name = 
REMARK  10 active torsions:
REMARK  status: ('A' for Active; 'I' for Inactive)
REMARK    1  A    between atoms: C_1  and  C_2
REMARK    2  A    between atoms: C_2  and  N_3
REMARK    3  A    between atoms: C_2  and  C_20
REMARK    4  A    between atoms: N_3  and  C_4
REMARK    5  A    between atoms: C_4  and  C_5
REMARK    6  A    between atoms: C_9  and  C_10
REMARK    7  A    between atoms: C_10  and  N_11
REMARK    8  A    between atoms: N_11  and  C_12
REMARK    9  A    between atoms: C_12  and  C_13
REMARK   10  A    between atoms: C_13  and  C_14
REMARK                            x       y       z     vdW  Elec       q    Type
REMARK                         _______ _______ _______ _____ _____    ______ ____
ROOT
ATOM      1  C   UNL     1      46.488   4.323  13.448  0.00  0.00    +0.000 A 
ATOM      2  C   UNL     1      46.727   5.668  13.188  0.00  0.00    +0.000 A 
ATOM      3  C   UNL     1      46.131   6.250  12.073  0.00  0.00    +0.000 A 
ATOM      4  C   UNL     1      45.324   5.476  11.245  0.00  0.00    +0.000 A 
ATOM      5  C   UNL     1      45.122   4.135  11.560  0.00  0.00    +0.000 A 
ATOM      6  N   UNL     1      45.692   3.565  12.652  0.00  0.00    +0.000 NA
ENDROOT
BRANCH   1   7
ATOM      7  C   UNL     1      47.046   3.672  14.702  0.00  0.00    +0.000 C 
BRANCH   7   8
ATOM      8  N   UNL     1      48.051   4.488  15.391  0.00  0.00    +0.000 NA
ATOM      9  H   UNL     1      48.086   5.410  14.962  0.00  0.00    +0.000 HD
BRANCH   8  11
ATOM     10  C   UNL     1      46.883   3.516  17.377  0.00  0.00    +0.000 C 
ATOM     11  C   UNL     1      47.804   4.621  16.831  0.00  0.00    +0.000 C 
BRANCH  11  12
ATOM     12  C   UNL     1      49.152   4.564  17.525  0.00  0.00    +0.000 A 
ATOM     13  C   UNL     1      49.663   5.595  18.300  0.00  0.00    +0.000 A 
ATOM     14  S   UNL     1      51.239   5.299  18.880  0.00  0.00    +0.000 S 
ATOM     15  C   UNL     1      51.285   3.768  18.142  0.00  0.00    +0.000 A 
ATOM     16  N   UNL     1      52.390   2.978  18.236  0.00  0.00    +0.000 NA
ATOM     17  C   UNL     1      52.285   1.843  17.631  0.00  0.00    +0.000 A 
ATOM     18  N   UNL     1      51.170   1.421  16.950  0.00  0.00    +0.000 N 
ATOM     19  C   UNL     1      50.027   2.180  16.832  0.00  0.00    +0.000 A 
ATOM     20  O   UNL     1      49.040   1.754  16.239  0.00  0.00    +0.000 OA
ATOM     21  C   UNL     1      50.108   3.478  17.475  0.00  0.00    +0.000 A 
ATOM     22  H   UNL     1      51.149   0.508  16.516  0.00  0.00    +0.000 HD
ENDBRANCH  11  12
ENDBRANCH   8  11
ENDBRANCH   7   8
ENDBRANCH   1   7
BRANCH   5  23
ATOM     23  C   UNL     1      44.280   3.258  10.640  0.00  0.00    +0.000 C 
BRANCH  23  24
ATOM     24  N   UNL     1      45.082   2.396   9.758  0.00  0.00    +0.000 NA
ATOM     25  H   UNL     1      44.862   1.428   9.981  0.00  0.00    +0.000 HD
BRANCH  24  26
ATOM     26  C   UNL     1      44.869   2.702   8.345  0.00  0.00    +0.000 C 
BRANCH  26  27
ATOM     27  C   UNL     1      46.172   2.960   7.545  0.00  0.00    +0.000 C 
ATOM     28  C   UNL     1      46.761   4.340   7.871  0.00  0.00    +0.000 C 
ATOM     29  C   UNL     1      46.004   2.734   6.056  0.00  0.00    +0.000 C 
ATOM     30  C   UNL     1      47.339   2.180   5.618  0.00  0.00    +0.000 C 
ATOM     31  N   UNL     1      48.031   1.707   6.813  0.00  0.00    +0.000 NA
ATOM     32  O   UNL     1      47.136   1.967   7.943  0.00  0.00    +0.000 OA
ATOM     33  H   UNL     1      48.818   2.321   7.034  0.00  0.00    +0.000 HD
ENDBRANCH  26  27
ENDBRANCH  24  26
ENDBRANCH  23  24
ENDBRANCH   5  23
TORSDOF 8
ENDMDL
MODEL 3
REMARK VINA RESULT:    -7.129      3.537      7.655
REMARK INTER + INTRA:         -11.679
REMARK INTER:                 -10.643
REMARK INTRA:                  -1.036
REMARK UNBOUND:                -1.216
REMARK  Name = 
REMARK  10 active torsions:
REMARK  status: ('A' for Active; 'I' for Inactive)
REMARK    1  A    between atoms: C_1  and  C_2
REMARK    2  A    between atoms: C_2  and  N_3
REMARK    3  A    between atoms: C_2  and  C_20
REMARK    4  A    between atoms: N_3  and  C_4
REMARK    5  A    between atoms: C_4  and  C_5
REMARK    6  A    between atoms: C_9  and  C_10
REMARK    7  A    between atoms: C_10  and  N_11
REMARK    8  A    between atoms: N_11  and  C_12
REMARK    9  A    between atoms: C_12  and  C_13
REMARK   10  A    between atoms: C_13  and  C_14
REMARK                            x       y       z     vdW  Elec       q    Type
REMARK                         _______ _______ _______ _____ _____    ______ ____
ROOT
ATOM      1  C   UNL     1      48.411   8.859  13.358  0.00  0.00    +0.000 A 
ATOM      2  C   UNL     1      48.652  10.185  13.701  0.00  0.00    +0.000 A 
ATOM      3  C   UNL     1      49.118  10.472  14.979  0.00  0.00    +0.000 A 
ATOM      4  C   UNL     1      49.322   9.434  15.884  0.00  0.00    +0.000 A 
ATOM      5  C   UNL     1      49.064   8.126  15.480  0.00  0.00    +0.000 A 
ATOM      6  N   UNL     1      48.620   7.839  14.230  0.00  0.00    +0.000 NA
ENDROOT
BRANCH   1   7
ATOM      7  C   UNL     1      47.988   8.494  11.945  0.00  0.00    +0.000 C 
BRANCH   7   8
ATOM      8  N   UNL     1      47.555   7.100  11.802  0.00  0.00    +0.000 NA
ATOM      9  H   UNL     1      48.121   6.509  12.407  0.00  0.00    +0.000 HD
BRANCH   8  11
ATOM     10  C   UNL     1      45.297   8.170  11.882  0.00  0.00    +0.000 C 
ATOM     11  C   UNL     1      46.134   6.898  12.102  0.00  0.00    +0.000 C 
BRANCH  11  12
ATOM     12  C   UNL     1      45.636   5.786  11.198  0.00  0.00    +0.000 A 
ATOM     13  C   UNL     1      45.849   5.756   9.827  0.00  0.00    +0.000 A 
ATOM     14  S   UNL     1      45.096   4.440   9.047  0.00  0.00    +0.000 S 
ATOM     15  C   UNL     1      44.484   3.843  10.517  0.00  0.00    +0.000 A 
ATOM     16  N   UNL     1      43.714   2.721  10.551  0.00  0.00    +0.000 NA
ATOM     17  C   UNL     1      43.321   2.383  11.733  0.00  0.00    +0.000 A 
ATOM     18  N   UNL     1      43.638   3.059  12.886  0.00  0.00    +0.000 N 
ATOM     19  C   UNL     1      44.417   4.194  12.903  0.00  0.00    +0.000 A 
ATOM     20  O   UNL     1      44.702   4.753  13.958  0.00  0.00    +0.000 OA
ATOM     21  C   UNL     1      44.862   4.629  11.592  0.00  0.00    +0.000 A 
ATOM     22  H   UNL     1      43.312   2.725  13.783  0.00  0.00    +0.000 HD
ENDBRANCH  11  12
ENDBRANCH   8  11
ENDBRANCH   7   8
ENDBRANCH   1   7
BRANCH   5  23
ATOM     23  C   UNL     1      49.235   6.979  16.470  0.00  0.00    +0.000 C 
BRANCH  23  24
ATOM     24  N   UNL     1      49.045   5.652  15.865  0.00  0.00    +0.000 NA
ATOM     25  H   UNL     1      49.938   5.164  15.893  0.00  0.00    +0.000 HD
BRANCH  24  26
ATOM     26  C   UNL     1      47.980   4.895  16.520  0.00  0.00    +0.000 C 
BRANCH  26  27
ATOM     27  C   UNL     1      48.377   3.451  16.920  0.00  0.00    +0.000 C 
ATOM     28  C   UNL     1      47.263   2.771  17.728  0.00  0.00    +0.000 C 
ATOM     29  C   UNL     1      49.725   3.380  17.608  0.00  0.00    +0.000 C 
ATOM     30  C   UNL     1      50.302   2.063  17.147  0.00  0.00    +0.000 C 
ATOM     31  N   UNL     1      49.560   1.651  15.959  0.00  0.00    +0.000 NA
ATOM     32  O   UNL     1      48.563   2.694  15.709  0.00  0.00    +0.000 OA
ATOM     33  H   UNL     1      48.963   0.849  16.172  0.00  0.00    +0.000 HD
ENDBRANCH  26  27
ENDBRANCH  24  26
ENDBRANCH  23  24
ENDBRANCH   5  23
TORSDOF 8
ENDMDL
MODEL 4
REMARK VINA RESULT:    -7.066      2.771      8.250
REMARK INTER + INTRA:         -11.586
REMARK INTER:                 -11.003
REMARK INTRA:                  -0.583
REMARK UNBOUND:                -1.216
REMARK  Name = 
REMARK  10 active torsions:
REMARK  status: ('A' for Active; 'I' for Inactive)
REMARK    1  A    between atoms: C_1  and  C_2
REMARK    2  A    between atoms: C_2  and  N_3
REMARK    3  A    between atoms: C_2  and  C_20
REMARK    4  A    between atoms: N_3  and  C_4
REMARK    5  A    between atoms: C_4  and  C_5
REMARK    6  A    between atoms: C_9  and  C_10
REMARK    7  A    between atoms: C_10  and  N_11
REMARK    8  A    between atoms: N_11  and  C_12
REMARK    9  A    between atoms: C_12  and  C_13
REMARK   10  A    between atoms: C_13  and  C_14
REMARK                            x       y       z     vdW  Elec       q    Type
REMARK                         _______ _______ _______ _____ _____    ______ ____
ROOT
ATOM      1  C   UNL     1      48.563   6.790  13.143  0.00  0.00    +0.000 A 
ATOM      2  C   UNL     1      49.155   7.669  12.242  0.00  0.00    +0.000 A 
ATOM      3  C   UNL     1      50.273   8.391  12.649  0.00  0.00    +0.000 A 
ATOM      4  C   UNL     1      50.763   8.225  13.941  0.00  0.00    +0.000 A 
ATOM      5  C   UNL     1      50.126   7.329  14.795  0.00  0.00    +0.000 A 
ATOM      6  N   UNL     1      49.042   6.614  14.400  0.00  0.00    +0.000 NA
ENDROOT
BRANCH   1   7
ATOM      7  C   UNL     1      47.397   5.918  12.710  0.00  0.00    +0.000 C 
BRANCH   7   8
ATOM      8  N   UNL     1      46.586   6.506  11.639  0.00  0.00    +0.000 NA
ATOM      9  H   UNL     1      46.749   5.993  10.775  0.00  0.00    +0.000 HD
BRANCH   8  11
ATOM     10  C   UNL     1      44.394   7.594  11.129  0.00  0.00    +0.000 C 
ATOM     11  C   UNL     1      45.151   6.527  11.939  0.00  0.00    +0.000 C 
BRANCH  11  12
ATOM     12  C   UNL     1      44.605   5.148  11.619  0.00  0.00    +0.000 A 
ATOM     13  C   UNL     1      43.813   4.412  12.490  0.00  0.00    +0.000 A 
ATOM     14  S   UNL     1      43.422   2.858  11.911  0.00  0.00    +0.000 S 
ATOM     15  C   UNL     1      44.270   3.120  10.460  0.00  0.00    +0.000 A 
ATOM     16  N   UNL     1      44.348   2.150   9.509  0.00  0.00    +0.000 NA
ATOM     17  C   UNL     1      45.020   2.488   8.460  0.00  0.00    +0.000 A 
ATOM     18  N   UNL     1      45.612   3.713   8.272  0.00  0.00    +0.000 N 
ATOM     19  C   UNL     1      45.556   4.726   9.201  0.00  0.00    +0.000 A 
ATOM     20  O   UNL     1      46.074   5.818   8.982  0.00  0.00    +0.000 OA
ATOM     21  C   UNL     1      44.832   4.384  10.411  0.00  0.00    +0.000 A 
ATOM     22  H   UNL     1      46.107   3.916   7.414  0.00  0.00    +0.000 HD
ENDBRANCH  11  12
ENDBRANCH   8  11
ENDBRANCH   7   8
ENDBRANCH   1   7
BRANCH   5  23
ATOM     23  C   UNL     1      50.617   7.168  16.229  0.00  0.00    +0.000 C 
BRANCH  23  24
ATOM     24  N   UNL     1      50.730   5.765  16.655  0.00  0.00    +0.000 NA
ATOM     25  H   UNL     1      51.523   5.692  17.288  0.00  0.00    +0.000 HD
BRANCH  24  26
ATOM     26  C   UNL     1      49.493   5.270  17.257  0.00  0.00    +0.000 C 
BRANCH  26  27
ATOM     27  C   UNL     1      49.469   3.739  17.497  0.00  0.00    +0.000 C 
ATOM     28  C   UNL     1      48.528   3.372  18.653  0.00  0.00    +0.000 C 
ATOM     29  C   UNL     1      50.855   3.147  17.661  0.00  0.00    +0.000 C 
ATOM     30  C   UNL     1      50.744   1.779  17.032  0.00  0.00    +0.000 C 
ATOM     31  N   UNL     1      49.552   1.779  16.187  0.00  0.00    +0.000 NA
ATOM     32  O   UNL     1      48.961   3.114  16.304  0.00  0.00    +0.000 OA
ATOM     33  H   UNL     1      48.821   1.199  16.604  0.00  0.00    +0.000 HD
ENDBRANCH  26  27
ENDBRANCH  24  26
ENDBRANCH  23  24
ENDBRANCH   5  23
TORSDOF 8
ENDMDL
MODEL 5
REMARK VINA RESULT:    -6.920      2.719      4.889
REMARK INTER + INTRA:         -11.373
REMARK INTER:                 -10.726
REMARK INTRA:                  -0.646
REMARK UNBOUND:                -1.216
REMARK  Name = 
REMARK  10 active torsions:
REMARK  status: ('A' for Active; 'I' for Inactive)
REMARK    1  A    between atoms: C_1  and  C_2
REMARK    2  A    between atoms: C_2  and  N_3
REMARK    3  A    between atoms: C_2  and  C_20
REMARK    4  A    between atoms: N_3  and  C_4
REMARK    5  A    between atoms: C_4  and  C_5
REMARK    6  A    between atoms: C_9  and  C_10
REMARK    7  A    between atoms: C_10  and  N_11
REMARK    8  A    between atoms: N_11  and  C_12
REMARK    9  A    between atoms: C_12  and  C_13
REMARK   10  A    between atoms: C_13  and  C_14
REMARK                            x       y       z     vdW  Elec       q    Type
REMARK                         _______ _______ _______ _____ _____    ______ ____
ROOT
ATOM      1  C   UNL     1      48.231   6.599  14.050  0.00  0.00    +0.000 A 
ATOM      2  C   UNL     1      49.143   7.067  13.109  0.00  0.00    +0.000 A 
ATOM      3  C   UNL     1      48.661   7.576  11.907  0.00  0.00    +0.000 A 
ATOM      4  C   UNL     1      47.290   7.597  11.672  0.00  0.00    +0.000 A 
ATOM      5  C   UNL     1      46.428   7.116  12.654  0.00  0.00    +0.000 A 
ATOM      6  N   UNL     1      46.891   6.628  13.833  0.00  0.00    +0.000 NA
ENDROOT
BRANCH   1   7
ATOM      7  C   UNL     1      48.708   6.118  15.410  0.00  0.00    +0.000 C 
BRANCH   7   8
ATOM      8  N   UNL     1      48.267   4.760  15.742  0.00  0.00    +0.000 NA
ATOM      9  H   UNL     1      48.973   4.093  15.435  0.00  0.00    +0.000 HD
BRANCH   8  11
ATOM     10  C   UNL     1      47.084   3.361  17.442  0.00  0.00    +0.000 C 
ATOM     11  C   UNL     1      47.997   4.569  17.171  0.00  0.00    +0.000 C 
BRANCH  11  12
ATOM     12  C   UNL     1      49.334   4.374  17.860  0.00  0.00    +0.000 A 
ATOM     13  C   UNL     1      49.861   5.264  18.785  0.00  0.00    +0.000 A 
ATOM     14  S   UNL     1      51.421   4.845  19.327  0.00  0.00    +0.000 S 
ATOM     15  C   UNL     1      51.440   3.440  18.368  0.00  0.00    +0.000 A 
ATOM     16  N   UNL     1      52.525   2.618  18.352  0.00  0.00    +0.000 NA
ATOM     17  C   UNL     1      52.400   1.589  17.582  0.00  0.00    +0.000 A 
ATOM     18  N   UNL     1      51.283   1.302  16.836  0.00  0.00    +0.000 N 
ATOM     19  C   UNL     1      50.161   2.099  16.824  0.00  0.00    +0.000 A 
ATOM     20  O   UNL     1      49.171   1.792  16.166  0.00  0.00    +0.000 OA
ATOM     21  C   UNL     1      50.264   3.284  17.656  0.00  0.00    +0.000 A 
ATOM     22  H   UNL     1      51.246   0.465  16.270  0.00  0.00    +0.000 HD
ENDBRANCH  11  12
ENDBRANCH   8  11
ENDBRANCH   7   8
ENDBRANCH   1   7
BRANCH   5  23
ATOM     23  C   UNL     1      44.926   7.085  12.397  0.00  0.00    +0.000 C 
BRANCH  23  24
ATOM     24  N   UNL     1      44.233   6.000  13.107  0.00  0.00    +0.000 NA
ATOM     25  H   UNL     1      43.645   6.419  13.824  0.00  0.00    +0.000 HD
BRANCH  24  26
ATOM     26  C   UNL     1      43.473   5.143  12.198  0.00  0.00    +0.000 C 
BRANCH  26  27
ATOM     27  C   UNL     1      44.284   3.960  11.609  0.00  0.00    +0.000 C 
ATOM     28  C   UNL     1      45.398   3.518  12.569  0.00  0.00    +0.000 C 
ATOM     29  C   UNL     1      44.794   4.235  10.209  0.00  0.00    +0.000 C 
ATOM     30  C   UNL     1      44.737   2.889   9.529  0.00  0.00    +0.000 C 
ATOM     31  N   UNL     1      43.850   2.036  10.316  0.00  0.00    +0.000 NA
ATOM     32  O   UNL     1      43.384   2.850  11.442  0.00  0.00    +0.000 OA
ATOM     33  H   UNL     1      44.388   1.314  10.799  0.00  0.00    +0.000 HD
ENDBRANCH  26  27
ENDBRANCH  24  26
ENDBRANCH  23  24
ENDBRANCH   5  23
TORSDOF 8
ENDMDL
MODEL 6
REMARK VINA RESULT:    -6.762      1.593      2.079
REMARK INTER + INTRA:         -11.140
REMARK INTER:                 -10.234
REMARK INTRA:                  -0.906
REMARK UNBOUND:                -1.216
REMARK  Name = 
REMARK  10 active torsions:
REMARK  status: ('A' for Active; 'I' for Inactive)
REMARK    1  A    between atoms: C_1  and  C_2
REMARK    2  A    between atoms: C_2  and  N_3
REMARK    3  A    between atoms: C_2  and  C_20
REMARK    4  A    between atoms: N_3  and  C_4
REMARK    5  A    between atoms: C_4  and  C_5
REMARK    6  A    between atoms: C_9  and  C_10
REMARK    7  A    between atoms: C_10  and  N_11
REMARK    8  A    between atoms: N_11  and  C_12
REMARK    9  A    between atoms: C_12  and  C_13
REMARK   10  A    between atoms: C_13  and  C_14
REMARK                            x       y       z     vdW  Elec       q    Type
REMARK                         _______ _______ _______ _____ _____    ______ ____
ROOT
ATOM      1  C   UNL     1      44.916   5.754  11.745  0.00  0.00    +0.000 A 
ATOM      2  C   UNL     1      43.996   5.678  12.786  0.00  0.00    +0.000 A 
ATOM      3  C   UNL     1      43.156   4.571  12.857  0.00  0.00    +0.000 A 
ATOM      4  C   UNL     1      43.247   3.578  11.887  0.00  0.00    +0.000 A 
ATOM      5  C   UNL     1      44.190   3.710  10.871  0.00  0.00    +0.000 A 
ATOM      6  N   UNL     1      45.020   4.782  10.803  0.00  0.00    +0.000 NA
ENDROOT
BRANCH   1   7
ATOM      7  C   UNL     1      45.911   6.899  11.681  0.00  0.00    +0.000 C 
BRANCH   7   8
ATOM      8  N   UNL     1      47.275   6.516  12.061  0.00  0.00    +0.000 NA
ATOM      9  H   UNL     1      47.889   6.620  11.256  0.00  0.00    +0.000 HD
BRANCH   8  11
ATOM     10  C   UNL     1      46.906   8.481  13.560  0.00  0.00    +0.000 C 
ATOM     11  C   UNL     1      47.804   7.289  13.189  0.00  0.00    +0.000 C 
BRANCH  11  12
ATOM     12  C   UNL     1      47.923   6.341  14.368  0.00  0.00    +0.000 A 
ATOM     13  C   UNL     1      47.206   5.158  14.479  0.00  0.00    +0.000 A 
ATOM     14  S   UNL     1      47.464   4.339  15.952  0.00  0.00    +0.000 S 
ATOM     15  C   UNL     1      48.566   5.519  16.483  0.00  0.00    +0.000 A 
ATOM     16  N   UNL     1      49.156   5.427  17.707  0.00  0.00    +0.000 NA
ATOM     17  C   UNL     1      49.972   6.389  17.977  0.00  0.00    +0.000 A 
ATOM     18  N   UNL     1      50.260   7.431  17.130  0.00  0.00    +0.000 N 
ATOM     19  C   UNL     1      49.695   7.565  15.882  0.00  0.00    +0.000 A 
ATOM     20  O   UNL     1      50.001   8.495  15.142  0.00  0.00    +0.000 OA
ATOM     21  C   UNL     1      48.749   6.518  15.543  0.00  0.00    +0.000 A 
ATOM     22  H   UNL     1      50.927   8.142  17.399  0.00  0.00    +0.000 HD
ENDBRANCH  11  12
ENDBRANCH   8  11
ENDBRANCH   7   8
ENDBRANCH   1   7
BRANCH   5  23
ATOM     23  C   UNL     1      44.274   2.657   9.772  0.00  0.00    +0.000 C 
BRANCH  23  24
ATOM     24  N   UNL     1      45.650   2.227   9.479  0.00  0.00    +0.000 NA
ATOM     25  H   UNL     1      45.931   1.564  10.197  0.00  0.00    +0.000 HD
BRANCH  24  26
ATOM     26  C   UNL     1      45.779   1.673   8.132  0.00  0.00    +0.000 C 
BRANCH  26  27
ATOM     27  C   UNL     1      46.702   2.490   7.192  0.00  0.00    +0.000 C 
ATOM     28  C   UNL     1      46.801   3.954   7.645  0.00  0.00    +0.000 C 
ATOM     29  C   UNL     1      46.323   2.355   5.731  0.00  0.00    +0.000 C 
ATOM     30  C   UNL     1      47.645   2.409   5.004  0.00  0.00    +0.000 C 
ATOM     31  N   UNL     1      48.695   2.134   5.982  0.00  0.00    +0.000 NA
ATOM     32  O   UNL     1      48.021   1.920   7.265  0.00  0.00    +0.000 OA
ATOM     33  H   UNL     1      49.231   2.983   6.176  0.00  0.00    +0.000 HD
ENDBRANCH  26  27
ENDBRANCH  24  26
ENDBRANCH  23  24
ENDBRANCH   5  23
TORSDOF 8
ENDMDL
MODEL 7
REMARK VINA RESULT:    -6.733      2.678      4.844
REMARK INTER + INTRA:         -11.097
REMARK INTER:                 -10.034
REMARK INTRA:                  -1.063
REMARK UNBOUND:                -1.216
REMARK  Name = 
REMARK  10 active torsions:
REMARK  status: ('A' for Active; 'I' for Inactive)
REMARK    1  A    between atoms: C_1  and  C_2
REMARK    2  A    between atoms: C_2  and  N_3
REMARK    3  A    between atoms: C_2  and  C_20
REMARK    4  A    between atoms: N_3  and  C_4
REMARK    5  A    between atoms: C_4  and  C_5
REMARK    6  A    between atoms: C_9  and  C_10
REMARK    7  A    between atoms: C_10  and  N_11
REMARK    8  A    between atoms: N_11  and  C_12
REMARK    9  A    between atoms: C_12  and  C_13
REMARK   10  A    between atoms: C_13  and  C_14
REMARK                            x       y       z     vdW  Elec       q    Type
REMARK                         _______ _______ _______ _____ _____    ______ ____
ROOT
ATOM      1  C   UNL     1      48.889   7.219  14.960  0.00  0.00    +0.000 A 
ATOM      2  C   UNL     1      49.131   8.035  13.859  0.00  0.00    +0.000 A 
ATOM      3  C   UNL     1      48.573   7.688  12.633  0.00  0.00    +0.000 A 
ATOM      4  C   UNL     1      47.800   6.535  12.535  0.00  0.00    +0.000 A 
ATOM      5  C   UNL     1      47.592   5.760  13.673  0.00  0.00    +0.000 A 
ATOM      6  N   UNL     1      48.125   6.101  14.874  0.00  0.00    +0.000 NA
ENDROOT
BRANCH   1   7
ATOM      7  C   UNL     1      49.405   7.610  16.334  0.00  0.00    +0.000 C 
BRANCH   7   8
ATOM      8  N   UNL     1      48.418   7.432  17.405  0.00  0.00    +0.000 NA
ATOM      9  H   UNL     1      47.557   7.061  17.010  0.00  0.00    +0.000 HD
BRANCH   8  11
ATOM     10  C   UNL     1      48.129   6.792  19.804  0.00  0.00    +0.000 C 
ATOM     11  C   UNL     1      48.884   6.555  18.485  0.00  0.00    +0.000 C 
BRANCH  11  12
ATOM     12  C   UNL     1      48.683   5.125  18.021  0.00  0.00    +0.000 A 
ATOM     13  C   UNL     1      47.437   4.553  17.804  0.00  0.00    +0.000 A 
ATOM     14  S   UNL     1      47.506   2.904  17.380  0.00  0.00    +0.000 S 
ATOM     15  C   UNL     1      49.205   2.899  17.440  0.00  0.00    +0.000 A 
ATOM     16  N   UNL     1      49.912   1.762  17.192  0.00  0.00    +0.000 NA
ATOM     17  C   UNL     1      51.192   1.904  17.270  0.00  0.00    +0.000 A 
ATOM     18  N   UNL     1      51.831   3.085  17.562  0.00  0.00    +0.000 N 
ATOM     19  C   UNL     1      51.161   4.261  17.814  0.00  0.00    +0.000 A 
ATOM     20  O   UNL     1      51.770   5.302  18.043  0.00  0.00    +0.000 OA
ATOM     21  C   UNL     1      49.716   4.144  17.764  0.00  0.00    +0.000 A 
ATOM     22  H   UNL     1      52.841   3.129  17.586  0.00  0.00    +0.000 HD
ENDBRANCH  11  12
ENDBRANCH   8  11
ENDBRANCH   7   8
ENDBRANCH   1   7
BRANCH   5  23
ATOM     23  C   UNL     1      46.788   4.469  13.576  0.00  0.00    +0.000 C 
BRANCH  23  24
ATOM     24  N   UNL     1      45.433   4.664  13.039  0.00  0.00    +0.000 NA
ATOM     25  H   UNL     1      45.376   5.608  12.665  0.00  0.00    +0.000 HD
BRANCH  24  26
ATOM     26  C   UNL     1      45.083   3.651  12.044  0.00  0.00    +0.000 C 
BRANCH  26  27
ATOM     27  C   UNL     1      44.596   4.230  10.690  0.00  0.00    +0.000 C 
ATOM     28  C   UNL     1      43.296   5.029  10.862  0.00  0.00    +0.000 C 
ATOM     29  C   UNL     1      44.495   3.179   9.603  0.00  0.00    +0.000 C 
ATOM     30  C   UNL     1      44.877   3.919   8.343  0.00  0.00    +0.000 C 
ATOM     31  N   UNL     1      45.570   5.140   8.745  0.00  0.00    +0.000 NA
ATOM     32  O   UNL     1      45.606   5.135  10.209  0.00  0.00    +0.000 OA
ATOM     33  H   UNL     1      44.984   5.958   8.562  0.00  0.00    +0.000 HD
ENDBRANCH  26  27
ENDBRANCH  24  26
ENDBRANCH  23  24
ENDBRANCH   5  23
TORSDOF 8
ENDMDL
MODEL 8
REMARK VINA RESULT:    -6.721      2.869      4.509
REMARK INTER + INTRA:         -11.080
REMARK INTER:                  -9.581
REMARK INTRA:                  -1.499
REMARK UNBOUND:                -1.216
REMARK  Name = 
REMARK  10 active torsions:
REMARK  status: ('A' for Active; 'I' for Inactive)
REMARK    1  A    between atoms: C_1  and  C_2
REMARK    2  A    between atoms: C_2  and  N_3
REMARK    3  A    between atoms: C_2  and  C_20
REMARK    4  A    between atoms: N_3  and  C_4
REMARK    5  A    between atoms: C_4  and  C_5
REMARK    6  A    between atoms: C_9  and  C_10
REMARK    7  A    between atoms: C_10  and  N_11
REMARK    8  A    between atoms: N_11  and  C_12
REMARK    9  A    between atoms: C_12  and  C_13
REMARK   10  A    between atoms: C_13  and  C_14
REMARK                            x       y       z     vdW  Elec       q    Type
REMARK                         _______ _______ _______ _____ _____    ______ ____
ROOT
ATOM      1  C   UNL     1      48.082   8.401  13.813  0.00  0.00    +0.000 A 
ATOM      2  C   UNL     1      49.042   8.058  12.866  0.00  0.00    +0.000 A 
ATOM      3  C   UNL     1      48.629   7.454  11.683  0.00  0.00    +0.000 A 
ATOM      4  C   UNL     1      47.276   7.201  11.478  0.00  0.00    +0.000 A 
ATOM      5  C   UNL     1      46.363   7.569  12.463  0.00  0.00    +0.000 A 
ATOM      6  N   UNL     1      46.759   8.168  13.615  0.00  0.00    +0.000 NA
ENDROOT
BRANCH   1   7
ATOM      7  C   UNL     1      48.480   9.142  15.078  0.00  0.00    +0.000 C 
BRANCH   7   8
ATOM      8  N   UNL     1      48.523   8.289  16.270  0.00  0.00    +0.000 NA
ATOM      9  H   UNL     1      47.693   7.700  16.292  0.00  0.00    +0.000 HD
BRANCH   8  11
ATOM     10  C   UNL     1      50.988   8.260  16.685  0.00  0.00    +0.000 C 
ATOM     11  C   UNL     1      49.724   7.451  16.344  0.00  0.00    +0.000 C 
BRANCH  11  12
ATOM     12  C   UNL     1      49.476   6.401  17.411  0.00  0.00    +0.000 A 
ATOM     13  C   UNL     1      50.011   6.461  18.689  0.00  0.00    +0.000 A 
ATOM     14  S   UNL     1      49.647   5.100  19.648  0.00  0.00    +0.000 S 
ATOM     15  C   UNL     1      48.733   4.393  18.400  0.00  0.00    +0.000 A 
ATOM     16  N   UNL     1      48.145   3.177  18.566  0.00  0.00    +0.000 NA
ATOM     17  C   UNL     1      47.481   2.764  17.538  0.00  0.00    +0.000 A 
ATOM     18  N   UNL     1      47.343   3.463  16.364  0.00  0.00    +0.000 N 
ATOM     19  C   UNL     1      47.913   4.697  16.152  0.00  0.00    +0.000 A 
ATOM     20  O   UNL     1      47.742   5.303  15.098  0.00  0.00    +0.000 OA
ATOM     21  C   UNL     1      48.693   5.192  17.271  0.00  0.00    +0.000 A 
ATOM     22  H   UNL     1      46.789   3.087  15.606  0.00  0.00    +0.000 HD
ENDBRANCH  11  12
ENDBRANCH   8  11
ENDBRANCH   7   8
ENDBRANCH   1   7
BRANCH   5  23
ATOM     23  C   UNL     1      44.882   7.257  12.280  0.00  0.00    +0.000 C 
BRANCH  23  24
ATOM     24  N   UNL     1      44.367   6.278  13.249  0.00  0.00    +0.000 NA
ATOM     25  H   UNL     1      43.905   6.790  13.997  0.00  0.00    +0.000 HD
BRANCH  24  26
ATOM     26  C   UNL     1      43.484   5.295  12.624  0.00  0.00    +0.000 C 
BRANCH  26  27
ATOM     27  C   UNL     1      44.221   4.090  11.987  0.00  0.00    +0.000 C 
ATOM     28  C   UNL     1      45.541   3.797  12.715  0.00  0.00    +0.000 C 
ATOM     29  C   UNL     1      44.400   4.234  10.488  0.00  0.00    +0.000 C 
ATOM     30  C   UNL     1      44.282   2.821   9.969  0.00  0.00    +0.000 C 
ATOM     31  N   UNL     1      43.640   2.023  11.010  0.00  0.00    +0.000 NA
ATOM     32  O   UNL     1      43.377   2.932  12.128  0.00  0.00    +0.000 OA
ATOM     33  H   UNL     1      44.313   1.378  11.430  0.00  0.00    +0.000 HD
ENDBRANCH  26  27
ENDBRANCH  24  26
ENDBRANCH  23  24
ENDBRANCH   5  23
TORSDOF 8
ENDMDL
MODEL 9
REMARK VINA RESULT:    -6.623      2.494      4.496
REMARK INTER + INTRA:         -10.937
REMARK INTER:                  -9.851
REMARK INTRA:                  -1.085
REMARK UNBOUND:                -1.216
REMARK  Name = 
REMARK  10 active torsions:
REMARK  status: ('A' for Active; 'I' for Inactive)
REMARK    1  A    between atoms: C_1  and  C_2
REMARK    2  A    between atoms: C_2  and  N_3
REMARK    3  A    between atoms: C_2  and  C_20
REMARK    4  A    between atoms: N_3  and  C_4
REMARK    5  A    between atoms: C_4  and  C_5
REMARK    6  A    between atoms: C_9  and  C_10
REMARK    7  A    between atoms: C_10  and  N_11
REMARK    8  A    between atoms: N_11  and  C_12
REMARK    9  A    between atoms: C_12  and  C_13
REMARK   10  A    between atoms: C_13  and  C_14
REMARK                            x       y       z     vdW  Elec       q    Type
REMARK                         _______ _______ _______ _____ _____    ______ ____
ROOT
ATOM      1  C   UNL     1      48.629   7.514  14.955  0.00  0.00    +0.000 A 
ATOM      2  C   UNL     1      48.953   8.275  13.836  0.00  0.00    +0.000 A 
ATOM      3  C   UNL     1      48.552   7.826  12.582  0.00  0.00    +0.000 A 
ATOM      4  C   UNL     1      47.848   6.629  12.476  0.00  0.00    +0.000 A 
ATOM      5  C   UNL     1      47.553   5.914  13.634  0.00  0.00    +0.000 A 
ATOM      6  N   UNL     1      47.933   6.353  14.860  0.00  0.00    +0.000 NA
ENDROOT
BRANCH   1   7
ATOM      7  C   UNL     1      48.970   8.013  16.349  0.00  0.00    +0.000 C 
BRANCH   7   8
ATOM      8  N   UNL     1      48.145   7.418  17.405  0.00  0.00    +0.000 NA
ATOM      9  H   UNL     1      47.654   6.608  17.032  0.00  0.00    +0.000 HD
BRANCH   8  11
ATOM     10  C   UNL     1      48.015   6.760  19.813  0.00  0.00    +0.000 C 
ATOM     11  C   UNL     1      48.912   7.027  18.592  0.00  0.00    +0.000 C 
BRANCH  11  12
ATOM     12  C   UNL     1      49.687   5.773  18.233  0.00  0.00    +0.000 A 
ATOM     13  C   UNL     1      51.066   5.663  18.344  0.00  0.00    +0.000 A 
ATOM     14  S   UNL     1      51.680   4.176  17.780  0.00  0.00    +0.000 S 
ATOM     15  C   UNL     1      50.123   3.611  17.396  0.00  0.00    +0.000 A 
ATOM     16  N   UNL     1      49.941   2.381  16.842  0.00  0.00    +0.000 NA
ATOM     17  C   UNL     1      48.708   2.082  16.606  0.00  0.00    +0.000 A 
ATOM     18  N   UNL     1      47.639   2.899  16.883  0.00  0.00    +0.000 N 
ATOM     19  C   UNL     1      47.771   4.147  17.447  0.00  0.00    +0.000 A 
ATOM     20  O   UNL     1      46.788   4.835  17.707  0.00  0.00    +0.000 OA
ATOM     21  C   UNL     1      49.144   4.539  17.708  0.00  0.00    +0.000 A 
ATOM     22  H   UNL     1      46.695   2.592  16.690  0.00  0.00    +0.000 HD
ENDBRANCH  11  12
ENDBRANCH   8  11
ENDBRANCH   7   8
ENDBRANCH   1   7
BRANCH   5  23
ATOM     23  C   UNL     1      46.825   4.578  13.534  0.00  0.00    +0.000 C 
BRANCH  23  24
ATOM     24  N   UNL     1      45.437   4.701  13.065  0.00  0.00    +0.000 NA
ATOM     25  H   UNL     1      45.306   5.649  12.718  0.00  0.00    +0.000 HD
BRANCH  24  26
ATOM     26  C   UNL     1      45.102   3.693  12.061  0.00  0.00    +0.000 C 
BRANCH  26  27
ATOM     27  C   UNL     1      44.603   4.276  10.714  0.00  0.00    +0.000 C 
ATOM     28  C   UNL     1      43.303   5.071  10.899  0.00  0.00    +0.000 C 
ATOM     29  C   UNL     1      44.497   3.229   9.623  0.00  0.00    +0.000 C 
ATOM     30  C   UNL     1      44.867   3.976   8.364  0.00  0.00    +0.000 C 
ATOM     31  N   UNL     1      45.560   5.197   8.765  0.00  0.00    +0.000 NA
ATOM     32  O   UNL     1      45.608   5.185  10.229  0.00  0.00    +0.000 OA
ATOM     33  H   UNL     1      44.971   6.014   8.589  0.00  0.00    +0.000 HD
ENDBRANCH  26  27
ENDBRANCH  24  26
ENDBRANCH  23  24
ENDBRANCH   5  23
TORSDOF 8
ENDMDL
