MODEL 1
REMARK VINA RESULT:    -7.228      0.000      0.000
REMARK INTER + INTRA:         -10.084
REMARK INTER:                  -9.341
REMARK INTRA:                  -0.743
REMARK UNBOUND:                -0.743
REMARK  Name = 
REMARK  5 active torsions:
REMARK  status: ('A' for Active; 'I' for Inactive)
REMARK    1  A    between atoms: C_2  and  C_3
REMARK    2  A    between atoms: C_7  and  N_8
REMARK    3  A    between atoms: N_8  and  C_9
REMARK    4  A    between atoms: C_9  and  C_10
REMARK    5  A    between atoms: C_12  and  N_13
REMARK                            x       y       z     vdW  Elec       q    Type
REMARK                         _______ _______ _______ _____ _____    ______ ____
ROOT
ATOM      1  C   UNL     1      44.829   4.224  12.138  0.00  0.00    +0.000 A 
ATOM      2  C   UNL     1      45.120   5.582  12.310  0.00  0.00    +0.000 A 
ATOM      3  C   UNL     1      46.210   5.983  13.100  0.00  0.00    +0.000 A 
ATOM      4  C   UNL     1      46.965   4.968  13.687  0.00  0.00    +0.000 A 
ATOM      5  C   UNL     1      46.616   3.644  13.474  0.00  0.00    +0.000 A 
ATOM      6  N   UNL     1      45.576   3.251  12.712  0.00  0.00    +0.000 NA
ENDROOT
BRANCH   3   7
ATOM      7  N   UNL     1      46.520   7.325  13.263  0.00  0.00    +0.000 N 
ATOM      8  C   UNL     1      45.544   8.393  12.979  0.00  0.00    +0.000 C 
ATOM      9  C   UNL     1      45.977   9.267  11.782  0.00  0.00    +0.000 C 
ATOM     10  N   UNL     1      47.347   9.801  11.915  0.00  0.00    +0.000 NA
ATOM     11  C   UNL     1      48.274   8.663  12.090  0.00  0.00    +0.000 C 
ATOM     12  C   UNL     1      47.932   7.749  13.295  0.00  0.00    +0.000 C 
ATOM     13  H   UNL     1      47.384  10.371  12.760  0.00  0.00    +0.000 HD
ENDBRANCH   3   7
BRANCH   1  14
ATOM     14  C   UNL     1      43.648   3.778  11.288  0.00  0.00    +0.000 C 
BRANCH  14  15
ATOM     15  N   UNL     1      43.780   4.196   9.897  0.00  0.00    +0.000 N 
ATOM     16  H   UNL     1      42.995   4.700   9.502  0.00  0.00    +0.000 HD
BRANCH  15  21
ATOM     17  C   UNL     1      46.187   2.064   8.021  0.00  0.00    +0.000 A 
ATOM     18  C   UNL     1      46.898   3.068   7.386  0.00  0.00    +0.000 A 
ATOM     19  N   UNL     1      46.623   4.380   7.542  0.00  0.00    +0.000 NA
ATOM     20  C   UNL     1      45.592   4.690   8.370  0.00  0.00    +0.000 A 
ATOM     21  C   UNL     1      44.786   3.767   9.052  0.00  0.00    +0.000 A 
ATOM     22  C   UNL     1      45.128   2.425   8.864  0.00  0.00    +0.000 A 
BRANCH  17  24
ATOM     23  N   UNL     1      46.813  -0.421   7.654  0.00  0.00    +0.000 NA
ATOM     24  C   UNL     1      46.537   0.692   7.817  0.00  0.00    +0.000 C 
ENDBRANCH  17  24
ENDBRANCH  15  21
ENDBRANCH  14  15
ENDBRANCH   1  14
TORSDOF 5
ENDMDL
MODEL 2
REMARK VINA RESULT:    -7.025      1.571      2.225
REMARK INTER + INTRA:          -9.822
REMARK INTER:                  -9.254
REMARK INTRA:                  -0.568
REMARK UNBOUND:                -0.743
REMARK  Name = 
REMARK  5 active torsions:
REMARK  status: ('A' for Active; 'I' for Inactive)
REMARK    1  A    between atoms: C_2  and  C_3
REMARK    2  A    between atoms: C_7  and  N_8
REMARK    3  A    between atoms: N_8  and  C_9
REMARK    4  A    between atoms: C_9  and  C_10
REMARK    5  A    between atoms: C_12  and  N_13
REMARK                            x       y       z     vdW  Elec       q    Type
REMARK                         _______ _______ _______ _____ _____    ______ ____
ROOT
ATOM      1  C   UNL     1      44.821   5.031  11.265  0.00  0.00    +0.000 A 
ATOM      2  C   UNL     1      45.584   6.204  11.308  0.00  0.00    +0.000 A 
ATOM      3  C   UNL     1      46.522   6.407  12.334  0.00  0.00    +0.000 A 
ATOM      4  C   UNL     1      46.642   5.392  13.282  0.00  0.00    +0.000 A 
ATOM      5  C   UNL     1      45.851   4.259  13.177  0.00  0.00    +0.000 A 
ATOM      6  N   UNL     1      44.954   4.053  12.193  0.00  0.00    +0.000 NA
ENDROOT
BRANCH   3   7
ATOM      7  N   UNL     1      47.298   7.555  12.376  0.00  0.00    +0.000 N 
ATOM      8  C   UNL     1      48.633   7.620  11.756  0.00  0.00    +0.000 C 
ATOM      9  C   UNL     1      49.751   7.796  12.807  0.00  0.00    +0.000 C 
ATOM     10  N   UNL     1      49.518   8.931  13.722  0.00  0.00    +0.000 NA
ATOM     11  C   UNL     1      48.210   8.735  14.381  0.00  0.00    +0.000 C 
ATOM     12  C   UNL     1      47.022   8.585  13.396  0.00  0.00    +0.000 C 
ATOM     13  H   UNL     1      49.466   9.783  13.162  0.00  0.00    +0.000 HD
ENDBRANCH   3   7
BRANCH   1  14
ATOM     14  C   UNL     1      43.799   4.803  10.161  0.00  0.00    +0.000 C 
BRANCH  14  15
ATOM     15  N   UNL     1      44.428   4.584   8.863  0.00  0.00    +0.000 N 
ATOM     16  H   UNL     1      44.202   5.252   8.135  0.00  0.00    +0.000 HD
BRANCH  15  21
ATOM     17  C   UNL     1      46.723   2.169   7.202  0.00  0.00    +0.000 A 
ATOM     18  C   UNL     1      46.338   1.024   7.879  0.00  0.00    +0.000 A 
ATOM     19  N   UNL     1      45.386   1.015   8.834  0.00  0.00    +0.000 NA
ATOM     20  C   UNL     1      44.799   2.206   9.117  0.00  0.00    +0.000 A 
ATOM     21  C   UNL     1      45.113   3.434   8.519  0.00  0.00    +0.000 A 
ATOM     22  C   UNL     1      46.096   3.378   7.527  0.00  0.00    +0.000 A 
BRANCH  17  24
ATOM     23  N   UNL     1      48.550   2.055   5.372  0.00  0.00    +0.000 NA
ATOM     24  C   UNL     1      47.735   2.107   6.194  0.00  0.00    +0.000 C 
ENDBRANCH  17  24
ENDBRANCH  15  21
ENDBRANCH  14  15
ENDBRANCH   1  14
TORSDOF 5
ENDMDL
MODEL 3
REMARK VINA RESULT:    -6.883      2.149      6.878
REMARK INTER + INTRA:          -9.638
REMARK INTER:                  -9.076
REMARK INTRA:                  -0.562
REMARK UNBOUND:                -0.743
REMARK  Name = 
REMARK  5 active torsions:
REMARK  status: ('A' for Active; 'I' for Inactive)
REMARK    1  A    between atoms: C_2  and  C_3
REMARK    2  A    between atoms: C_7  and  N_8
REMARK    3  A    between atoms: N_8  and  C_9
REMARK    4  A    between atoms: C_9  and  C_10
REMARK    5  A    between atoms: C_12  and  N_13
REMARK                            x       y       z     vdW  Elec       q    Type
REMARK                         _______ _______ _______ _____ _____    ______ ____
ROOT
ATOM      1  C   UNL     1      44.871   5.085  12.072  0.00  0.00    +0.000 A 
ATOM      2  C   UNL     1      45.084   4.608  10.773  0.00  0.00    +0.000 A 
ATOM      3  C   UNL     1      44.431   3.449  10.323  0.00  0.00    +0.000 A 
ATOM      4  C   UNL     1      43.579   2.819  11.230  0.00  0.00    +0.000 A 
ATOM      5  C   UNL     1      43.419   3.347  12.501  0.00  0.00    +0.000 A 
ATOM      6  N   UNL     1      44.037   4.462  12.938  0.00  0.00    +0.000 NA
ENDROOT
BRANCH   3   7
ATOM      7  N   UNL     1      44.618   2.978   9.033  0.00  0.00    +0.000 N 
ATOM      8  C   UNL     1      44.930   1.564   8.754  0.00  0.00    +0.000 C 
ATOM      9  C   UNL     1      46.345   1.391   8.160  0.00  0.00    +0.000 C 
ATOM     10  N   UNL     1      46.592   2.247   6.983  0.00  0.00    +0.000 NA
ATOM     11  C   UNL     1      46.360   3.653   7.374  0.00  0.00    +0.000 C 
ATOM     12  C   UNL     1      44.947   3.924   7.950  0.00  0.00    +0.000 C 
ATOM     13  H   UNL     1      45.909   2.002   6.265  0.00  0.00    +0.000 HD
ENDBRANCH   3   7
BRANCH   1  14
ATOM     14  C   UNL     1      45.577   6.338  12.571  0.00  0.00    +0.000 C 
BRANCH  14  15
ATOM     15  N   UNL     1      47.000   6.114  12.803  0.00  0.00    +0.000 N 
ATOM     16  H   UNL     1      47.579   6.010  11.977  0.00  0.00    +0.000 HD
BRANCH  15  21
ATOM     17  C   UNL     1      47.665   4.593  16.134  0.00  0.00    +0.000 A 
ATOM     18  C   UNL     1      48.695   5.426  16.537  0.00  0.00    +0.000 A 
ATOM     19  N   UNL     1      49.168   6.436  15.777  0.00  0.00    +0.000 NA
ATOM     20  C   UNL     1      48.580   6.611  14.566  0.00  0.00    +0.000 A 
ATOM     21  C   UNL     1      47.548   5.825  14.038  0.00  0.00    +0.000 A 
ATOM     22  C   UNL     1      47.088   4.805  14.876  0.00  0.00    +0.000 A 
BRANCH  17  24
ATOM     23  N   UNL     1      46.827   2.698  17.686  0.00  0.00    +0.000 NA
ATOM     24  C   UNL     1      47.206   3.545  16.993  0.00  0.00    +0.000 C 
ENDBRANCH  17  24
ENDBRANCH  15  21
ENDBRANCH  14  15
ENDBRANCH   1  14
TORSDOF 5
ENDMDL
MODEL 4
REMARK VINA RESULT:    -6.879      3.270      7.431
REMARK INTER + INTRA:          -9.633
REMARK INTER:                  -9.206
REMARK INTRA:                  -0.427
REMARK UNBOUND:                -0.743
REMARK  Name = 
REMARK  5 active torsions:
REMARK  status: ('A' for Active; 'I' for Inactive)
REMARK    1  A    between atoms: C_2  and  C_3
REMARK    2  A    between atoms: C_7  and  N_8
REMARK    3  A    between atoms: N_8  and  C_9
REMARK    4  A    between atoms: C_9  and  C_10
REMARK    5  A    between atoms: C_12  and  N_13
REMARK                            x       y       z     vdW  Elec       q    Type
REMARK                         _______ _______ _______ _____ _____    ______ ____
ROOT
ATOM      1  C   UNL     1      45.538   4.016  12.959  0.00  0.00    +0.000 A 
ATOM      2  C   UNL     1      45.593   3.610  11.620  0.00  0.00    +0.000 A 
ATOM      3  C   UNL     1      44.424   3.548  10.844  0.00  0.00    +0.000 A 
ATOM      4  C   UNL     1      43.234   3.908  11.476  0.00  0.00    +0.000 A 
ATOM      5  C   UNL     1      43.255   4.298  12.805  0.00  0.00    +0.000 A 
ATOM      6  N   UNL     1      44.373   4.366  13.554  0.00  0.00    +0.000 NA
ENDROOT
BRANCH   3   7
ATOM      7  N   UNL     1      44.469   3.166   9.512  0.00  0.00    +0.000 N 
ATOM      8  C   UNL     1      44.663   1.761   9.108  0.00  0.00    +0.000 C 
ATOM      9  C   UNL     1      46.007   1.550   8.378  0.00  0.00    +0.000 C 
ATOM     10  N   UNL     1      46.208   2.477   7.246  0.00  0.00    +0.000 NA
ATOM     11  C   UNL     1      46.103   3.861   7.755  0.00  0.00    +0.000 C 
ATOM     12  C   UNL     1      44.765   4.170   8.474  0.00  0.00    +0.000 C 
ATOM     13  H   UNL     1      45.452   2.328   6.577  0.00  0.00    +0.000 HD
ENDBRANCH   3   7
BRANCH   1  14
ATOM     14  C   UNL     1      46.798   4.082  13.809  0.00  0.00    +0.000 C 
BRANCH  14  15
ATOM     15  N   UNL     1      46.501   4.320  15.217  0.00  0.00    +0.000 N 
ATOM     16  H   UNL     1      45.664   4.857  15.416  0.00  0.00    +0.000 HD
BRANCH  15  21
ATOM     17  C   UNL     1      49.256   2.885  17.267  0.00  0.00    +0.000 A 
ATOM     18  C   UNL     1      49.009   3.565  18.447  0.00  0.00    +0.000 A 
ATOM     19  N   UNL     1      48.003   4.454  18.591  0.00  0.00    +0.000 NA
ATOM     20  C   UNL     1      47.219   4.664  17.502  0.00  0.00    +0.000 A 
ATOM     21  C   UNL     1      47.380   4.055  16.250  0.00  0.00    +0.000 A 
ATOM     22  C   UNL     1      48.427   3.133  16.166  0.00  0.00    +0.000 A 
BRANCH  17  24
ATOM     23  N   UNL     1      51.213   1.196  17.113  0.00  0.00    +0.000 NA
ATOM     24  C   UNL     1      50.335   1.949  17.185  0.00  0.00    +0.000 C 
ENDBRANCH  17  24
ENDBRANCH  15  21
ENDBRANCH  14  15
ENDBRANCH   1  14
TORSDOF 5
ENDMDL
MODEL 5
REMARK VINA RESULT:    -6.490      1.684      2.524
REMARK INTER + INTRA:          -9.130
REMARK INTER:                  -8.508
REMARK INTRA:                  -0.623
REMARK UNBOUND:                -0.743
REMARK  Name = 
REMARK  5 active torsions:
REMARK  status: ('A' for Active; 'I' for Inactive)
REMARK    1  A    between atoms: C_2  and  C_3
REMARK    2  A    between atoms: C_7  and  N_8
REMARK    3  A    between atoms: N_8  and  C_9
REMARK    4  A    between atoms: C_9  and  C_10
REMARK    5  A    between atoms: C_12  and  N_13
REMARK                            x       y       z     vdW  Elec       q    Type
REMARK                         _______ _______ _______ _____ _____    ______ ____
ROOT
ATOM      1  C   UNL     1      44.971   5.592  12.730  0.00  0.00    +0.000 A 
ATOM      2  C   UNL     1      45.903   6.624  12.576  0.00  0.00    +0.000 A 
ATOM      3  C   UNL     1      47.140   6.573  13.239  0.00  0.00    +0.000 A 
ATOM      4  C   UNL     1      47.374   5.457  14.041  0.00  0.00    +0.000 A 
ATOM      5  C   UNL     1      46.403   4.474  14.148  0.00  0.00    +0.000 A 
ATOM      6  N   UNL     1      45.217   4.512  13.510  0.00  0.00    +0.000 NA
ENDROOT
BRANCH   3   7
ATOM      7  N   UNL     1      48.080   7.580  13.079  0.00  0.00    +0.000 N 
ATOM      8  C   UNL     1      48.642   7.923  11.760  0.00  0.00    +0.000 C 
ATOM      9  C   UNL     1      50.151   7.607  11.676  0.00  0.00    +0.000 C 
ATOM     10  N   UNL     1      50.935   8.205  12.775  0.00  0.00    +0.000 NA
ATOM     11  C   UNL     1      50.374   7.728  14.057  0.00  0.00    +0.000 C 
ATOM     12  C   UNL     1      48.866   8.037  14.241  0.00  0.00    +0.000 C 
ATOM     13  H   UNL     1      50.815   9.217  12.735  0.00  0.00    +0.000 HD
ENDBRANCH   3   7
BRANCH   1  14
ATOM     14  C   UNL     1      43.626   5.640  12.019  0.00  0.00    +0.000 C 
BRANCH  14  15
ATOM     15  N   UNL     1      43.762   5.510  10.572  0.00  0.00    +0.000 N 
ATOM     16  H   UNL     1      43.317   6.229  10.013  0.00  0.00    +0.000 HD
BRANCH  15  21
ATOM     17  C   UNL     1      45.433   3.237   8.144  0.00  0.00    +0.000 A 
ATOM     18  C   UNL     1      45.098   2.029   8.732  0.00  0.00    +0.000 A 
ATOM     19  N   UNL     1      44.370   1.935   9.864  0.00  0.00    +0.000 NA
ATOM     20  C   UNL     1      43.964   3.104  10.423  0.00  0.00    +0.000 A 
ATOM     21  C   UNL     1      44.255   4.386   9.938  0.00  0.00    +0.000 A 
ATOM     22  C   UNL     1      44.998   4.420   8.755  0.00  0.00    +0.000 A 
BRANCH  17  24
ATOM     23  N   UNL     1      46.829   3.281   5.964  0.00  0.00    +0.000 NA
ATOM     24  C   UNL     1      46.202   3.265   6.938  0.00  0.00    +0.000 C 
ENDBRANCH  17  24
ENDBRANCH  15  21
ENDBRANCH  14  15
ENDBRANCH   1  14
TORSDOF 5
ENDMDL
MODEL 6
REMARK VINA RESULT:    -6.422      1.361      2.098
REMARK INTER + INTRA:          -9.042
REMARK INTER:                  -8.482
REMARK INTRA:                  -0.560
REMARK UNBOUND:                -0.743
REMARK  Name = 
REMARK  5 active torsions:
REMARK  status: ('A' for Active; 'I' for Inactive)
REMARK    1  A    between atoms: C_2  and  C_3
REMARK    2  A    between atoms: C_7  and  N_8
REMARK    3  A    between atoms: N_8  and  C_9
REMARK    4  A    between atoms: C_9  and  C_10
REMARK    5  A    between atoms: C_12  and  N_13
REMARK                            x       y       z     vdW  Elec       q    Type
REMARK                         _______ _______ _______ _____ _____    ______ ____
ROOT
ATOM      1  C   UNL     1      44.995   5.323  12.158  0.00  0.00    +0.000 A 
ATOM      2  C   UNL     1      46.267   5.563  12.693  0.00  0.00    +0.000 A 
ATOM      3  C   UNL     1      46.729   6.877  12.871  0.00  0.00    +0.000 A 
ATOM      4  C   UNL     1      45.863   7.902  12.492  0.00  0.00    +0.000 A 
ATOM      5  C   UNL     1      44.620   7.590  11.967  0.00  0.00    +0.000 A 
ATOM      6  N   UNL     1      44.166   6.332  11.798  0.00  0.00    +0.000 NA
ENDROOT
BRANCH   3   7
ATOM      7  N   UNL     1      47.978   7.128  13.419  0.00  0.00    +0.000 N 
ATOM      8  C   UNL     1      48.145   7.888  14.670  0.00  0.00    +0.000 C 
ATOM      9  C   UNL     1      48.869   9.232  14.437  0.00  0.00    +0.000 C 
ATOM     10  N   UNL     1      50.147   9.089  13.710  0.00  0.00    +0.000 NA
ATOM     11  C   UNL     1      49.876   8.413  12.424  0.00  0.00    +0.000 C 
ATOM     12  C   UNL     1      49.180   7.035  12.568  0.00  0.00    +0.000 C 
ATOM     13  H   UNL     1      50.758   8.485  14.262  0.00  0.00    +0.000 HD
ENDBRANCH   3   7
BRANCH   1  14
ATOM     14  C   UNL     1      44.487   3.903  11.955  0.00  0.00    +0.000 C 
BRANCH  14  15
ATOM     15  N   UNL     1      44.006   3.678  10.597  0.00  0.00    +0.000 N 
ATOM     16  H   UNL     1      43.004   3.567  10.487  0.00  0.00    +0.000 HD
BRANCH  15  21
ATOM     17  C   UNL     1      46.125   1.902   8.104  0.00  0.00    +0.000 A 
ATOM     18  C   UNL     1      46.552   3.002   7.379  0.00  0.00    +0.000 A 
ATOM     19  N   UNL     1      46.178   4.267   7.666  0.00  0.00    +0.000 NA
ATOM     20  C   UNL     1      45.343   4.427   8.724  0.00  0.00    +0.000 A 
ATOM     21  C   UNL     1      44.826   3.396   9.521  0.00  0.00    +0.000 A 
ATOM     22  C   UNL     1      45.260   2.111   9.186  0.00  0.00    +0.000 A 
BRANCH  17  24
ATOM     23  N   UNL     1      46.918  -0.479   7.468  0.00  0.00    +0.000 NA
ATOM     24  C   UNL     1      46.566   0.589   7.750  0.00  0.00    +0.000 C 
ENDBRANCH  17  24
ENDBRANCH  15  21
ENDBRANCH  14  15
ENDBRANCH   1  14
TORSDOF 5
ENDMDL
MODEL 7
REMARK VINA RESULT:    -6.206      3.038      7.521
REMARK INTER + INTRA:          -8.764
REMARK INTER:                  -8.188
REMARK INTRA:                  -0.575
REMARK UNBOUND:                -0.743
REMARK  Name = 
REMARK  5 active torsions:
REMARK  status: ('A' for Active; 'I' for Inactive)
REMARK    1  A    between atoms: C_2  and  C_3
REMARK    2  A    between atoms: C_7  and  N_8
REMARK    3  A    between atoms: N_8  and  C_9
REMARK    4  A    between atoms: C_9  and  C_10
REMARK    5  A    between atoms: C_12  and  N_13
REMARK                            x       y       z     vdW  Elec       q    Type
REMARK                         _______ _______ _______ _____ _____    ______ ____
ROOT
ATOM      1  C   UNL     1      46.874   6.788  12.760  0.00  0.00    +0.000 A 
ATOM      2  C   UNL     1      46.111   5.777  12.166  0.00  0.00    +0.000 A 
ATOM      3  C   UNL     1      44.913   6.084  11.500  0.00  0.00    +0.000 A 
ATOM      4  C   UNL     1      44.541   7.428  11.470  0.00  0.00    +0.000 A 
ATOM      5  C   UNL     1      45.345   8.375  12.083  0.00  0.00    +0.000 A 
ATOM      6  N   UNL     1      46.499   8.089  12.717  0.00  0.00    +0.000 NA
ENDROOT
BRANCH   3   7
ATOM      7  N   UNL     1      44.159   5.093  10.891  0.00  0.00    +0.000 N 
ATOM      8  C   UNL     1      43.075   4.389  11.599  0.00  0.00    +0.000 C 
ATOM      9  C   UNL     1      43.397   2.893  11.806  0.00  0.00    +0.000 C 
ATOM     10  N   UNL     1      43.775   2.199  10.558  0.00  0.00    +0.000 NA
ATOM     11  C   UNL     1      44.932   2.904   9.968  0.00  0.00    +0.000 C 
ATOM     12  C   UNL     1      44.682   4.409   9.693  0.00  0.00    +0.000 C 
ATOM     13  H   UNL     1      42.994   2.273   9.906  0.00  0.00    +0.000 HD
ENDBRANCH   3   7
BRANCH   1  14
ATOM     14  C   UNL     1      48.171   6.465  13.488  0.00  0.00    +0.000 C 
BRANCH  14  15
ATOM     15  N   UNL     1      48.053   6.641  14.931  0.00  0.00    +0.000 N 
ATOM     16  H   UNL     1      48.260   7.566  15.290  0.00  0.00    +0.000 HD
BRANCH  15  21
ATOM     17  C   UNL     1      48.195   4.526  17.991  0.00  0.00    +0.000 A 
ATOM     18  C   UNL     1      47.583   3.392  17.484  0.00  0.00    +0.000 A 
ATOM     19  N   UNL     1      47.135   3.300  16.214  0.00  0.00    +0.000 NA
ATOM     20  C   UNL     1      47.311   4.392  15.427  0.00  0.00    +0.000 A 
ATOM     21  C   UNL     1      47.895   5.601  15.828  0.00  0.00    +0.000 A 
ATOM     22  C   UNL     1      48.353   5.633  17.148  0.00  0.00    +0.000 A 
BRANCH  17  24
ATOM     23  N   UNL     1      49.018   4.582  20.445  0.00  0.00    +0.000 NA
ATOM     24  C   UNL     1      48.653   4.554  19.345  0.00  0.00    +0.000 C 
ENDBRANCH  17  24
ENDBRANCH  15  21
ENDBRANCH  14  15
ENDBRANCH   1  14
TORSDOF 5
ENDMDL
MODEL 8
REMARK VINA RESULT:    -6.149      4.563      7.994
REMARK INTER + INTRA:          -8.690
REMARK INTER:                  -8.193
REMARK INTRA:                  -0.497
REMARK UNBOUND:                -0.743
REMARK  Name = 
REMARK  5 active torsions:
REMARK  status: ('A' for Active; 'I' for Inactive)
REMARK    1  A    between atoms: C_2  and  C_3
REMARK    2  A    between atoms: C_7  and  N_8
REMARK    3  A    between atoms: N_8  and  C_9
REMARK    4  A    between atoms: C_9  and  C_10
REMARK    5  A    between atoms: C_12  and  N_13
REMARK                            x       y       z     vdW  Elec       q    Type
REMARK                         _______ _______ _______ _____ _____    ______ ____
ROOT
ATOM      1  C   UNL     1      47.333   4.764  15.131  0.00  0.00    +0.000 A 
ATOM      2  C   UNL     1      46.402   4.414  14.145  0.00  0.00    +0.000 A 
ATOM      3  C   UNL     1      46.307   5.158  12.957  0.00  0.00    +0.000 A 
ATOM      4  C   UNL     1      47.177   6.239  12.825  0.00  0.00    +0.000 A 
ATOM      5  C   UNL     1      48.071   6.528  13.844  0.00  0.00    +0.000 A 
ATOM      6  N   UNL     1      48.172   5.816  14.984  0.00  0.00    +0.000 NA
ENDROOT
BRANCH   3   7
ATOM      7  N   UNL     1      45.403   4.809  11.965  0.00  0.00    +0.000 N 
ATOM      8  C   UNL     1      44.415   5.767  11.437  0.00  0.00    +0.000 C 
ATOM      9  C   UNL     1      42.968   5.352  11.779  0.00  0.00    +0.000 C 
ATOM     10  N   UNL     1      42.650   3.965  11.384  0.00  0.00    +0.000 NA
ATOM     11  C   UNL     1      43.619   3.062  12.039  0.00  0.00    +0.000 C 
ATOM     12  C   UNL     1      45.101   3.387  11.720  0.00  0.00    +0.000 C 
ATOM     13  H   UNL     1      42.776   3.886  10.375  0.00  0.00    +0.000 HD
ENDBRANCH   3   7
BRANCH   1  14
ATOM     14  C   UNL     1      47.440   3.968  16.423  0.00  0.00    +0.000 C 
BRANCH  14  15
ATOM     15  N   UNL     1      48.620   4.332  17.199  0.00  0.00    +0.000 N 
ATOM     16  H   UNL     1      48.682   5.299  17.495  0.00  0.00    +0.000 HD
BRANCH  15  21
ATOM     17  C   UNL     1      52.062   3.095  17.891  0.00  0.00    +0.000 A 
ATOM     18  C   UNL     1      51.876   1.769  17.540  0.00  0.00    +0.000 A 
ATOM     19  N   UNL     1      50.698   1.278  17.102  0.00  0.00    +0.000 NA
ATOM     20  C   UNL     1      49.669   2.160  17.014  0.00  0.00    +0.000 A 
ATOM     21  C   UNL     1      49.725   3.517  17.358  0.00  0.00    +0.000 A 
ATOM     22  C   UNL     1      50.974   3.971  17.791  0.00  0.00    +0.000 A 
BRANCH  17  24
ATOM     23  N   UNL     1      54.379   3.921  18.699  0.00  0.00    +0.000 NA
ATOM     24  C   UNL     1      53.341   3.550  18.342  0.00  0.00    +0.000 C 
ENDBRANCH  17  24
ENDBRANCH  15  21
ENDBRANCH  14  15
ENDBRANCH   1  14
TORSDOF 5
ENDMDL
MODEL 9
REMARK VINA RESULT:    -5.978      1.616      6.750
REMARK INTER + INTRA:          -8.469
REMARK INTER:                  -7.817
REMARK INTRA:                  -0.652
REMARK UNBOUND:                -0.743
REMARK  Name = 
REMARK  5 active torsions:
REMARK  status: ('A' for Active; 'I' for Inactive)
REMARK    1  A    between atoms: C_2  and  C_3
REMARK    2  A    between atoms: C_7  and  N_8
REMARK    3  A    between atoms: N_8  and  C_9
REMARK    4  A    between atoms: C_9  and  C_10
REMARK    5  A    between atoms: C_12  and  N_13
REMARK                            x       y       z     vdW  Elec       q    Type
REMARK                         _______ _______ _______ _____ _____    ______ ____
ROOT
ATOM      1  C   UNL     1      44.724   5.583  11.579  0.00  0.00    +0.000 A 
ATOM      2  C   UNL     1      44.872   5.030  10.302  0.00  0.00    +0.000 A 
ATOM      3  C   UNL     1      44.851   3.638  10.120  0.00  0.00    +0.000 A 
ATOM      4  C   UNL     1      44.678   2.860  11.264  0.00  0.00    +0.000 A 
ATOM      5  C   UNL     1      44.541   3.476  12.498  0.00  0.00    +0.000 A 
ATOM      6  N   UNL     1      44.553   4.812  12.679  0.00  0.00    +0.000 NA
ENDROOT
BRANCH   3   7
ATOM      7  N   UNL     1      44.976   3.079   8.857  0.00  0.00    +0.000 N 
ATOM      8  C   UNL     1      45.094   1.624   8.654  0.00  0.00    +0.000 C 
ATOM      9  C   UNL     1      46.474   1.230   8.084  0.00  0.00    +0.000 C 
ATOM     10  N   UNL     1      46.839   1.983   6.867  0.00  0.00    +0.000 NA
ATOM     11  C   UNL     1      46.799   3.425   7.184  0.00  0.00    +0.000 C 
ATOM     12  C   UNL     1      45.433   3.915   7.731  0.00  0.00    +0.000 C 
ATOM     13  H   UNL     1      46.132   1.795   6.156  0.00  0.00    +0.000 HD
ENDBRANCH   3   7
BRANCH   1  14
ATOM     14  C   UNL     1      44.750   7.090  11.787  0.00  0.00    +0.000 C 
BRANCH  14  15
ATOM     15  N   UNL     1      45.531   7.472  12.959  0.00  0.00    +0.000 N 
ATOM     16  H   UNL     1      45.010   7.842  13.745  0.00  0.00    +0.000 HD
BRANCH  15  21
ATOM     17  C   UNL     1      49.038   8.528  12.294  0.00  0.00    +0.000 A 
ATOM     18  C   UNL     1      49.688   7.555  13.034  0.00  0.00    +0.000 A 
ATOM     19  N   UNL     1      49.038   6.596  13.726  0.00  0.00    +0.000 NA
ATOM     20  C   UNL     1      47.681   6.620  13.669  0.00  0.00    +0.000 A 
ATOM     21  C   UNL     1      46.910   7.562  12.974  0.00  0.00    +0.000 A 
ATOM     22  C   UNL     1      47.638   8.520  12.265  0.00  0.00    +0.000 A 
BRANCH  17  24
ATOM     23  N   UNL     1      50.399  10.313  11.004  0.00  0.00    +0.000 NA
ATOM     24  C   UNL     1      49.789   9.512  11.577  0.00  0.00    +0.000 C 
ENDBRANCH  17  24
ENDBRANCH  15  21
ENDBRANCH  14  15
ENDBRANCH   1  14
TORSDOF 5
ENDMDL
