MODEL 1
REMARK VINA RESULT:    -7.318      0.000      0.000
REMARK INTER + INTRA:         -11.470
REMARK INTER:                 -10.312
REMARK INTRA:                  -1.158
REMARK UNBOUND:                -1.158
REMARK  Name = 
REMARK  7 active torsions:
REMARK  status: ('A' for Active; 'I' for Inactive)
REMARK    1  A    between atoms: C_2  and  C_3
REMARK    2  A    between atoms: C_7  and  C_8
REMARK    3  A    between atoms: N_10  and  C_11
REMARK    4  A    between atoms: C_11  and  C_12
REMARK    5  A    between atoms: C_15  and  C_16
REMARK    6  A    between atoms: C_16  and  N_17
REMARK    7  A    between atoms: C_18  and  C_20
REMARK                            x       y       z     vdW  Elec       q    Type
REMARK                         _______ _______ _______ _____ _____    ______ ____
ROOT
ATOM      1  C   UNL     1      49.419   7.738  15.246  0.00  0.00    +0.000 A 
ATOM      2  C   UNL     1      48.545   8.815  15.135  0.00  0.00    +0.000 A 
ATOM      3  C   UNL     1      47.650   8.864  14.058  0.00  0.00    +0.000 A 
ATOM      4  C   UNL     1      47.637   7.842  13.104  0.00  0.00    +0.000 A 
ATOM      5  C   UNL     1      48.550   6.811  13.298  0.00  0.00    +0.000 A 
ATOM      6  N   UNL     1      49.416   6.727  14.343  0.00  0.00    +0.000 NA
ENDROOT
BRANCH   1   7
ATOM      7  C   UNL     1      50.380   7.653  16.412  0.00  0.00    +0.000 C 
BRANCH   7  10
ATOM      8  C   UNL     1      49.730   5.692  17.736  0.00  0.00    +0.000 C 
ATOM      9  O   UNL     1      48.763   6.273  18.191  0.00  0.00    +0.000 OA
ATOM     10  N   UNL     1      50.614   6.285  16.851  0.00  0.00    +0.000 N 
ATOM     11  H   UNL     1      51.565   5.948  16.800  0.00  0.00    +0.000 HD
BRANCH   8  16
ATOM     12  C   UNL     1      49.463   3.256  17.034  0.00  0.00    +0.000 C 
ATOM     13  C   UNL     1      50.308   1.994  17.181  0.00  0.00    +0.000 C 
ATOM     14  C   UNL     1      51.639   2.443  17.782  0.00  0.00    +0.000 C 
ATOM     15  C   UNL     1      51.541   3.950  17.985  0.00  0.00    +0.000 C 
ATOM     16  C   UNL     1      50.047   4.236  18.073  0.00  0.00    +0.000 C 
BRANCH  12  18
ATOM     17  N   UNL     1      46.784   2.777  17.608  0.00  0.00    +0.000 NA
ATOM     18  C   UNL     1      47.999   2.994  17.348  0.00  0.00    +0.000 C 
ENDBRANCH  12  18
ENDBRANCH   8  16
ENDBRANCH   7  10
ENDBRANCH   1   7
BRANCH   4  19
ATOM     19  C   UNL     1      46.701   7.812  11.919  0.00  0.00    +0.000 C 
BRANCH  19  20
ATOM     20  N   UNL     1      46.181   6.496  11.634  0.00  0.00    +0.000 N 
ATOM     21  C   UNL     1      44.843   6.261  11.430  0.00  0.00    +0.000 C 
ATOM     22  O   UNL     1      43.991   7.147  11.458  0.00  0.00    +0.000 OA
ATOM     23  H   UNL     1      46.716   5.715  11.999  0.00  0.00    +0.000 HD
BRANCH  21  24
ATOM     24  C   UNL     1      44.500   4.866  11.116  0.00  0.00    +0.000 A 
ATOM     25  C   UNL     1      43.691   4.124  11.965  0.00  0.00    +0.000 A 
ATOM     26  S   UNL     1      43.382   2.543  11.397  0.00  0.00    +0.000 S 
ATOM     27  C   UNL     1      44.351   2.783  10.020  0.00  0.00    +0.000 A 
ATOM     28  N   UNL     1      44.543   1.792   9.109  0.00  0.00    +0.000 NA
ATOM     29  C   UNL     1      45.330   2.107   8.133  0.00  0.00    +0.000 A 
ATOM     30  N   UNL     1      45.937   3.326   7.981  0.00  0.00    +0.000 N 
ATOM     31  C   UNL     1      45.721   4.373   8.839  0.00  0.00    +0.000 A 
ATOM     32  O   UNL     1      46.190   5.486   8.623  0.00  0.00    +0.000 OA
ATOM     33  C   UNL     1      44.880   4.058   9.979  0.00  0.00    +0.000 A 
ATOM     34  H   UNL     1      46.516   3.520   7.176  0.00  0.00    +0.000 HD
ENDBRANCH  21  24
ENDBRANCH  19  20
ENDBRANCH   4  19
TORSDOF 7
ENDMDL
MODEL 2
REMARK VINA RESULT:    -6.859      1.619      2.227
REMARK INTER + INTRA:         -10.823
REMARK INTER:                  -9.834
REMARK INTRA:                  -0.989
REMARK UNBOUND:                -1.158
REMARK  Name = 
REMARK  7 active torsions:
REMARK  status: ('A' for Active; 'I' for Inactive)
REMARK    1  A    between atoms: C_2  and  C_3
REMARK    2  A    between atoms: C_7  and  C_8
REMARK    3  A    between atoms: N_10  and  C_11
REMARK    4  A    between atoms: C_11  and  C_12
REMARK    5  A    between atoms: C_15  and  C_16
REMARK    6  A    between atoms: C_16  and  N_17
REMARK    7  A    between atoms: C_18  and  C_20
REMARK                            x       y       z     vdW  Elec       q    Type
REMARK                         _______ _______ _______ _____ _____    ______ ____
ROOT
ATOM      1  C   UNL     1      50.208   7.552  15.408  0.00  0.00    +0.000 A 
ATOM      2  C   UNL     1      50.574   8.691  14.700  0.00  0.00    +0.000 A 
ATOM      3  C   UNL     1      49.896   9.009  13.515  0.00  0.00    +0.000 A 
ATOM      4  C   UNL     1      48.863   8.189  13.050  0.00  0.00    +0.000 A 
ATOM      5  C   UNL     1      48.573   7.071  13.826  0.00  0.00    +0.000 A 
ATOM      6  N   UNL     1      49.200   6.748  14.989  0.00  0.00    +0.000 NA
ENDROOT
BRANCH   1   7
ATOM      7  C   UNL     1      50.912   7.199  16.701  0.00  0.00    +0.000 C 
BRANCH   7  10
ATOM      8  C   UNL     1      50.159   5.228  17.953  0.00  0.00    +0.000 C 
ATOM      9  O   UNL     1      49.440   5.906  18.662  0.00  0.00    +0.000 OA
ATOM     10  N   UNL     1      50.948   5.766  16.951  0.00  0.00    +0.000 N 
ATOM     11  H   UNL     1      51.782   5.275  16.659  0.00  0.00    +0.000 HD
BRANCH   8  16
ATOM     12  C   UNL     1      49.473   2.989  16.944  0.00  0.00    +0.000 C 
ATOM     13  C   UNL     1      50.099   1.599  16.882  0.00  0.00    +0.000 C 
ATOM     14  C   UNL     1      51.500   1.738  17.475  0.00  0.00    +0.000 C 
ATOM     15  C   UNL     1      51.659   3.197  17.882  0.00  0.00    +0.000 C 
ATOM     16  C   UNL     1      50.236   3.707  18.076  0.00  0.00    +0.000 C 
BRANCH  12  18
ATOM     17  N   UNL     1      46.765   2.874  17.570  0.00  0.00    +0.000 NA
ATOM     18  C   UNL     1      47.993   2.926  17.287  0.00  0.00    +0.000 C 
ENDBRANCH  12  18
ENDBRANCH   8  16
ENDBRANCH   7  10
ENDBRANCH   1   7
BRANCH   4  19
ATOM     19  C   UNL     1      48.075   8.462  11.792  0.00  0.00    +0.000 C 
BRANCH  19  20
ATOM     20  N   UNL     1      47.414   7.292  11.265  0.00  0.00    +0.000 N 
ATOM     21  C   UNL     1      46.075   7.055  11.455  0.00  0.00    +0.000 C 
ATOM     22  O   UNL     1      45.335   7.820  12.070  0.00  0.00    +0.000 OA
ATOM     23  H   UNL     1      47.995   6.470  11.136  0.00  0.00    +0.000 HD
BRANCH  21  24
ATOM     24  C   UNL     1      45.566   5.832  10.815  0.00  0.00    +0.000 A 
ATOM     25  C   UNL     1      45.788   5.590   9.467  0.00  0.00    +0.000 A 
ATOM     26  S   UNL     1      45.149   4.098   8.932  0.00  0.00    +0.000 S 
ATOM     27  C   UNL     1      44.520   3.746  10.473  0.00  0.00    +0.000 A 
ATOM     28  N   UNL     1      43.815   2.606  10.705  0.00  0.00    +0.000 NA
ATOM     29  C   UNL     1      43.371   2.490  11.913  0.00  0.00    +0.000 A 
ATOM     30  N   UNL     1      43.573   3.405  12.913  0.00  0.00    +0.000 N 
ATOM     31  C   UNL     1      44.330   4.534  12.740  0.00  0.00    +0.000 A 
ATOM     32  O   UNL     1      44.586   5.284  13.677  0.00  0.00    +0.000 OA
ATOM     33  C   UNL     1      44.816   4.737  11.388  0.00  0.00    +0.000 A 
ATOM     34  H   UNL     1      43.225   3.238  13.846  0.00  0.00    +0.000 HD
ENDBRANCH  21  24
ENDBRANCH  19  20
ENDBRANCH   4  19
TORSDOF 7
ENDMDL
MODEL 3
REMARK VINA RESULT:    -6.783      2.948      9.325
REMARK INTER + INTRA:         -10.716
REMARK INTER:                  -9.830
REMARK INTRA:                  -0.885
REMARK UNBOUND:                -1.158
REMARK  Name = 
REMARK  7 active torsions:
REMARK  status: ('A' for Active; 'I' for Inactive)
REMARK    1  A    between atoms: C_2  and  C_3
REMARK    2  A    between atoms: C_7  and  C_8
REMARK    3  A    between atoms: N_10  and  C_11
REMARK    4  A    between atoms: C_11  and  C_12
REMARK    5  A    between atoms: C_15  and  C_16
REMARK    6  A    between atoms: C_16  and  N_17
REMARK    7  A    between atoms: C_18  and  C_20
REMARK                            x       y       z     vdW  Elec       q    Type
REMARK                         _______ _______ _______ _____ _____    ______ ____
ROOT
ATOM      1  C   UNL     1      45.268   4.325  11.845  0.00  0.00    +0.000 A 
ATOM      2  C   UNL     1      45.610   5.561  11.307  0.00  0.00    +0.000 A 
ATOM      3  C   UNL     1      46.603   6.329  11.930  0.00  0.00    +0.000 A 
ATOM      4  C   UNL     1      47.241   5.859  13.082  0.00  0.00    +0.000 A 
ATOM      5  C   UNL     1      46.827   4.614  13.546  0.00  0.00    +0.000 A 
ATOM      6  N   UNL     1      45.881   3.838  12.951  0.00  0.00    +0.000 NA
ENDROOT
BRANCH   1   7
ATOM      7  C   UNL     1      44.214   3.468  11.177  0.00  0.00    +0.000 C 
BRANCH   7  10
ATOM      8  C   UNL     1      44.759   3.001   8.830  0.00  0.00    +0.000 C 
ATOM      9  O   UNL     1      44.289   4.065   8.471  0.00  0.00    +0.000 OA
ATOM     10  N   UNL     1      44.765   2.593  10.152  0.00  0.00    +0.000 N 
ATOM     11  H   UNL     1      44.793   1.605  10.366  0.00  0.00    +0.000 HD
BRANCH   8  16
ATOM     12  C   UNL     1      46.856   2.453   7.488  0.00  0.00    +0.000 C 
ATOM     13  C   UNL     1      47.531   1.166   7.023  0.00  0.00    +0.000 C 
ATOM     14  C   UNL     1      46.757   0.022   7.676  0.00  0.00    +0.000 C 
ATOM     15  C   UNL     1      45.643   0.659   8.497  0.00  0.00    +0.000 C 
ATOM     16  C   UNL     1      45.421   2.025   7.859  0.00  0.00    +0.000 C 
BRANCH  12  18
ATOM     17  N   UNL     1      46.769   4.362   5.467  0.00  0.00    +0.000 NA
ATOM     18  C   UNL     1      46.808   3.496   6.383  0.00  0.00    +0.000 C 
ENDBRANCH  12  18
ENDBRANCH   8  16
ENDBRANCH   7  10
ENDBRANCH   1   7
BRANCH   4  19
ATOM     19  C   UNL     1      48.324   6.616  13.811  0.00  0.00    +0.000 C 
BRANCH  19  20
ATOM     20  N   UNL     1      48.089   6.729  15.231  0.00  0.00    +0.000 N 
ATOM     21  C   UNL     1      49.089   6.571  16.158  0.00  0.00    +0.000 C 
ATOM     22  O   UNL     1      50.258   6.339  15.856  0.00  0.00    +0.000 OA
ATOM     23  H   UNL     1      47.152   6.501  15.548  0.00  0.00    +0.000 HD
BRANCH  21  24
ATOM     24  C   UNL     1      48.672   6.757  17.556  0.00  0.00    +0.000 A 
ATOM     25  C   UNL     1      48.279   8.004  18.021  0.00  0.00    +0.000 A 
ATOM     26  S   UNL     1      47.796   7.996  19.659  0.00  0.00    +0.000 S 
ATOM     27  C   UNL     1      48.136   6.336  19.814  0.00  0.00    +0.000 A 
ATOM     28  N   UNL     1      47.967   5.687  20.997  0.00  0.00    +0.000 NA
ATOM     29  C   UNL     1      48.297   4.438  20.973  0.00  0.00    +0.000 A 
ATOM     30  N   UNL     1      48.774   3.775  19.872  0.00  0.00    +0.000 N 
ATOM     31  C   UNL     1      48.898   4.374  18.645  0.00  0.00    +0.000 A 
ATOM     32  O   UNL     1      49.225   3.734  17.650  0.00  0.00    +0.000 OA
ATOM     33  C   UNL     1      48.584   5.790  18.627  0.00  0.00    +0.000 A 
ATOM     34  H   UNL     1      48.983   2.788  19.911  0.00  0.00    +0.000 HD
ENDBRANCH  21  24
ENDBRANCH  19  20
ENDBRANCH   4  19
TORSDOF 7
ENDMDL
MODEL 4
REMARK VINA RESULT:    -6.514      3.302      8.989
REMARK INTER + INTRA:         -10.337
REMARK INTER:                  -9.270
REMARK INTRA:                  -1.067
REMARK UNBOUND:                -1.158
REMARK  Name = 
REMARK  7 active torsions:
REMARK  status: ('A' for Active; 'I' for Inactive)
REMARK    1  A    between atoms: C_2  and  C_3
REMARK    2  A    between atoms: C_7  and  C_8
REMARK    3  A    between atoms: N_10  and  C_11
REMARK    4  A    between atoms: C_11  and  C_12
REMARK    5  A    between atoms: C_15  and  C_16
REMARK    6  A    between atoms: C_16  and  N_17
REMARK    7  A    between atoms: C_18  and  C_20
REMARK                            x       y       z     vdW  Elec       q    Type
REMARK                         _______ _______ _______ _____ _____    ______ ____
ROOT
ATOM      1  C   UNL     1      48.015   6.483  14.225  0.00  0.00    +0.000 A 
ATOM      2  C   UNL     1      48.553   7.605  14.846  0.00  0.00    +0.000 A 
ATOM      3  C   UNL     1      48.910   7.536  16.199  0.00  0.00    +0.000 A 
ATOM      4  C   UNL     1      48.726   6.350  16.918  0.00  0.00    +0.000 A 
ATOM      5  C   UNL     1      48.179   5.285  16.212  0.00  0.00    +0.000 A 
ATOM      6  N   UNL     1      47.841   5.317  14.894  0.00  0.00    +0.000 NA
ENDROOT
BRANCH   1   7
ATOM      7  C   UNL     1      47.642   6.528  12.759  0.00  0.00    +0.000 C 
BRANCH   7  10
ATOM      8  C   UNL     1      45.467   6.066  11.722  0.00  0.00    +0.000 C 
ATOM      9  O   UNL     1      45.338   7.228  11.387  0.00  0.00    +0.000 OA
ATOM     10  N   UNL     1      46.569   5.605  12.421  0.00  0.00    +0.000 N 
ATOM     11  H   UNL     1      46.479   4.781  13.001  0.00  0.00    +0.000 HD
BRANCH   8  16
ATOM     12  C   UNL     1      45.077   3.786  10.650  0.00  0.00    +0.000 C 
ATOM     13  C   UNL     1      44.101   2.637  10.888  0.00  0.00    +0.000 C 
ATOM     14  C   UNL     1      43.325   2.995  12.154  0.00  0.00    +0.000 C 
ATOM     15  C   UNL     1      43.852   4.345  12.622  0.00  0.00    +0.000 C 
ATOM     16  C   UNL     1      44.439   4.991  11.373  0.00  0.00    +0.000 C 
BRANCH  12  18
ATOM     17  N   UNL     1      45.352   4.362   7.942  0.00  0.00    +0.000 NA
ATOM     18  C   UNL     1      45.227   4.101   9.170  0.00  0.00    +0.000 C 
ENDBRANCH  12  18
ENDBRANCH   8  16
ENDBRANCH   7  10
ENDBRANCH   1   7
BRANCH   4  19
ATOM     19  C   UNL     1      49.090   6.185  18.374  0.00  0.00    +0.000 C 
BRANCH  19  20
ATOM     20  N   UNL     1      50.143   5.224  18.596  0.00  0.00    +0.000 N 
ATOM     21  C   UNL     1      51.447   5.463  18.237  0.00  0.00    +0.000 C 
ATOM     22  O   UNL     1      51.822   6.512  17.718  0.00  0.00    +0.000 OA
ATOM     23  H   UNL     1      49.861   4.249  18.614  0.00  0.00    +0.000 HD
BRANCH  21  24
ATOM     24  C   UNL     1      52.390   4.385  18.573  0.00  0.00    +0.000 A 
ATOM     25  C   UNL     1      53.516   4.640  19.342  0.00  0.00    +0.000 A 
ATOM     26  S   UNL     1      54.456   3.247  19.651  0.00  0.00    +0.000 S 
ATOM     27  C   UNL     1      53.412   2.266  18.733  0.00  0.00    +0.000 A 
ATOM     28  N   UNL     1      53.658   0.939  18.561  0.00  0.00    +0.000 NA
ATOM     29  C   UNL     1      52.799   0.329  17.813  0.00  0.00    +0.000 A 
ATOM     30  N   UNL     1      51.711   0.922  17.227  0.00  0.00    +0.000 N 
ATOM     31  C   UNL     1      51.390   2.240  17.427  0.00  0.00    +0.000 A 
ATOM     32  O   UNL     1      50.353   2.721  16.980  0.00  0.00    +0.000 OA
ATOM     33  C   UNL     1      52.348   2.983  18.223  0.00  0.00    +0.000 A 
ATOM     34  H   UNL     1      51.058   0.380  16.680  0.00  0.00    +0.000 HD
ENDBRANCH  21  24
ENDBRANCH  19  20
ENDBRANCH   4  19
TORSDOF 7
ENDMDL
MODEL 5
REMARK VINA RESULT:    -6.335      3.327      8.309
REMARK INTER + INTRA:         -10.085
REMARK INTER:                  -8.938
REMARK INTRA:                  -1.147
REMARK UNBOUND:                -1.158
REMARK  Name = 
REMARK  7 active torsions:
REMARK  status: ('A' for Active; 'I' for Inactive)
REMARK    1  A    between atoms: C_2  and  C_3
REMARK    2  A    between atoms: C_7  and  C_8
REMARK    3  A    between atoms: N_10  and  C_11
REMARK    4  A    between atoms: C_11  and  C_12
REMARK    5  A    between atoms: C_15  and  C_16
REMARK    6  A    between atoms: C_16  and  N_17
REMARK    7  A    between atoms: C_18  and  C_20
REMARK                            x       y       z     vdW  Elec       q    Type
REMARK                         _______ _______ _______ _____ _____    ______ ____
ROOT
ATOM      1  C   UNL     1      48.793   8.073  13.407  0.00  0.00    +0.000 A 
ATOM      2  C   UNL     1      48.808   9.306  14.051  0.00  0.00    +0.000 A 
ATOM      3  C   UNL     1      49.347   9.399  15.341  0.00  0.00    +0.000 A 
ATOM      4  C   UNL     1      49.862   8.265  15.975  0.00  0.00    +0.000 A 
ATOM      5  C   UNL     1      49.799   7.078  15.253  0.00  0.00    +0.000 A 
ATOM      6  N   UNL     1      49.301   6.960  13.992  0.00  0.00    +0.000 NA
ENDROOT
BRANCH   1   7
ATOM      7  C   UNL     1      48.236   7.951  12.005  0.00  0.00    +0.000 C 
BRANCH   7  10
ATOM      8  C   UNL     1      46.108   6.730  12.017  0.00  0.00    +0.000 C 
ATOM      9  O   UNL     1      45.501   7.716  12.390  0.00  0.00    +0.000 OA
ATOM     10  N   UNL     1      47.475   6.726  11.804  0.00  0.00    +0.000 N 
ATOM     11  H   UNL     1      47.987   5.858  11.878  0.00  0.00    +0.000 HD
BRANCH   8  16
ATOM     12  C   UNL     1      45.041   4.632  12.996  0.00  0.00    +0.000 C 
ATOM     13  C   UNL     1      43.915   3.696  12.566  0.00  0.00    +0.000 C 
ATOM     14  C   UNL     1      43.283   4.332  11.330  0.00  0.00    +0.000 C 
ATOM     15  C   UNL     1      44.055   5.617  11.056  0.00  0.00    +0.000 C 
ATOM     16  C   UNL     1      45.413   5.404  11.713  0.00  0.00    +0.000 C 
BRANCH  12  18
ATOM     17  N   UNL     1      47.257   3.228  13.918  0.00  0.00    +0.000 NA
ATOM     18  C   UNL     1      46.252   3.865  13.500  0.00  0.00    +0.000 C 
ENDBRANCH  12  18
ENDBRANCH   8  16
ENDBRANCH   7  10
ENDBRANCH   1   7
BRANCH   4  19
ATOM     19  C   UNL     1      50.468   8.278  17.358  0.00  0.00    +0.000 C 
BRANCH  19  20
ATOM     20  N   UNL     1      51.245   7.098  17.654  0.00  0.00    +0.000 N 
ATOM     21  C   UNL     1      50.820   6.138  18.538  0.00  0.00    +0.000 C 
ATOM     22  O   UNL     1      49.744   6.197  19.132  0.00  0.00    +0.000 OA
ATOM     23  H   UNL     1      52.251   7.188  17.548  0.00  0.00    +0.000 HD
BRANCH  21  24
ATOM     24  C   UNL     1      51.725   4.988  18.688  0.00  0.00    +0.000 A 
ATOM     25  C   UNL     1      52.903   5.100  19.412  0.00  0.00    +0.000 A 
ATOM     26  S   UNL     1      53.788   3.641  19.497  0.00  0.00    +0.000 S 
ATOM     27  C   UNL     1      52.648   2.823  18.536  0.00  0.00    +0.000 A 
ATOM     28  N   UNL     1      52.818   1.518  18.194  0.00  0.00    +0.000 NA
ATOM     29  C   UNL     1      51.889   1.039  17.433  0.00  0.00    +0.000 A 
ATOM     30  N   UNL     1      50.802   1.744  16.988  0.00  0.00    +0.000 N 
ATOM     31  C   UNL     1      50.558   3.041  17.360  0.00  0.00    +0.000 A 
ATOM     32  O   UNL     1      49.524   3.617  17.036  0.00  0.00    +0.000 OA
ATOM     33  C   UNL     1      51.594   3.642  18.178  0.00  0.00    +0.000 A 
ATOM     34  H   UNL     1      50.094   1.301  16.421  0.00  0.00    +0.000 HD
ENDBRANCH  21  24
ENDBRANCH  19  20
ENDBRANCH   4  19
TORSDOF 7
ENDMDL
MODEL 6
REMARK VINA RESULT:    -6.318      3.120      9.333
REMARK INTER + INTRA:         -10.061
REMARK INTER:                  -9.361
REMARK INTRA:                  -0.700
REMARK UNBOUND:                -1.158
REMARK  Name = 
REMARK  7 active torsions:
REMARK  status: ('A' for Active; 'I' for Inactive)
REMARK    1  A    between atoms: C_2  and  C_3
REMARK    2  A    between atoms: C_7  and  C_8
REMARK    3  A    between atoms: N_10  and  C_11
REMARK    4  A    between atoms: C_11  and  C_12
REMARK    5  A    between atoms: C_15  and  C_16
REMARK    6  A    between atoms: C_16  and  N_17
REMARK    7  A    between atoms: C_18  and  C_20
REMARK                            x       y       z     vdW  Elec       q    Type
REMARK                         _______ _______ _______ _____ _____    ______ ____
ROOT
ATOM      1  C   UNL     1      45.089   5.606  11.665  0.00  0.00    +0.000 A 
ATOM      2  C   UNL     1      45.616   6.892  11.625  0.00  0.00    +0.000 A 
ATOM      3  C   UNL     1      46.727   7.203  12.421  0.00  0.00    +0.000 A 
ATOM      4  C   UNL     1      47.298   6.230  13.248  0.00  0.00    +0.000 A 
ATOM      5  C   UNL     1      46.698   4.976  13.221  0.00  0.00    +0.000 A 
ATOM      6  N   UNL     1      45.632   4.639  12.445  0.00  0.00    +0.000 NA
ENDROOT
BRANCH   1   7
ATOM      7  C   UNL     1      43.903   5.242  10.798  0.00  0.00    +0.000 C 
BRANCH   7  10
ATOM      8  C   UNL     1      45.028   4.186   8.890  0.00  0.00    +0.000 C 
ATOM      9  O   UNL     1      45.590   5.225   8.599  0.00  0.00    +0.000 OA
ATOM     10  N   UNL     1      44.154   4.080   9.958  0.00  0.00    +0.000 N 
ATOM     11  H   UNL     1      43.438   3.367   9.944  0.00  0.00    +0.000 HD
BRANCH   8  16
ATOM     12  C   UNL     1      46.693   2.777   7.571  0.00  0.00    +0.000 C 
ATOM     13  C   UNL     1      46.913   1.281   7.365  0.00  0.00    +0.000 C 
ATOM     14  C   UNL     1      45.942   0.576   8.310  0.00  0.00    +0.000 C 
ATOM     15  C   UNL     1      45.169   1.668   9.037  0.00  0.00    +0.000 C 
ATOM     16  C   UNL     1      45.257   2.885   8.123  0.00  0.00    +0.000 C 
BRANCH  12  18
ATOM     17  N   UNL     1      46.882   4.187   5.181  0.00  0.00    +0.000 NA
ATOM     18  C   UNL     1      46.796   3.547   6.264  0.00  0.00    +0.000 C 
ENDBRANCH  12  18
ENDBRANCH   8  16
ENDBRANCH   7  10
ENDBRANCH   1   7
BRANCH   4  19
ATOM     19  C   UNL     1      48.498   6.476  14.129  0.00  0.00    +0.000 C 
BRANCH  19  20
ATOM     20  N   UNL     1      48.166   6.597  15.529  0.00  0.00    +0.000 N 
ATOM     21  C   UNL     1      49.008   6.170  16.526  0.00  0.00    +0.000 C 
ATOM     22  O   UNL     1      50.111   5.670  16.309  0.00  0.00    +0.000 OA
ATOM     23  H   UNL     1      47.177   6.596  15.755  0.00  0.00    +0.000 HD
BRANCH  21  24
ATOM     24  C   UNL     1      48.521   6.408  17.893  0.00  0.00    +0.000 A 
ATOM     25  C   UNL     1      48.402   5.362  18.797  0.00  0.00    +0.000 A 
ATOM     26  S   UNL     1      47.858   5.856  20.338  0.00  0.00    +0.000 S 
ATOM     27  C   UNL     1      47.724   7.477  19.838  0.00  0.00    +0.000 A 
ATOM     28  N   UNL     1      47.274   8.443  20.683  0.00  0.00    +0.000 NA
ATOM     29  C   UNL     1      47.193   9.620  20.155  0.00  0.00    +0.000 A 
ATOM     30  N   UNL     1      47.528   9.921  18.860  0.00  0.00    +0.000 N 
ATOM     31  C   UNL     1      48.045   8.992  17.995  0.00  0.00    +0.000 A 
ATOM     32  O   UNL     1      48.438   9.308  16.876  0.00  0.00    +0.000 OA
ATOM     33  C   UNL     1      48.115   7.643  18.524  0.00  0.00    +0.000 A 
ATOM     34  H   UNL     1      47.472  10.869  18.518  0.00  0.00    +0.000 HD
ENDBRANCH  21  24
ENDBRANCH  19  20
ENDBRANCH   4  19
TORSDOF 7
ENDMDL
MODEL 7
REMARK VINA RESULT:    -6.256      3.129      4.463
REMARK INTER + INTRA:          -9.974
REMARK INTER:                  -9.061
REMARK INTRA:                  -0.912
REMARK UNBOUND:                -1.158
REMARK  Name = 
REMARK  7 active torsions:
REMARK  status: ('A' for Active; 'I' for Inactive)
REMARK    1  A    between atoms: C_2  and  C_3
REMARK    2  A    between atoms: C_7  and  C_8
REMARK    3  A    between atoms: N_10  and  C_11
REMARK    4  A    between atoms: C_11  and  C_12
REMARK    5  A    between atoms: C_15  and  C_16
REMARK    6  A    between atoms: C_16  and  N_17
REMARK    7  A    between atoms: C_18  and  C_20
REMARK                            x       y       z     vdW  Elec       q    Type
REMARK                         _______ _______ _______ _____ _____    ______ ____
ROOT
ATOM      1  C   UNL     1      50.198   5.227  18.317  0.00  0.00    +0.000 A 
ATOM      2  C   UNL     1      48.982   5.005  17.680  0.00  0.00    +0.000 A 
ATOM      3  C   UNL     1      48.567   5.881  16.669  0.00  0.00    +0.000 A 
ATOM      4  C   UNL     1      49.367   6.969  16.305  0.00  0.00    +0.000 A 
ATOM      5  C   UNL     1      50.563   7.109  17.001  0.00  0.00    +0.000 A 
ATOM      6  N   UNL     1      51.001   6.264  17.973  0.00  0.00    +0.000 NA
ENDROOT
BRANCH   1   7
ATOM      7  C   UNL     1      50.677   4.281  19.398  0.00  0.00    +0.000 C 
BRANCH   7  10
ATOM      8  C   UNL     1      52.327   2.847  18.283  0.00  0.00    +0.000 C 
ATOM      9  O   UNL     1      51.460   2.287  17.639  0.00  0.00    +0.000 OA
ATOM     10  N   UNL     1      52.052   3.848  19.199  0.00  0.00    +0.000 N 
ATOM     11  H   UNL     1      52.694   4.011  19.963  0.00  0.00    +0.000 HD
BRANCH   8  16
ATOM     12  C   UNL     1      54.042   1.255  17.274  0.00  0.00    +0.000 C 
ATOM     13  C   UNL     1      55.467   1.399  16.748  0.00  0.00    +0.000 C 
ATOM     14  C   UNL     1      55.775   2.895  16.763  0.00  0.00    +0.000 C 
ATOM     15  C   UNL     1      54.533   3.592  17.306  0.00  0.00    +0.000 C 
ATOM     16  C   UNL     1      53.811   2.524  18.119  0.00  0.00    +0.000 C 
BRANCH  12  18
ATOM     17  N   UNL     1      53.758  -1.000  18.878  0.00  0.00    +0.000 NA
ATOM     18  C   UNL     1      53.887   0.023  18.151  0.00  0.00    +0.000 C 
ENDBRANCH  12  18
ENDBRANCH   8  16
ENDBRANCH   7  10
ENDBRANCH   1   7
BRANCH   4  19
ATOM     19  C   UNL     1      49.002   7.955  15.222  0.00  0.00    +0.000 C 
BRANCH  19  20
ATOM     20  N   UNL     1      47.844   7.561  14.454  0.00  0.00    +0.000 N 
ATOM     21  C   UNL     1      47.936   6.761  13.342  0.00  0.00    +0.000 C 
ATOM     22  O   UNL     1      48.999   6.306  12.924  0.00  0.00    +0.000 OA
ATOM     23  H   UNL     1      47.055   8.198  14.477  0.00  0.00    +0.000 HD
BRANCH  21  24
ATOM     24  C   UNL     1      46.650   6.432  12.708  0.00  0.00    +0.000 A 
ATOM     25  C   UNL     1      45.889   7.415  12.093  0.00  0.00    +0.000 A 
ATOM     26  S   UNL     1      44.454   6.818  11.385  0.00  0.00    +0.000 S 
ATOM     27  C   UNL     1      44.782   5.234  11.911  0.00  0.00    +0.000 A 
ATOM     28  N   UNL     1      43.920   4.212  11.659  0.00  0.00    +0.000 NA
ATOM     29  C   UNL     1      44.284   3.073  12.149  0.00  0.00    +0.000 A 
ATOM     30  N   UNL     1      45.435   2.859  12.861  0.00  0.00    +0.000 N 
ATOM     31  C   UNL     1      46.362   3.845  13.082  0.00  0.00    +0.000 A 
ATOM     32  O   UNL     1      47.434   3.605  13.629  0.00  0.00    +0.000 OA
ATOM     33  C   UNL     1      45.981   5.156  12.592  0.00  0.00    +0.000 A 
ATOM     34  H   UNL     1      45.677   1.935  13.189  0.00  0.00    +0.000 HD
ENDBRANCH  21  24
ENDBRANCH  19  20
ENDBRANCH   4  19
TORSDOF 7
ENDMDL
MODEL 8
REMARK VINA RESULT:    -6.054      3.185      9.335
REMARK INTER + INTRA:          -9.688
REMARK INTER:                  -8.902
REMARK INTRA:                  -0.786
REMARK UNBOUND:                -1.158
REMARK  Name = 
REMARK  7 active torsions:
REMARK  status: ('A' for Active; 'I' for Inactive)
REMARK    1  A    between atoms: C_2  and  C_3
REMARK    2  A    between atoms: C_7  and  C_8
REMARK    3  A    between atoms: N_10  and  C_11
REMARK    4  A    between atoms: C_11  and  C_12
REMARK    5  A    between atoms: C_15  and  C_16
REMARK    6  A    between atoms: C_16  and  N_17
REMARK    7  A    between atoms: C_18  and  C_20
REMARK                            x       y       z     vdW  Elec       q    Type
REMARK                         _______ _______ _______ _____ _____    ______ ____
ROOT
ATOM      1  C   UNL     1      47.236   5.566  14.027  0.00  0.00    +0.000 A 
ATOM      2  C   UNL     1      48.178   6.251  14.786  0.00  0.00    +0.000 A 
ATOM      3  C   UNL     1      48.528   5.761  16.051  0.00  0.00    +0.000 A 
ATOM      4  C   UNL     1      47.934   4.596  16.547  0.00  0.00    +0.000 A 
ATOM      5  C   UNL     1      47.000   3.985  15.716  0.00  0.00    +0.000 A 
ATOM      6  N   UNL     1      46.656   4.426  14.476  0.00  0.00    +0.000 NA
ENDROOT
BRANCH   1   7
ATOM      7  C   UNL     1      46.858   6.065  12.649  0.00  0.00    +0.000 C 
BRANCH   7  10
ATOM      8  C   UNL     1      45.757   5.328  10.584  0.00  0.00    +0.000 C 
ATOM      9  O   UNL     1      46.245   6.247   9.952  0.00  0.00    +0.000 OA
ATOM     10  N   UNL     1      45.983   5.146  11.937  0.00  0.00    +0.000 N 
ATOM     11  H   UNL     1      45.299   4.649  12.491  0.00  0.00    +0.000 HD
BRANCH   8  16
ATOM     12  C   UNL     1      45.698   3.179   9.214  0.00  0.00    +0.000 C 
ATOM     13  C   UNL     1      44.765   1.973   9.142  0.00  0.00    +0.000 C 
ATOM     14  C   UNL     1      43.757   2.148  10.276  0.00  0.00    +0.000 C 
ATOM     15  C   UNL     1      44.112   3.453  10.978  0.00  0.00    +0.000 C 
ATOM     16  C   UNL     1      44.873   4.264   9.936  0.00  0.00    +0.000 C 
BRANCH  12  18
ATOM     17  N   UNL     1      46.415   4.082   6.683  0.00  0.00    +0.000 NA
ATOM     18  C   UNL     1      46.090   3.673   7.831  0.00  0.00    +0.000 C 
ENDBRANCH  12  18
ENDBRANCH   8  16
ENDBRANCH   7  10
ENDBRANCH   1   7
BRANCH   4  19
ATOM     19  C   UNL     1      48.257   3.995  17.892  0.00  0.00    +0.000 C 
BRANCH  19  20
ATOM     20  N   UNL     1      49.635   3.583  18.019  0.00  0.00    +0.000 N 
ATOM     21  C   UNL     1      50.162   2.540  17.298  0.00  0.00    +0.000 C 
ATOM     22  O   UNL     1      49.513   1.890  16.481  0.00  0.00    +0.000 OA
ATOM     23  H   UNL     1      50.076   3.769  18.915  0.00  0.00    +0.000 HD
BRANCH  21  24
ATOM     24  C   UNL     1      51.592   2.286  17.530  0.00  0.00    +0.000 A 
ATOM     25  C   UNL     1      52.072   0.990  17.660  0.00  0.00    +0.000 A 
ATOM     26  S   UNL     1      53.763   0.913  17.883  0.00  0.00    +0.000 S 
ATOM     27  C   UNL     1      53.905   2.608  17.854  0.00  0.00    +0.000 A 
ATOM     28  N   UNL     1      55.108   3.220  18.023  0.00  0.00    +0.000 NA
ATOM     29  C   UNL     1      55.057   4.511  18.012  0.00  0.00    +0.000 A 
ATOM     30  N   UNL     1      53.915   5.248  17.839  0.00  0.00    +0.000 N 
ATOM     31  C   UNL     1      52.693   4.673  17.602  0.00  0.00    +0.000 A 
ATOM     32  O   UNL     1      51.705   5.353  17.344  0.00  0.00    +0.000 OA
ATOM     33  C   UNL     1      52.686   3.223  17.650  0.00  0.00    +0.000 A 
ATOM     34  H   UNL     1      53.948   6.256  17.808  0.00  0.00    +0.000 HD
ENDBRANCH  21  24
ENDBRANCH  19  20
ENDBRANCH   4  19
TORSDOF 7
ENDMDL
MODEL 9
REMARK VINA RESULT:    -6.039      4.154      5.856
REMARK INTER + INTRA:          -9.667
REMARK INTER:                  -9.012
REMARK INTRA:                  -0.656
REMARK UNBOUND:                -1.158
REMARK  Name = 
REMARK  7 active torsions:
REMARK  status: ('A' for Active; 'I' for Inactive)
REMARK    1  A    between atoms: C_2  and  C_3
REMARK    2  A    between atoms: C_7  and  C_8
REMARK    3  A    between atoms: N_10  and  C_11
REMARK    4  A    between atoms: C_11  and  C_12
REMARK    5  A    between atoms: C_15  and  C_16
REMARK    6  A    between atoms: C_16  and  N_17
REMARK    7  A    between atoms: C_18  and  C_20
REMARK                            x       y       z     vdW  Elec       q    Type
REMARK                         _______ _______ _______ _____ _____    ______ ____
ROOT
ATOM      1  C   UNL     1      50.768   8.441  12.494  0.00  0.00    +0.000 A 
ATOM      2  C   UNL     1      50.032   7.616  11.650  0.00  0.00    +0.000 A 
ATOM      3  C   UNL     1      48.653   7.479  11.856  0.00  0.00    +0.000 A 
ATOM      4  C   UNL     1      48.024   8.164  12.900  0.00  0.00    +0.000 A 
ATOM      5  C   UNL     1      48.844   8.961  13.691  0.00  0.00    +0.000 A 
ATOM      6  N   UNL     1      50.181   9.129  13.504  0.00  0.00    +0.000 NA
ENDROOT
BRANCH   1   7
ATOM      7  C   UNL     1      52.255   8.621  12.277  0.00  0.00    +0.000 C 
BRANCH   7  10
ATOM      8  C   UNL     1      53.318   8.412  10.076  0.00  0.00    +0.000 C 
ATOM      9  O   UNL     1      53.372   9.620   9.945  0.00  0.00    +0.000 OA
ATOM     10  N   UNL     1      52.771   7.802  11.190  0.00  0.00    +0.000 N 
ATOM     11  H   UNL     1      52.395   6.867  11.110  0.00  0.00    +0.000 HD
BRANCH   8  16
ATOM     12  C   UNL     1      53.424   5.993   9.276  0.00  0.00    +0.000 C 
ATOM     13  C   UNL     1      53.572   5.314   7.918  0.00  0.00    +0.000 C 
ATOM     14  C   UNL     1      53.501   6.428   6.876  0.00  0.00    +0.000 C 
ATOM     15  C   UNL     1      53.326   7.733   7.643  0.00  0.00    +0.000 C 
ATOM     16  C   UNL     1      53.881   7.447   9.033  0.00  0.00    +0.000 C 
BRANCH  12  18
ATOM     17  N   UNL     1      55.048   4.815  11.203  0.00  0.00    +0.000 NA
ATOM     18  C   UNL     1      54.311   5.349  10.329  0.00  0.00    +0.000 C 
ENDBRANCH  12  18
ENDBRANCH   8  16
ENDBRANCH   7  10
ENDBRANCH   1   7
BRANCH   4  19
ATOM     19  C   UNL     1      46.544   8.081  13.188  0.00  0.00    +0.000 C 
BRANCH  19  20
ATOM     20  N   UNL     1      45.965   6.804  12.845  0.00  0.00    +0.000 N 
ATOM     21  C   UNL     1      45.033   6.662  11.847  0.00  0.00    +0.000 C 
ATOM     22  O   UNL     1      44.632   7.600  11.160  0.00  0.00    +0.000 OA
ATOM     23  H   UNL     1      45.921   6.118  13.592  0.00  0.00    +0.000 HD
BRANCH  21  24
ATOM     24  C   UNL     1      44.581   5.282  11.613  0.00  0.00    +0.000 A 
ATOM     25  C   UNL     1      43.835   4.606  12.569  0.00  0.00    +0.000 A 
ATOM     26  S   UNL     1      43.377   3.033  12.084  0.00  0.00    +0.000 S 
ATOM     27  C   UNL     1      44.195   3.187  10.600  0.00  0.00    +0.000 A 
ATOM     28  N   UNL     1      44.227   2.167   9.701  0.00  0.00    +0.000 NA
ATOM     29  C   UNL     1      44.912   2.416   8.635  0.00  0.00    +0.000 A 
ATOM     30  N   UNL     1      45.563   3.595   8.380  0.00  0.00    +0.000 N 
ATOM     31  C   UNL     1      45.504   4.670   9.228  0.00  0.00    +0.000 A 
ATOM     32  O   UNL     1      46.005   5.750   8.929  0.00  0.00    +0.000 OA
ATOM     33  C   UNL     1      44.783   4.429  10.464  0.00  0.00    +0.000 A 
ATOM     34  H   UNL     1      46.056   3.737   7.510  0.00  0.00    +0.000 HD
ENDBRANCH  21  24
ENDBRANCH  19  20
ENDBRANCH   4  19
TORSDOF 7
ENDMDL
