MODEL 1
REMARK VINA RESULT:    -7.300      0.000      0.000
REMARK INTER + INTRA:         -10.898
REMARK INTER:                  -9.861
REMARK INTRA:                  -1.037
REMARK UNBOUND:                -1.037
REMARK  Name = 
REMARK  7 active torsions:
REMARK  status: ('A' for Active; 'I' for Inactive)
REMARK    1  A    between atoms: C_1  and  C_2
REMARK    2  A    between atoms: C_2  and  N_3
REMARK    3  A    between atoms: C_2  and  C_16
REMARK    4  A    between atoms: C_4  and  C_6
REMARK    5  A    between atoms: C_19  and  C_20
REMARK    6  A    between atoms: C_20  and  N_21
REMARK    7  A    between atoms: C_22  and  C_24
REMARK                            x       y       z     vdW  Elec       q    Type
REMARK                         _______ _______ _______ _____ _____    ______ ____
ROOT
ATOM      1  C   UNL     1      47.934   7.776  13.654  0.00  0.00    +0.000 A 
ATOM      2  C   UNL     1      47.928   9.025  14.283  0.00  0.00    +0.000 A 
ATOM      3  C   UNL     1      48.299   9.136  15.624  0.00  0.00    +0.000 A 
ATOM      4  C   UNL     1      48.680   7.989  16.316  0.00  0.00    +0.000 A 
ATOM      5  N   UNL     1      48.677   6.762  15.738  0.00  0.00    +0.000 NA
ATOM      6  C   UNL     1      48.329   6.689  14.431  0.00  0.00    +0.000 A 
ENDROOT
BRANCH   1   8
ATOM      7  C   UNL     1      48.939   7.738  11.390  0.00  0.00    +0.000 C 
ATOM      8  C   UNL     1      47.623   7.649  12.175  0.00  0.00    +0.000 C 
BRANCH   8   9
ATOM      9  N   UNL     1      46.874   6.431  11.880  0.00  0.00    +0.000 N 
ATOM     10  C   UNL     1      45.500   6.424  11.819  0.00  0.00    +0.000 C 
ATOM     11  O   UNL     1      44.826   7.442  11.965  0.00  0.00    +0.000 OA
ATOM     12  H   UNL     1      47.323   5.549  12.107  0.00  0.00    +0.000 HD
BRANCH  10  13
ATOM     13  C   UNL     1      44.854   5.145  11.513  0.00  0.00    +0.000 A 
ATOM     14  C   UNL     1      44.066   4.533  12.479  0.00  0.00    +0.000 A 
ATOM     15  S   UNL     1      43.422   3.034  11.989  0.00  0.00    +0.000 S 
ATOM     16  C   UNL     1      44.200   3.135  10.479  0.00  0.00    +0.000 A 
ATOM     17  N   UNL     1      44.109   2.121   9.579  0.00  0.00    +0.000 NA
ATOM     18  C   UNL     1      44.775   2.317   8.487  0.00  0.00    +0.000 A 
ATOM     19  N   UNL     1      45.500   3.448   8.208  0.00  0.00    +0.000 N 
ATOM     20  C   UNL     1      45.578   4.517   9.068  0.00  0.00    +0.000 A 
ATOM     21  O   UNL     1      46.158   5.554   8.762  0.00  0.00    +0.000 OA
ATOM     22  C   UNL     1      44.896   4.322  10.331  0.00  0.00    +0.000 A 
ATOM     23  H   UNL     1      45.969   3.550   7.320  0.00  0.00    +0.000 HD
ENDBRANCH  10  13
ENDBRANCH   8   9
ENDBRANCH   1   8
BRANCH   4  24
ATOM     24  C   UNL     1      49.133   8.070  17.756  0.00  0.00    +0.000 C 
BRANCH  24  25
ATOM     25  N   UNL     1      49.125   6.786  18.426  0.00  0.00    +0.000 N 
ATOM     26  C   UNL     1      50.282   6.060  18.602  0.00  0.00    +0.000 C 
ATOM     27  O   UNL     1      51.360   6.443  18.148  0.00  0.00    +0.000 OA
ATOM     28  H   UNL     1      48.353   6.610  19.051  0.00  0.00    +0.000 HD
BRANCH  26  29
ATOM     29  C   UNL     1      50.121   4.687  19.304  0.00  0.00    +0.000 C 
ATOM     30  C   UNL     1      48.719   4.110  19.077  0.00  0.00    +0.000 C 
ATOM     31  C   UNL     1      48.548   3.641  17.634  0.00  0.00    +0.000 C 
ATOM     32  C   UNL     1      49.650   2.654  17.260  0.00  0.00    +0.000 C 
ATOM     33  C   UNL     1      51.041   3.204  17.569  0.00  0.00    +0.000 C 
ATOM     34  N   UNL     1      51.152   3.690  18.940  0.00  0.00    +0.000 NA
ATOM     35  H   UNL     1      52.085   4.021  19.169  0.00  0.00    +0.000 HD
ENDBRANCH  26  29
ENDBRANCH  24  25
ENDBRANCH   4  24
TORSDOF 6
ENDMDL
MODEL 2
REMARK VINA RESULT:    -7.185      1.730      2.376
REMARK INTER + INTRA:         -10.743
REMARK INTER:                  -9.706
REMARK INTRA:                  -1.036
REMARK UNBOUND:                -1.037
REMARK  Name = 
REMARK  7 active torsions:
REMARK  status: ('A' for Active; 'I' for Inactive)
REMARK    1  A    between atoms: C_1  and  C_2
REMARK    2  A    between atoms: C_2  and  N_3
REMARK    3  A    between atoms: C_2  and  C_16
REMARK    4  A    between atoms: C_4  and  C_6
REMARK    5  A    between atoms: C_19  and  C_20
REMARK    6  A    between atoms: C_20  and  N_21
REMARK    7  A    between atoms: C_22  and  C_24
REMARK                            x       y       z     vdW  Elec       q    Type
REMARK                         _______ _______ _______ _____ _____    ______ ____
ROOT
ATOM      1  C   UNL     1      48.488   8.043  13.538  0.00  0.00    +0.000 A 
ATOM      2  C   UNL     1      48.997   6.870  14.106  0.00  0.00    +0.000 A 
ATOM      3  C   UNL     1      49.082   6.742  15.493  0.00  0.00    +0.000 A 
ATOM      4  C   UNL     1      48.649   7.794  16.295  0.00  0.00    +0.000 A 
ATOM      5  N   UNL     1      48.169   8.951  15.774  0.00  0.00    +0.000 NA
ATOM      6  C   UNL     1      48.082   9.038  14.424  0.00  0.00    +0.000 A 
ENDROOT
BRANCH   1   8
ATOM      7  C   UNL     1      49.675   8.398  11.394  0.00  0.00    +0.000 C 
ATOM      8  C   UNL     1      48.302   8.163  12.038  0.00  0.00    +0.000 C 
BRANCH   8   9
ATOM      9  N   UNL     1      47.611   7.003  11.481  0.00  0.00    +0.000 N 
ATOM     10  C   UNL     1      46.239   6.946  11.406  0.00  0.00    +0.000 C 
ATOM     11  O   UNL     1      45.518   7.876  11.759  0.00  0.00    +0.000 OA
ATOM     12  H   UNL     1      48.102   6.115  11.519  0.00  0.00    +0.000 HD
BRANCH  10  13
ATOM     13  C   UNL     1      45.654   5.734  10.826  0.00  0.00    +0.000 A 
ATOM     14  C   UNL     1      45.762   5.513   9.459  0.00  0.00    +0.000 A 
ATOM     15  S   UNL     1      44.994   4.086   8.933  0.00  0.00    +0.000 S 
ATOM     16  C   UNL     1      44.463   3.729  10.509  0.00  0.00    +0.000 A 
ATOM     17  N   UNL     1      43.682   2.645  10.753  0.00  0.00    +0.000 NA
ATOM     18  C   UNL     1      43.325   2.512  11.989  0.00  0.00    +0.000 A 
ATOM     19  N   UNL     1      43.704   3.353  13.004  0.00  0.00    +0.000 N 
ATOM     20  C   UNL     1      44.533   4.432  12.812  0.00  0.00    +0.000 A 
ATOM     21  O   UNL     1      44.930   5.119  13.748  0.00  0.00    +0.000 OA
ATOM     22  C   UNL     1      44.913   4.658  11.432  0.00  0.00    +0.000 A 
ATOM     23  H   UNL     1      43.417   3.170  13.955  0.00  0.00    +0.000 HD
ENDBRANCH  10  13
ENDBRANCH   8   9
ENDBRANCH   1   8
BRANCH   4  24
ATOM     24  C   UNL     1      48.681   7.681  17.802  0.00  0.00    +0.000 C 
BRANCH  24  25
ATOM     25  N   UNL     1      49.055   6.361  18.264  0.00  0.00    +0.000 N 
ATOM     26  C   UNL     1      48.115   5.468  18.727  0.00  0.00    +0.000 C 
ATOM     27  O   UNL     1      46.926   5.774  18.823  0.00  0.00    +0.000 OA
ATOM     28  H   UNL     1      49.929   5.995  17.918  0.00  0.00    +0.000 HD
BRANCH  26  29
ATOM     29  C   UNL     1      48.660   4.104  19.223  0.00  0.00    +0.000 C 
ATOM     30  C   UNL     1      48.031   2.941  18.447  0.00  0.00    +0.000 C 
ATOM     31  C   UNL     1      48.566   2.885  17.018  0.00  0.00    +0.000 C 
ATOM     32  C   UNL     1      50.091   2.825  17.022  0.00  0.00    +0.000 C 
ATOM     33  C   UNL     1      50.707   3.937  17.868  0.00  0.00    +0.000 C 
ATOM     34  N   UNL     1      50.135   3.993  19.209  0.00  0.00    +0.000 NA
ATOM     35  H   UNL     1      50.566   4.704  19.794  0.00  0.00    +0.000 HD
ENDBRANCH  26  29
ENDBRANCH  24  25
ENDBRANCH   4  24
TORSDOF 6
ENDMDL
MODEL 3
REMARK VINA RESULT:    -7.095      3.185      9.098
REMARK INTER + INTRA:         -10.621
REMARK INTER:                 -10.073
REMARK INTRA:                  -0.547
REMARK UNBOUND:                -1.037
REMARK  Name = 
REMARK  7 active torsions:
REMARK  status: ('A' for Active; 'I' for Inactive)
REMARK    1  A    between atoms: C_1  and  C_2
REMARK    2  A    between atoms: C_2  and  N_3
REMARK    3  A    between atoms: C_2  and  C_16
REMARK    4  A    between atoms: C_4  and  C_6
REMARK    5  A    between atoms: C_19  and  C_20
REMARK    6  A    between atoms: C_20  and  N_21
REMARK    7  A    between atoms: C_22  and  C_24
REMARK                            x       y       z     vdW  Elec       q    Type
REMARK                         _______ _______ _______ _____ _____    ______ ____
ROOT
ATOM      1  C   UNL     1      48.006   4.550  16.531  0.00  0.00    +0.000 A 
ATOM      2  C   UNL     1      47.152   4.094  15.521  0.00  0.00    +0.000 A 
ATOM      3  C   UNL     1      47.061   4.788  14.314  0.00  0.00    +0.000 A 
ATOM      4  C   UNL     1      47.834   5.931  14.133  0.00  0.00    +0.000 A 
ATOM      5  N   UNL     1      48.657   6.409  15.100  0.00  0.00    +0.000 NA
ATOM      6  C   UNL     1      48.737   5.703  16.254  0.00  0.00    +0.000 A 
ENDROOT
BRANCH   1   8
ATOM      7  C   UNL     1      47.242   2.550  17.776  0.00  0.00    +0.000 C 
ATOM      8  C   UNL     1      48.187   3.759  17.812  0.00  0.00    +0.000 C 
BRANCH   8   9
ATOM      9  N   UNL     1      49.580   3.377  18.022  0.00  0.00    +0.000 N 
ATOM     10  C   UNL     1      50.206   2.451  17.221  0.00  0.00    +0.000 C 
ATOM     11  O   UNL     1      49.648   1.923  16.261  0.00  0.00    +0.000 OA
ATOM     12  H   UNL     1      49.951   3.490  18.961  0.00  0.00    +0.000 HD
BRANCH  10  13
ATOM     13  C   UNL     1      51.607   2.147  17.523  0.00  0.00    +0.000 A 
ATOM     14  C   UNL     1      52.007   0.821  17.631  0.00  0.00    +0.000 A 
ATOM     15  S   UNL     1      53.653   0.633  18.030  0.00  0.00    +0.000 S 
ATOM     16  C   UNL     1      53.881   2.317  18.103  0.00  0.00    +0.000 A 
ATOM     17  N   UNL     1      55.081   2.843  18.461  0.00  0.00    +0.000 NA
ATOM     18  C   UNL     1      55.104   4.136  18.506  0.00  0.00    +0.000 A 
ATOM     19  N   UNL     1      54.041   4.946  18.199  0.00  0.00    +0.000 N 
ATOM     20  C   UNL     1      52.824   4.458  17.785  0.00  0.00    +0.000 A 
ATOM     21  O   UNL     1      51.915   5.202  17.429  0.00  0.00    +0.000 OA
ATOM     22  C   UNL     1      52.730   3.013  17.774  0.00  0.00    +0.000 A 
ATOM     23  H   UNL     1      54.138   5.950  18.222  0.00  0.00    +0.000 HD
ENDBRANCH  10  13
ENDBRANCH   8   9
ENDBRANCH   1   8
BRANCH   4  24
ATOM     24  C   UNL     1      47.801   6.688  12.824  0.00  0.00    +0.000 C 
BRANCH  24  25
ATOM     25  N   UNL     1      46.708   6.286  11.964  0.00  0.00    +0.000 N 
ATOM     26  C   UNL     1      45.464   6.869  12.062  0.00  0.00    +0.000 C 
ATOM     27  O   UNL     1      45.212   7.713  12.922  0.00  0.00    +0.000 OA
ATOM     28  H   UNL     1      46.960   5.849  11.091  0.00  0.00    +0.000 HD
BRANCH  26  29
ATOM     29  C   UNL     1      44.378   6.317  11.103  0.00  0.00    +0.000 C 
ATOM     30  C   UNL     1      44.788   4.957  10.527  0.00  0.00    +0.000 C 
ATOM     31  C   UNL     1      44.714   3.867  11.593  0.00  0.00    +0.000 C 
ATOM     32  C   UNL     1      43.327   3.835  12.228  0.00  0.00    +0.000 C 
ATOM     33  C   UNL     1      42.891   5.213  12.723  0.00  0.00    +0.000 C 
ATOM     34  N   UNL     1      43.023   6.237  11.693  0.00  0.00    +0.000 NA
ATOM     35  H   UNL     1      42.698   7.151  11.999  0.00  0.00    +0.000 HD
ENDBRANCH  26  29
ENDBRANCH  24  25
ENDBRANCH   4  24
TORSDOF 6
ENDMDL
MODEL 4
REMARK VINA RESULT:    -7.079      3.365      9.209
REMARK INTER + INTRA:         -10.600
REMARK INTER:                  -9.702
REMARK INTRA:                  -0.898
REMARK UNBOUND:                -1.037
REMARK  Name = 
REMARK  7 active torsions:
REMARK  status: ('A' for Active; 'I' for Inactive)
REMARK    1  A    between atoms: C_1  and  C_2
REMARK    2  A    between atoms: C_2  and  N_3
REMARK    3  A    between atoms: C_2  and  C_16
REMARK    4  A    between atoms: C_4  and  C_6
REMARK    5  A    between atoms: C_19  and  C_20
REMARK    6  A    between atoms: C_20  and  N_21
REMARK    7  A    between atoms: C_22  and  C_24
REMARK                            x       y       z     vdW  Elec       q    Type
REMARK                         _______ _______ _______ _____ _____    ______ ____
ROOT
ATOM      1  C   UNL     1      48.101   4.854  16.113  0.00  0.00    +0.000 A 
ATOM      2  C   UNL     1      47.133   4.255  15.301  0.00  0.00    +0.000 A 
ATOM      3  C   UNL     1      46.829   4.802  14.053  0.00  0.00    +0.000 A 
ATOM      4  C   UNL     1      47.508   5.942  13.633  0.00  0.00    +0.000 A 
ATOM      5  N   UNL     1      48.438   6.557  14.406  0.00  0.00    +0.000 NA
ATOM      6  C   UNL     1      48.723   5.992  15.605  0.00  0.00    +0.000 A 
ENDROOT
BRANCH   1   8
ATOM      7  C   UNL     1      47.583   3.031  17.707  0.00  0.00    +0.000 C 
ATOM      8  C   UNL     1      48.509   4.223  17.430  0.00  0.00    +0.000 C 
BRANCH   8   9
ATOM      9  N   UNL     1      49.921   3.852  17.440  0.00  0.00    +0.000 N 
ATOM     10  C   UNL     1      50.738   4.141  18.508  0.00  0.00    +0.000 C 
ATOM     11  O   UNL     1      50.324   4.686  19.528  0.00  0.00    +0.000 OA
ATOM     12  H   UNL     1      50.374   3.746  16.537  0.00  0.00    +0.000 HD
BRANCH  10  13
ATOM     13  C   UNL     1      52.138   3.719  18.409  0.00  0.00    +0.000 A 
ATOM     14  C   UNL     1      53.144   4.617  18.740  0.00  0.00    +0.000 A 
ATOM     15  S   UNL     1      54.715   3.994  18.530  0.00  0.00    +0.000 S 
ATOM     16  C   UNL     1      54.107   2.512  17.958  0.00  0.00    +0.000 A 
ATOM     17  N   UNL     1      54.946   1.530  17.537  0.00  0.00    +0.000 NA
ATOM     18  C   UNL     1      54.347   0.470  17.098  0.00  0.00    +0.000 A 
ATOM     19  N   UNL     1      52.987   0.298  17.069  0.00  0.00    +0.000 N 
ATOM     20  C   UNL     1      52.104   1.245  17.531  0.00  0.00    +0.000 A 
ATOM     21  O   UNL     1      50.896   1.035  17.578  0.00  0.00    +0.000 OA
ATOM     22  C   UNL     1      52.723   2.475  17.980  0.00  0.00    +0.000 A 
ATOM     23  H   UNL     1      52.587  -0.570  16.746  0.00  0.00    +0.000 HD
ENDBRANCH  10  13
ENDBRANCH   8   9
ENDBRANCH   1   8
BRANCH   4  24
ATOM     24  C   UNL     1      47.243   6.542  12.270  0.00  0.00    +0.000 C 
BRANCH  24  25
ATOM     25  N   UNL     1      46.126   5.925  11.586  0.00  0.00    +0.000 N 
ATOM     26  C   UNL     1      44.906   6.556  11.485  0.00  0.00    +0.000 C 
ATOM     27  O   UNL     1      44.697   7.644  12.022  0.00  0.00    +0.000 OA
ATOM     28  H   UNL     1      46.352   5.217  10.904  0.00  0.00    +0.000 HD
BRANCH  26  29
ATOM     29  C   UNL     1      43.790   5.765  10.757  0.00  0.00    +0.000 C 
ATOM     30  C   UNL     1      44.347   4.496  10.104  0.00  0.00    +0.000 C 
ATOM     31  C   UNL     1      44.705   3.450  11.158  0.00  0.00    +0.000 C 
ATOM     32  C   UNL     1      43.504   3.164  12.054  0.00  0.00    +0.000 C 
ATOM     33  C   UNL     1      42.902   4.443  12.633  0.00  0.00    +0.000 C 
ATOM     34  N   UNL     1      42.621   5.437  11.603  0.00  0.00    +0.000 NA
ATOM     35  H   UNL     1      42.184   6.277  11.972  0.00  0.00    +0.000 HD
ENDBRANCH  26  29
ENDBRANCH  24  25
ENDBRANCH   4  24
TORSDOF 6
ENDMDL
MODEL 5
REMARK VINA RESULT:    -6.814      3.257      8.863
REMARK INTER + INTRA:         -10.241
REMARK INTER:                  -9.415
REMARK INTRA:                  -0.826
REMARK UNBOUND:                -1.037
REMARK  Name = 
REMARK  7 active torsions:
REMARK  status: ('A' for Active; 'I' for Inactive)
REMARK    1  A    between atoms: C_1  and  C_2
REMARK    2  A    between atoms: C_2  and  N_3
REMARK    3  A    between atoms: C_2  and  C_16
REMARK    4  A    between atoms: C_4  and  C_6
REMARK    5  A    between atoms: C_19  and  C_20
REMARK    6  A    between atoms: C_20  and  N_21
REMARK    7  A    between atoms: C_22  and  C_24
REMARK                            x       y       z     vdW  Elec       q    Type
REMARK                         _______ _______ _______ _____ _____    ______ ____
ROOT
ATOM      1  C   UNL     1      49.190   6.538  16.648  0.00  0.00    +0.000 A 
ATOM      2  C   UNL     1      49.415   7.539  15.698  0.00  0.00    +0.000 A 
ATOM      3  C   UNL     1      48.859   7.432  14.422  0.00  0.00    +0.000 A 
ATOM      4  C   UNL     1      48.078   6.321  14.117  0.00  0.00    +0.000 A 
ATOM      5  N   UNL     1      47.858   5.324  15.011  0.00  0.00    +0.000 NA
ATOM      6  C   UNL     1      48.396   5.466  16.247  0.00  0.00    +0.000 A 
ENDROOT
BRANCH   1   8
ATOM      7  C   UNL     1      48.507   6.840  19.009  0.00  0.00    +0.000 C 
ATOM      8  C   UNL     1      49.707   6.681  18.066  0.00  0.00    +0.000 C 
BRANCH   8   9
ATOM      9  N   UNL     1      50.575   5.569  18.442  0.00  0.00    +0.000 N 
ATOM     10  C   UNL     1      51.892   5.512  18.048  0.00  0.00    +0.000 C 
ATOM     11  O   UNL     1      52.425   6.407  17.396  0.00  0.00    +0.000 OA
ATOM     12  H   UNL     1      50.123   4.683  18.646  0.00  0.00    +0.000 HD
BRANCH  10  13
ATOM     13  C   UNL     1      52.669   4.350  18.487  0.00  0.00    +0.000 A 
ATOM     14  C   UNL     1      53.790   4.544  19.283  0.00  0.00    +0.000 A 
ATOM     15  S   UNL     1      54.611   3.102  19.672  0.00  0.00    +0.000 S 
ATOM     16  C   UNL     1      53.514   2.172  18.762  0.00  0.00    +0.000 A 
ATOM     17  N   UNL     1      53.683   0.831  18.626  0.00  0.00    +0.000 NA
ATOM     18  C   UNL     1      52.795   0.254  17.882  0.00  0.00    +0.000 A 
ATOM     19  N   UNL     1      51.741   0.899  17.287  0.00  0.00    +0.000 N 
ATOM     20  C   UNL     1      51.504   2.244  17.438  0.00  0.00    +0.000 A 
ATOM     21  O   UNL     1      50.506   2.783  16.970  0.00  0.00    +0.000 OA
ATOM     22  C   UNL     1      52.505   2.945  18.215  0.00  0.00    +0.000 A 
ATOM     23  H   UNL     1      51.063   0.381  16.746  0.00  0.00    +0.000 HD
ENDBRANCH  10  13
ENDBRANCH   8   9
ENDBRANCH   1   8
BRANCH   4  24
ATOM     24  C   UNL     1      47.420   6.187  12.762  0.00  0.00    +0.000 C 
BRANCH  24  25
ATOM     25  N   UNL     1      46.156   5.482  12.813  0.00  0.00    +0.000 N 
ATOM     26  C   UNL     1      44.956   6.155  12.785  0.00  0.00    +0.000 C 
ATOM     27  O   UNL     1      44.906   7.385  12.775  0.00  0.00    +0.000 OA
ATOM     28  H   UNL     1      46.168   4.518  12.517  0.00  0.00    +0.000 HD
BRANCH  26  29
ATOM     29  C   UNL     1      43.682   5.277  12.882  0.00  0.00    +0.000 C 
ATOM     30  C   UNL     1      42.834   5.390  11.610  0.00  0.00    +0.000 C 
ATOM     31  C   UNL     1      43.505   4.675  10.439  0.00  0.00    +0.000 C 
ATOM     32  C   UNL     1      43.814   3.226  10.806  0.00  0.00    +0.000 C 
ATOM     33  C   UNL     1      44.585   3.118  12.120  0.00  0.00    +0.000 C 
ATOM     34  N   UNL     1      43.941   3.856  13.201  0.00  0.00    +0.000 NA
ATOM     35  H   UNL     1      44.425   3.758  14.090  0.00  0.00    +0.000 HD
ENDBRANCH  26  29
ENDBRANCH  24  25
ENDBRANCH   4  24
TORSDOF 6
ENDMDL
MODEL 6
REMARK VINA RESULT:    -6.764      1.902      2.641
REMARK INTER + INTRA:         -10.174
REMARK INTER:                  -9.409
REMARK INTRA:                  -0.765
REMARK UNBOUND:                -1.037
REMARK  Name = 
REMARK  7 active torsions:
REMARK  status: ('A' for Active; 'I' for Inactive)
REMARK    1  A    between atoms: C_1  and  C_2
REMARK    2  A    between atoms: C_2  and  N_3
REMARK    3  A    between atoms: C_2  and  C_16
REMARK    4  A    between atoms: C_4  and  C_6
REMARK    5  A    between atoms: C_19  and  C_20
REMARK    6  A    between atoms: C_20  and  N_21
REMARK    7  A    between atoms: C_22  and  C_24
REMARK                            x       y       z     vdW  Elec       q    Type
REMARK                         _______ _______ _______ _____ _____    ______ ____
ROOT
ATOM      1  C   UNL     1      46.190   6.214  12.981  0.00  0.00    +0.000 A 
ATOM      2  C   UNL     1      46.857   7.442  13.022  0.00  0.00    +0.000 A 
ATOM      3  C   UNL     1      47.922   7.631  13.904  0.00  0.00    +0.000 A 
ATOM      4  C   UNL     1      48.309   6.580  14.730  0.00  0.00    +0.000 A 
ATOM      5  N   UNL     1      47.669   5.384  14.726  0.00  0.00    +0.000 NA
ATOM      6  C   UNL     1      46.650   5.225  13.847  0.00  0.00    +0.000 A 
ENDROOT
BRANCH   1   8
ATOM      7  C   UNL     1      44.810   7.268  11.214  0.00  0.00    +0.000 C 
ATOM      8  C   UNL     1      45.091   5.960  11.966  0.00  0.00    +0.000 C 
BRANCH   8   9
ATOM      9  N   UNL     1      45.424   4.856  11.070  0.00  0.00    +0.000 N 
ATOM     10  C   UNL     1      44.486   4.293  10.236  0.00  0.00    +0.000 C 
ATOM     11  O   UNL     1      43.332   4.709  10.163  0.00  0.00    +0.000 OA
ATOM     12  H   UNL     1      46.205   4.266  11.340  0.00  0.00    +0.000 HD
BRANCH  10  13
ATOM     13  C   UNL     1      44.934   3.192   9.379  0.00  0.00    +0.000 A 
ATOM     14  C   UNL     1      44.373   1.932   9.543  0.00  0.00    +0.000 A 
ATOM     15  S   UNL     1      45.029   0.751   8.505  0.00  0.00    +0.000 S 
ATOM     16  C   UNL     1      46.107   1.875   7.821  0.00  0.00    +0.000 A 
ATOM     17  N   UNL     1      47.015   1.491   6.887  0.00  0.00    +0.000 NA
ATOM     18  C   UNL     1      47.792   2.441   6.477  0.00  0.00    +0.000 A 
ATOM     19  N   UNL     1      47.722   3.743   6.901  0.00  0.00    +0.000 N 
ATOM     20  C   UNL     1      46.788   4.185   7.808  0.00  0.00    +0.000 A 
ATOM     21  O   UNL     1      46.686   5.371   8.106  0.00  0.00    +0.000 OA
ATOM     22  C   UNL     1      45.931   3.146   8.340  0.00  0.00    +0.000 A 
ATOM     23  H   UNL     1      48.338   4.442   6.514  0.00  0.00    +0.000 HD
ENDBRANCH  10  13
ENDBRANCH   8   9
ENDBRANCH   1   8
BRANCH   4  24
ATOM     24  C   UNL     1      49.486   6.726  15.667  0.00  0.00    +0.000 C 
BRANCH  24  25
ATOM     25  N   UNL     1      49.472   5.765  16.750  0.00  0.00    +0.000 N 
ATOM     26  C   UNL     1      50.636   5.221  17.244  0.00  0.00    +0.000 C 
ATOM     27  O   UNL     1      51.732   5.482  16.748  0.00  0.00    +0.000 OA
ATOM     28  H   UNL     1      48.660   5.777  17.349  0.00  0.00    +0.000 HD
BRANCH  26  29
ATOM     29  C   UNL     1      50.469   4.178  18.380  0.00  0.00    +0.000 C 
ATOM     30  C   UNL     1      49.424   3.119  18.010  0.00  0.00    +0.000 C 
ATOM     31  C   UNL     1      49.956   2.182  16.928  0.00  0.00    +0.000 C 
ATOM     32  C   UNL     1      51.282   1.564  17.362  0.00  0.00    +0.000 C 
ATOM     33  C   UNL     1      52.288   2.622  17.810  0.00  0.00    +0.000 C 
ATOM     34  N   UNL     1      51.729   3.530  18.805  0.00  0.00    +0.000 NA
ATOM     35  H   UNL     1      52.403   4.214  19.140  0.00  0.00    +0.000 HD
ENDBRANCH  26  29
ENDBRANCH  24  25
ENDBRANCH   4  24
TORSDOF 6
ENDMDL
MODEL 7
REMARK VINA RESULT:    -6.692      2.146      2.583
REMARK INTER + INTRA:         -10.077
REMARK INTER:                  -8.486
REMARK INTRA:                  -1.591
REMARK UNBOUND:                -1.037
REMARK  Name = 
REMARK  7 active torsions:
REMARK  status: ('A' for Active; 'I' for Inactive)
REMARK    1  A    between atoms: C_1  and  C_2
REMARK    2  A    between atoms: C_2  and  N_3
REMARK    3  A    between atoms: C_2  and  C_16
REMARK    4  A    between atoms: C_4  and  C_6
REMARK    5  A    between atoms: C_19  and  C_20
REMARK    6  A    between atoms: C_20  and  N_21
REMARK    7  A    between atoms: C_22  and  C_24
REMARK                            x       y       z     vdW  Elec       q    Type
REMARK                         _______ _______ _______ _____ _____    ______ ____
ROOT
ATOM      1  C   UNL     1      49.178   8.732  13.964  0.00  0.00    +0.000 A 
ATOM      2  C   UNL     1      50.450   8.158  13.878  0.00  0.00    +0.000 A 
ATOM      3  C   UNL     1      51.117   7.758  15.037  0.00  0.00    +0.000 A 
ATOM      4  C   UNL     1      50.494   7.935  16.269  0.00  0.00    +0.000 A 
ATOM      5  N   UNL     1      49.270   8.506  16.386  0.00  0.00    +0.000 NA
ATOM      6  C   UNL     1      48.640   8.868  15.242  0.00  0.00    +0.000 A 
ENDROOT
BRANCH   1   8
ATOM      7  C   UNL     1      49.397   9.474  11.611  0.00  0.00    +0.000 C 
ATOM      8  C   UNL     1      48.400   9.088  12.711  0.00  0.00    +0.000 C 
BRANCH   8   9
ATOM      9  N   UNL     1      47.503   8.009  12.304  0.00  0.00    +0.000 N 
ATOM     10  C   UNL     1      46.172   8.005  12.651  0.00  0.00    +0.000 C 
ATOM     11  O   UNL     1      45.651   8.921  13.283  0.00  0.00    +0.000 OA
ATOM     12  H   UNL     1      47.928   7.106  12.117  0.00  0.00    +0.000 HD
BRANCH  10  13
ATOM     13  C   UNL     1      45.367   6.873  12.185  0.00  0.00    +0.000 A 
ATOM     14  C   UNL     1      44.229   7.115  11.427  0.00  0.00    +0.000 A 
ATOM     15  S   UNL     1      43.377   5.702  11.001  0.00  0.00    +0.000 S 
ATOM     16  C   UNL     1      44.482   4.720  11.843  0.00  0.00    +0.000 A 
ATOM     17  N   UNL     1      44.296   3.377  11.927  0.00  0.00    +0.000 NA
ATOM     18  C   UNL     1      45.194   2.758  12.623  0.00  0.00    +0.000 A 
ATOM     19  N   UNL     1      46.273   3.361  13.218  0.00  0.00    +0.000 N 
ATOM     20  C   UNL     1      46.526   4.709  13.116  0.00  0.00    +0.000 A 
ATOM     21  O   UNL     1      47.544   5.213  13.580  0.00  0.00    +0.000 OA
ATOM     22  C   UNL     1      45.516   5.455  12.394  0.00  0.00    +0.000 A 
ATOM     23  H   UNL     1      46.956   2.812  13.718  0.00  0.00    +0.000 HD
ENDBRANCH  10  13
ENDBRANCH   8   9
ENDBRANCH   1   8
BRANCH   4  24
ATOM     24  C   UNL     1      51.161   7.475  17.546  0.00  0.00    +0.000 C 
BRANCH  24  25
ATOM     25  N   UNL     1      50.394   6.474  18.258  0.00  0.00    +0.000 N 
ATOM     26  C   UNL     1      50.479   5.138  17.936  0.00  0.00    +0.000 C 
ATOM     27  O   UNL     1      51.164   4.745  16.991  0.00  0.00    +0.000 OA
ATOM     28  H   UNL     1      50.089   6.720  19.188  0.00  0.00    +0.000 HD
BRANCH  26  29
ATOM     29  C   UNL     1      49.575   4.183  18.757  0.00  0.00    +0.000 C 
ATOM     30  C   UNL     1      48.209   4.818  19.037  0.00  0.00    +0.000 C 
ATOM     31  C   UNL     1      47.364   4.880  17.766  0.00  0.00    +0.000 C 
ATOM     32  C   UNL     1      47.245   3.495  17.137  0.00  0.00    +0.000 C 
ATOM     33  C   UNL     1      48.608   2.834  16.941  0.00  0.00    +0.000 C 
ATOM     34  N   UNL     1      49.406   2.839  18.162  0.00  0.00    +0.000 NA
ATOM     35  H   UNL     1      50.299   2.366  18.053  0.00  0.00    +0.000 HD
ENDBRANCH  26  29
ENDBRANCH  24  25
ENDBRANCH   4  24
TORSDOF 6
ENDMDL
MODEL 8
REMARK VINA RESULT:    -6.353      4.937      8.371
REMARK INTER + INTRA:          -9.618
REMARK INTER:                  -8.632
REMARK INTRA:                  -0.987
REMARK UNBOUND:                -1.037
REMARK  Name = 
REMARK  7 active torsions:
REMARK  status: ('A' for Active; 'I' for Inactive)
REMARK    1  A    between atoms: C_1  and  C_2
REMARK    2  A    between atoms: C_2  and  N_3
REMARK    3  A    between atoms: C_2  and  C_16
REMARK    4  A    between atoms: C_4  and  C_6
REMARK    5  A    between atoms: C_19  and  C_20
REMARK    6  A    between atoms: C_20  and  N_21
REMARK    7  A    between atoms: C_22  and  C_24
REMARK                            x       y       z     vdW  Elec       q    Type
REMARK                         _______ _______ _______ _____ _____    ______ ____
ROOT
ATOM      1  C   UNL     1      49.298   8.540  12.230  0.00  0.00    +0.000 A 
ATOM      2  C   UNL     1      47.981   8.487  11.761  0.00  0.00    +0.000 A 
ATOM      3  C   UNL     1      47.148   7.430  12.130  0.00  0.00    +0.000 A 
ATOM      4  C   UNL     1      47.646   6.440  12.971  0.00  0.00    +0.000 A 
ATOM      5  N   UNL     1      48.924   6.453  13.426  0.00  0.00    +0.000 NA
ATOM      6  C   UNL     1      49.703   7.501  13.065  0.00  0.00    +0.000 A 
ENDROOT
BRANCH   1   8
ATOM      7  C   UNL     1      50.443  10.503  13.215  0.00  0.00    +0.000 C 
ATOM      8  C   UNL     1      50.188   9.727  11.916  0.00  0.00    +0.000 C 
BRANCH   8   9
ATOM      9  N   UNL     1      51.423   9.318  11.253  0.00  0.00    +0.000 N 
ATOM     10  C   UNL     1      51.936  10.015  10.184  0.00  0.00    +0.000 C 
ATOM     11  O   UNL     1      51.413  11.040   9.752  0.00  0.00    +0.000 OA
ATOM     12  H   UNL     1      51.678   8.337  11.321  0.00  0.00    +0.000 HD
BRANCH  10  13
ATOM     13  C   UNL     1      53.183   9.515   9.600  0.00  0.00    +0.000 A 
ATOM     14  C   UNL     1      54.166  10.420   9.218  0.00  0.00    +0.000 A 
ATOM     15  S   UNL     1      55.534   9.689   8.515  0.00  0.00    +0.000 S 
ATOM     16  C   UNL     1      54.849   8.139   8.668  0.00  0.00    +0.000 A 
ATOM     17  N   UNL     1      55.494   7.042   8.193  0.00  0.00    +0.000 NA
ATOM     18  C   UNL     1      54.844   5.933   8.347  0.00  0.00    +0.000 A 
ATOM     19  N   UNL     1      53.620   5.826   8.957  0.00  0.00    +0.000 N 
ATOM     20  C   UNL     1      52.955   6.902   9.495  0.00  0.00    +0.000 A 
ATOM     21  O   UNL     1      51.904   6.770  10.114  0.00  0.00    +0.000 OA
ATOM     22  C   UNL     1      53.616   8.176   9.296  0.00  0.00    +0.000 A 
ATOM     23  H   UNL     1      53.184   4.923   9.075  0.00  0.00    +0.000 HD
ENDBRANCH  10  13
ENDBRANCH   8   9
ENDBRANCH   1   8
BRANCH   4  24
ATOM     24  C   UNL     1      46.765   5.301  13.432  0.00  0.00    +0.000 C 
BRANCH  24  25
ATOM     25  N   UNL     1      45.638   5.065  12.554  0.00  0.00    +0.000 N 
ATOM     26  C   UNL     1      45.183   3.791  12.293  0.00  0.00    +0.000 C 
ATOM     27  O   UNL     1      45.751   2.798  12.748  0.00  0.00    +0.000 OA
ATOM     28  H   UNL     1      44.996   5.833  12.431  0.00  0.00    +0.000 HD
BRANCH  26  29
ATOM     29  C   UNL     1      43.991   3.684  11.308  0.00  0.00    +0.000 C 
ATOM     30  C   UNL     1      43.964   4.873  10.341  0.00  0.00    +0.000 C 
ATOM     31  C   UNL     1      45.099   4.777   9.324  0.00  0.00    +0.000 C 
ATOM     32  C   UNL     1      45.053   3.436   8.598  0.00  0.00    +0.000 C 
ATOM     33  C   UNL     1      44.994   2.259   9.570  0.00  0.00    +0.000 C 
ATOM     34  N   UNL     1      43.931   2.410  10.557  0.00  0.00    +0.000 NA
ATOM     35  H   UNL     1      43.857   1.614  11.185  0.00  0.00    +0.000 HD
ENDBRANCH  26  29
ENDBRANCH  24  25
ENDBRANCH   4  24
TORSDOF 6
ENDMDL
MODEL 9
REMARK VINA RESULT:    -6.319      3.087      4.754
REMARK INTER + INTRA:          -9.573
REMARK INTER:                  -9.419
REMARK INTRA:                  -0.154
REMARK UNBOUND:                -1.037
REMARK  Name = 
REMARK  7 active torsions:
REMARK  status: ('A' for Active; 'I' for Inactive)
REMARK    1  A    between atoms: C_1  and  C_2
REMARK    2  A    between atoms: C_2  and  N_3
REMARK    3  A    between atoms: C_2  and  C_16
REMARK    4  A    between atoms: C_4  and  C_6
REMARK    5  A    between atoms: C_19  and  C_20
REMARK    6  A    between atoms: C_20  and  N_21
REMARK    7  A    between atoms: C_22  and  C_24
REMARK                            x       y       z     vdW  Elec       q    Type
REMARK                         _______ _______ _______ _____ _____    ______ ____
ROOT
ATOM      1  C   UNL     1      49.422   5.757  16.622  0.00  0.00    +0.000 A 
ATOM      2  C   UNL     1      50.760   5.640  17.012  0.00  0.00    +0.000 A 
ATOM      3  C   UNL     1      51.275   4.397  17.385  0.00  0.00    +0.000 A 
ATOM      4  C   UNL     1      50.439   3.285  17.357  0.00  0.00    +0.000 A 
ATOM      5  N   UNL     1      49.132   3.371  17.003  0.00  0.00    +0.000 NA
ATOM      6  C   UNL     1      48.667   4.587  16.628  0.00  0.00    +0.000 A 
ENDROOT
BRANCH   1   8
ATOM      7  C   UNL     1      50.026   7.899  15.534  0.00  0.00    +0.000 C 
ATOM      8  C   UNL     1      48.871   7.080  16.125  0.00  0.00    +0.000 C 
BRANCH   8   9
ATOM      9  N   UNL     1      47.775   6.890  15.179  0.00  0.00    +0.000 N 
ATOM     10  C   UNL     1      48.000   6.510  13.877  0.00  0.00    +0.000 C 
ATOM     11  O   UNL     1      49.124   6.267  13.445  0.00  0.00    +0.000 OA
ATOM     12  H   UNL     1      46.917   7.404  15.361  0.00  0.00    +0.000 HD
BRANCH  10  13
ATOM     13  C   UNL     1      46.824   6.347  13.018  0.00  0.00    +0.000 A 
ATOM     14  C   UNL     1      46.269   7.465  12.407  0.00  0.00    +0.000 A 
ATOM     15  S   UNL     1      44.883   7.119  11.479  0.00  0.00    +0.000 S 
ATOM     16  C   UNL     1      44.957   5.469  11.887  0.00  0.00    +0.000 A 
ATOM     17  N   UNL     1      44.004   4.602  11.457  0.00  0.00    +0.000 NA
ATOM     18  C   UNL     1      44.167   3.385  11.867  0.00  0.00    +0.000 A 
ATOM     19  N   UNL     1      45.213   2.959  12.646  0.00  0.00    +0.000 N 
ATOM     20  C   UNL     1      46.225   3.792  13.061  0.00  0.00    +0.000 A 
ATOM     21  O   UNL     1      47.196   3.371  13.681  0.00  0.00    +0.000 OA
ATOM     22  C   UNL     1      46.057   5.178  12.675  0.00  0.00    +0.000 A 
ATOM     23  H   UNL     1      45.298   1.986  12.901  0.00  0.00    +0.000 HD
ENDBRANCH  10  13
ENDBRANCH   8   9
ENDBRANCH   1   8
BRANCH   4  24
ATOM     24  C   UNL     1      50.966   1.912  17.710  0.00  0.00    +0.000 C 
BRANCH  24  25
ATOM     25  N   UNL     1      52.231   1.954  18.412  0.00  0.00    +0.000 N 
ATOM     26  C   UNL     1      53.330   1.260  17.956  0.00  0.00    +0.000 C 
ATOM     27  O   UNL     1      53.267   0.529  16.968  0.00  0.00    +0.000 OA
ATOM     28  H   UNL     1      52.387   2.751  19.010  0.00  0.00    +0.000 HD
BRANCH  26  29
ATOM     29  C   UNL     1      54.609   1.367  18.826  0.00  0.00    +0.000 C 
ATOM     30  C   UNL     1      55.755   2.022  18.046  0.00  0.00    +0.000 C 
ATOM     31  C   UNL     1      55.498   3.515  17.850  0.00  0.00    +0.000 C 
ATOM     32  C   UNL     1      55.244   4.194  19.193  0.00  0.00    +0.000 C 
ATOM     33  C   UNL     1      54.160   3.482  20.000  0.00  0.00    +0.000 C 
ATOM     34  N   UNL     1      54.412   2.050  20.123  0.00  0.00    +0.000 NA
ATOM     35  H   UNL     1      53.718   1.573  20.692  0.00  0.00    +0.000 HD
ENDBRANCH  26  29
ENDBRANCH  24  25
ENDBRANCH   4  24
TORSDOF 6
ENDMDL
