MODEL 1
REMARK VINA RESULT:    -8.294      0.000      0.000
REMARK INTER + INTRA:         -12.660
REMARK INTER:                 -11.930
REMARK INTRA:                  -0.730
REMARK UNBOUND:                -0.730
REMARK  Name = 
REMARK  8 active torsions:
REMARK  status: ('A' for Active; 'I' for Inactive)
REMARK    1  A    between atoms: N_1  and  C_2
REMARK    2  A    between atoms: C_2  and  C_3
REMARK    3  A    between atoms: C_3  and  N_4
REMARK    4  A    between atoms: C_3  and  C_17
REMARK    5  A    between atoms: C_5  and  C_7
REMARK    6  A    between atoms: C_20  and  C_21
REMARK    7  A    between atoms: C_21  and  O_22
REMARK    8  A    between atoms: O_22  and  C_23
REMARK                            x       y       z     vdW  Elec       q    Type
REMARK                         _______ _______ _______ _____ _____    ______ ____
ROOT
ATOM      1  C   UNL     1      46.057   8.087  12.927  0.00  0.00    +0.000 C 
ENDROOT
BRANCH   1   2
ATOM      2  C   UNL     1      45.534   6.903  12.127  0.00  0.00    +0.000 A 
ATOM      3  C   UNL     1      46.045   6.668  10.841  0.00  0.00    +0.000 A 
ATOM      4  C   UNL     1      45.692   5.517  10.134  0.00  0.00    +0.000 A 
ATOM      5  C   UNL     1      44.799   4.591  10.689  0.00  0.00    +0.000 A 
ATOM      6  C   UNL     1      44.232   4.857  11.939  0.00  0.00    +0.000 A 
ATOM      7  C   UNL     1      44.578   6.013  12.639  0.00  0.00    +0.000 A 
BRANCH   5   8
ATOM      8  C   UNL     1      44.495   3.297   9.981  0.00  0.00    +0.000 C 
BRANCH   8   9
ATOM      9  O   UNL     1      44.748   3.472   8.587  0.00  0.00    +0.000 OA
BRANCH   9  10
ATOM     10  C   UNL     1      45.758   2.722   8.051  0.00  0.00    +0.000 A 
ATOM     11  C   UNL     1      45.960   1.363   8.263  0.00  0.00    +0.000 A 
ATOM     12  C   UNL     1      47.035   0.754   7.637  0.00  0.00    +0.000 A 
ATOM     13  N   UNL     1      47.904   1.400   6.833  0.00  0.00    +0.000 NA
ATOM     14  C   UNL     1      47.688   2.719   6.648  0.00  0.00    +0.000 A 
ATOM     15  C   UNL     1      46.643   3.416   7.230  0.00  0.00    +0.000 A 
ENDBRANCH   9  10
ENDBRANCH   8   9
ENDBRANCH   5   8
ENDBRANCH   1   2
BRANCH   1  16
ATOM     16  N   UNL     1      46.829   7.590  14.050  0.00  0.00    +0.000 N 
ATOM     17  C   UNL     1      48.044   6.980  13.902  0.00  0.00    +0.000 C 
ATOM     18  O   UNL     1      48.629   6.907  12.829  0.00  0.00    +0.000 OA
ATOM     19  H   UNL     1      46.314   7.478  14.916  0.00  0.00    +0.000 HD
BRANCH  17  20
ATOM     20  C   UNL     1      48.630   6.440  15.137  0.00  0.00    +0.000 A 
ATOM     21  C   UNL     1      49.732   7.048  15.719  0.00  0.00    +0.000 A 
ATOM     22  S   UNL     1      50.243   6.287  17.161  0.00  0.00    +0.000 S 
ATOM     23  C   UNL     1      49.043   5.089  17.021  0.00  0.00    +0.000 A 
ATOM     24  N   UNL     1      48.944   4.082  17.931  0.00  0.00    +0.000 NA
ATOM     25  C   UNL     1      48.010   3.226  17.682  0.00  0.00    +0.000 A 
ATOM     26  N   UNL     1      47.159   3.289  16.607  0.00  0.00    +0.000 N 
ATOM     27  C   UNL     1      47.193   4.307  15.691  0.00  0.00    +0.000 A 
ATOM     28  O   UNL     1      46.368   4.373  14.781  0.00  0.00    +0.000 OA
ATOM     29  C   UNL     1      48.245   5.282  15.910  0.00  0.00    +0.000 A 
ATOM     30  H   UNL     1      46.436   2.597  16.478  0.00  0.00    +0.000 HD
ENDBRANCH  17  20
ENDBRANCH   1  16
BRANCH   1  31
ATOM     31  C   UNL     1      46.875   9.117  12.088  0.00  0.00    +0.000 C 
BRANCH  31  32
ATOM     32  N   UNL     1      47.325  10.283  12.859  0.00  0.00    +0.000 NA
ATOM     33  H   UNL     1      46.533  10.881  13.079  0.00  0.00    +0.000 HD
ATOM     34  H   UNL     1      47.969  10.835  12.294  0.00  0.00    +0.000 HD
ENDBRANCH  31  32
ENDBRANCH   1  31
TORSDOF 8
ENDMDL
MODEL 2
REMARK VINA RESULT:    -7.905      1.862      4.183
REMARK INTER + INTRA:         -12.100
REMARK INTER:                 -10.632
REMARK INTRA:                  -1.468
REMARK UNBOUND:                -0.730
REMARK  Name = 
REMARK  8 active torsions:
REMARK  status: ('A' for Active; 'I' for Inactive)
REMARK    1  A    between atoms: N_1  and  C_2
REMARK    2  A    between atoms: C_2  and  C_3
REMARK    3  A    between atoms: C_3  and  N_4
REMARK    4  A    between atoms: C_3  and  C_17
REMARK    5  A    between atoms: C_5  and  C_7
REMARK    6  A    between atoms: C_20  and  C_21
REMARK    7  A    between atoms: C_21  and  O_22
REMARK    8  A    between atoms: O_22  and  C_23
REMARK                            x       y       z     vdW  Elec       q    Type
REMARK                         _______ _______ _______ _____ _____    ______ ____
ROOT
ATOM      1  C   UNL     1      47.150   4.873  14.113  0.00  0.00    +0.000 C 
ENDROOT
BRANCH   1   2
ATOM      2  C   UNL     1      46.288   4.669  12.875  0.00  0.00    +0.000 A 
ATOM      3  C   UNL     1      46.209   5.695  11.921  0.00  0.00    +0.000 A 
ATOM      4  C   UNL     1      45.541   5.492  10.711  0.00  0.00    +0.000 A 
ATOM      5  C   UNL     1      44.916   4.267  10.444  0.00  0.00    +0.000 A 
ATOM      6  C   UNL     1      44.930   3.269  11.422  0.00  0.00    +0.000 A 
ATOM      7  C   UNL     1      45.589   3.476  12.634  0.00  0.00    +0.000 A 
BRANCH   5   8
ATOM      8  C   UNL     1      44.286   4.002   9.103  0.00  0.00    +0.000 C 
BRANCH   8   9
ATOM      9  O   UNL     1      45.257   4.258   8.087  0.00  0.00    +0.000 OA
BRANCH   9  10
ATOM     10  C   UNL     1      46.054   3.207   7.728  0.00  0.00    +0.000 A 
ATOM     11  C   UNL     1      45.905   1.891   8.153  0.00  0.00    +0.000 A 
ATOM     12  C   UNL     1      46.803   0.946   7.687  0.00  0.00    +0.000 A 
ATOM     13  N   UNL     1      47.819   1.221   6.845  0.00  0.00    +0.000 NA
ATOM     14  C   UNL     1      47.944   2.507   6.451  0.00  0.00    +0.000 A 
ATOM     15  C   UNL     1      47.098   3.523   6.862  0.00  0.00    +0.000 A 
ENDBRANCH   9  10
ENDBRANCH   8   9
ENDBRANCH   5   8
ENDBRANCH   1   2
BRANCH   1  16
ATOM     16  N   UNL     1      47.538   6.268  14.190  0.00  0.00    +0.000 N 
ATOM     17  C   UNL     1      48.592   6.703  14.944  0.00  0.00    +0.000 C 
ATOM     18  O   UNL     1      49.360   5.944  15.521  0.00  0.00    +0.000 OA
ATOM     19  H   UNL     1      46.840   6.932  13.874  0.00  0.00    +0.000 HD
BRANCH  17  20
ATOM     20  C   UNL     1      48.770   8.161  14.993  0.00  0.00    +0.000 A 
ATOM     21  C   UNL     1      48.762   8.832  16.207  0.00  0.00    +0.000 A 
ATOM     22  S   UNL     1      49.014  10.515  16.052  0.00  0.00    +0.000 S 
ATOM     23  C   UNL     1      49.085  10.407  14.356  0.00  0.00    +0.000 A 
ATOM     24  N   UNL     1      49.251  11.516  13.585  0.00  0.00    +0.000 NA
ATOM     25  C   UNL     1      49.252  11.289  12.314  0.00  0.00    +0.000 A 
ATOM     26  N   UNL     1      49.111  10.049  11.742  0.00  0.00    +0.000 N 
ATOM     27  C   UNL     1      48.986   8.901  12.478  0.00  0.00    +0.000 A 
ATOM     28  O   UNL     1      48.937   7.799  11.934  0.00  0.00    +0.000 OA
ATOM     29  C   UNL     1      48.950   9.104  13.914  0.00  0.00    +0.000 A 
ATOM     30  H   UNL     1      49.139   9.937  10.740  0.00  0.00    +0.000 HD
ENDBRANCH  17  20
ENDBRANCH   1  16
BRANCH   1  31
ATOM     31  C   UNL     1      46.486   4.395  15.442  0.00  0.00    +0.000 C 
BRANCH  31  32
ATOM     32  N   UNL     1      47.384   3.616  16.305  0.00  0.00    +0.000 NA
ATOM     33  H   UNL     1      48.135   4.208  16.649  0.00  0.00    +0.000 HD
ATOM     34  H   UNL     1      47.815   2.871  15.759  0.00  0.00    +0.000 HD
ENDBRANCH  31  32
ENDBRANCH   1  31
TORSDOF 8
ENDMDL
MODEL 3
REMARK VINA RESULT:    -7.848      2.632      3.799
REMARK INTER + INTRA:         -12.018
REMARK INTER:                 -10.754
REMARK INTRA:                  -1.264
REMARK UNBOUND:                -0.730
REMARK  Name = 
REMARK  8 active torsions:
REMARK  status: ('A' for Active; 'I' for Inactive)
REMARK    1  A    between atoms: N_1  and  C_2
REMARK    2  A    between atoms: C_2  and  C_3
REMARK    3  A    between atoms: C_3  and  N_4
REMARK    4  A    between atoms: C_3  and  C_17
REMARK    5  A    between atoms: C_5  and  C_7
REMARK    6  A    between atoms: C_20  and  C_21
REMARK    7  A    between atoms: C_21  and  O_22
REMARK    8  A    between atoms: O_22  and  C_23
REMARK                            x       y       z     vdW  Elec       q    Type
REMARK                         _______ _______ _______ _____ _____    ______ ____
ROOT
ATOM      1  C   UNL     1      47.533   5.054  14.356  0.00  0.00    +0.000 C 
ENDROOT
BRANCH   1   2
ATOM      2  C   UNL     1      46.589   4.905  13.171  0.00  0.00    +0.000 A 
ATOM      3  C   UNL     1      46.513   5.937  12.223  0.00  0.00    +0.000 A 
ATOM      4  C   UNL     1      45.764   5.778  11.056  0.00  0.00    +0.000 A 
ATOM      5  C   UNL     1      45.055   4.593  10.826  0.00  0.00    +0.000 A 
ATOM      6  C   UNL     1      45.068   3.591  11.801  0.00  0.00    +0.000 A 
ATOM      7  C   UNL     1      45.809   3.756  12.972  0.00  0.00    +0.000 A 
BRANCH   5   8
ATOM      8  C   UNL     1      44.332   4.370   9.524  0.00  0.00    +0.000 C 
BRANCH   8   9
ATOM      9  O   UNL     1      45.268   4.513   8.455  0.00  0.00    +0.000 OA
BRANCH   9  10
ATOM     10  C   UNL     1      45.904   3.375   8.046  0.00  0.00    +0.000 A 
ATOM     11  C   UNL     1      45.639   2.087   8.500  0.00  0.00    +0.000 A 
ATOM     12  C   UNL     1      46.378   1.041   7.974  0.00  0.00    +0.000 A 
ATOM     13  N   UNL     1      47.345   1.191   7.047  0.00  0.00    +0.000 NA
ATOM     14  C   UNL     1      47.586   2.451   6.627  0.00  0.00    +0.000 A 
ATOM     15  C   UNL     1      46.902   3.561   7.092  0.00  0.00    +0.000 A 
ENDBRANCH   9  10
ENDBRANCH   8   9
ENDBRANCH   5   8
ENDBRANCH   1   2
BRANCH   1  16
ATOM     16  N   UNL     1      47.728   6.464  14.626  0.00  0.00    +0.000 N 
ATOM     17  C   UNL     1      48.847   6.954  15.241  0.00  0.00    +0.000 C 
ATOM     18  O   UNL     1      49.821   6.260  15.507  0.00  0.00    +0.000 OA
ATOM     19  H   UNL     1      46.892   7.036  14.580  0.00  0.00    +0.000 HD
BRANCH  17  20
ATOM     20  C   UNL     1      48.824   8.393  15.535  0.00  0.00    +0.000 A 
ATOM     21  C   UNL     1      49.204   9.316  14.571  0.00  0.00    +0.000 A 
ATOM     22  S   UNL     1      49.079  10.936  15.099  0.00  0.00    +0.000 S 
ATOM     23  C   UNL     1      48.569  10.453  16.648  0.00  0.00    +0.000 A 
ATOM     24  N   UNL     1      48.318  11.367  17.624  0.00  0.00    +0.000 NA
ATOM     25  C   UNL     1      47.972  10.857  18.758  0.00  0.00    +0.000 A 
ATOM     26  N   UNL     1      47.846   9.513  19.005  0.00  0.00    +0.000 N 
ATOM     27  C   UNL     1      48.046   8.559  18.042  0.00  0.00    +0.000 A 
ATOM     28  O   UNL     1      47.852   7.367  18.277  0.00  0.00    +0.000 OA
ATOM     29  C   UNL     1      48.465   9.079  16.754  0.00  0.00    +0.000 A 
ATOM     30  H   UNL     1      47.553   9.178  19.910  0.00  0.00    +0.000 HD
ENDBRANCH  17  20
ENDBRANCH   1  16
BRANCH   1  31
ATOM     31  C   UNL     1      47.078   4.288  15.638  0.00  0.00    +0.000 C 
BRANCH  31  32
ATOM     32  N   UNL     1      48.165   3.564  16.310  0.00  0.00    +0.000 NA
ATOM     33  H   UNL     1      48.107   3.706  17.315  0.00  0.00    +0.000 HD
ATOM     34  H   UNL     1      49.062   3.941  16.006  0.00  0.00    +0.000 HD
ENDBRANCH  31  32
ENDBRANCH   1  31
TORSDOF 8
ENDMDL
MODEL 4
REMARK VINA RESULT:    -7.781      2.741      3.953
REMARK INTER + INTRA:         -11.922
REMARK INTER:                 -10.346
REMARK INTRA:                  -1.577
REMARK UNBOUND:                -0.730
REMARK  Name = 
REMARK  8 active torsions:
REMARK  status: ('A' for Active; 'I' for Inactive)
REMARK    1  A    between atoms: N_1  and  C_2
REMARK    2  A    between atoms: C_2  and  C_3
REMARK    3  A    between atoms: C_3  and  N_4
REMARK    4  A    between atoms: C_3  and  C_17
REMARK    5  A    between atoms: C_5  and  C_7
REMARK    6  A    between atoms: C_20  and  C_21
REMARK    7  A    between atoms: C_21  and  O_22
REMARK    8  A    between atoms: O_22  and  C_23
REMARK                            x       y       z     vdW  Elec       q    Type
REMARK                         _______ _______ _______ _____ _____    ______ ____
ROOT
ATOM      1  C   UNL     1      47.894   4.516  15.271  0.00  0.00    +0.000 C 
ENDROOT
BRANCH   1   2
ATOM      2  C   UNL     1      47.066   4.629  13.999  0.00  0.00    +0.000 A 
ATOM      3  C   UNL     1      46.312   3.525  13.574  0.00  0.00    +0.000 A 
ATOM      4  C   UNL     1      45.436   3.636  12.492  0.00  0.00    +0.000 A 
ATOM      5  C   UNL     1      45.317   4.846  11.798  0.00  0.00    +0.000 A 
ATOM      6  C   UNL     1      46.119   5.928  12.173  0.00  0.00    +0.000 A 
ATOM      7  C   UNL     1      47.002   5.813  13.248  0.00  0.00    +0.000 A 
BRANCH   5   8
ATOM      8  C   UNL     1      44.299   5.006  10.700  0.00  0.00    +0.000 C 
BRANCH   8   9
ATOM      9  O   UNL     1      44.089   3.733  10.088  0.00  0.00    +0.000 OA
BRANCH   9  10
ATOM     10  C   UNL     1      44.994   3.358   9.135  0.00  0.00    +0.000 A 
ATOM     11  C   UNL     1      45.638   4.211   8.245  0.00  0.00    +0.000 A 
ATOM     12  C   UNL     1      46.534   3.663   7.342  0.00  0.00    +0.000 A 
ATOM     13  N   UNL     1      46.822   2.349   7.270  0.00  0.00    +0.000 NA
ATOM     14  C   UNL     1      46.181   1.542   8.142  0.00  0.00    +0.000 A 
ATOM     15  C   UNL     1      45.269   1.994   9.080  0.00  0.00    +0.000 A 
ENDBRANCH   9  10
ENDBRANCH   8   9
ENDBRANCH   5   8
ENDBRANCH   1   2
BRANCH   1  16
ATOM     16  N   UNL     1      47.783   5.754  16.016  0.00  0.00    +0.000 N 
ATOM     17  C   UNL     1      48.862   6.538  16.317  0.00  0.00    +0.000 C 
ATOM     18  O   UNL     1      49.987   6.320  15.887  0.00  0.00    +0.000 OA
ATOM     19  H   UNL     1      46.916   5.878  16.527  0.00  0.00    +0.000 HD
BRANCH  17  20
ATOM     20  C   UNL     1      48.577   7.697  17.175  0.00  0.00    +0.000 A 
ATOM     21  C   UNL     1      48.748   8.988  16.696  0.00  0.00    +0.000 A 
ATOM     22  S   UNL     1      48.336  10.193  17.834  0.00  0.00    +0.000 S 
ATOM     23  C   UNL     1      47.971   9.029  19.021  0.00  0.00    +0.000 A 
ATOM     24  N   UNL     1      47.580   9.396  20.271  0.00  0.00    +0.000 NA
ATOM     25  C   UNL     1      47.370   8.409  21.077  0.00  0.00    +0.000 A 
ATOM     26  N   UNL     1      47.507   7.085  20.743  0.00  0.00    +0.000 N 
ATOM     27  C   UNL     1      47.855   6.668  19.485  0.00  0.00    +0.000 A 
ATOM     28  O   UNL     1      47.896   5.473  19.200  0.00  0.00    +0.000 OA
ATOM     29  C   UNL     1      48.131   7.740  18.548  0.00  0.00    +0.000 A 
ATOM     30  H   UNL     1      47.309   6.359  21.415  0.00  0.00    +0.000 HD
ENDBRANCH  17  20
ENDBRANCH   1  16
BRANCH   1  31
ATOM     31  C   UNL     1      47.537   3.284  16.161  0.00  0.00    +0.000 C 
BRANCH  31  32
ATOM     32  N   UNL     1      46.677   3.612  17.306  0.00  0.00    +0.000 NA
ATOM     33  H   UNL     1      45.823   3.062  17.268  0.00  0.00    +0.000 HD
ATOM     34  H   UNL     1      46.404   4.593  17.255  0.00  0.00    +0.000 HD
ENDBRANCH  31  32
ENDBRANCH   1  31
TORSDOF 8
ENDMDL
MODEL 5
REMARK VINA RESULT:    -7.642      2.036      2.324
REMARK INTER + INTRA:         -11.722
REMARK INTER:                 -10.403
REMARK INTRA:                  -1.319
REMARK UNBOUND:                -0.730
REMARK  Name = 
REMARK  8 active torsions:
REMARK  status: ('A' for Active; 'I' for Inactive)
REMARK    1  A    between atoms: N_1  and  C_2
REMARK    2  A    between atoms: C_2  and  C_3
REMARK    3  A    between atoms: C_3  and  N_4
REMARK    4  A    between atoms: C_3  and  C_17
REMARK    5  A    between atoms: C_5  and  C_7
REMARK    6  A    between atoms: C_20  and  C_21
REMARK    7  A    between atoms: C_21  and  O_22
REMARK    8  A    between atoms: O_22  and  C_23
REMARK                            x       y       z     vdW  Elec       q    Type
REMARK                         _______ _______ _______ _____ _____    ______ ____
ROOT
ATOM      1  C   UNL     1      47.472   7.852  13.187  0.00  0.00    +0.000 C 
ENDROOT
BRANCH   1   2
ATOM      2  C   UNL     1      46.525   6.758  12.716  0.00  0.00    +0.000 A 
ATOM      3  C   UNL     1      45.755   6.969  11.562  0.00  0.00    +0.000 A 
ATOM      4  C   UNL     1      44.981   5.940  11.025  0.00  0.00    +0.000 A 
ATOM      5  C   UNL     1      44.940   4.685  11.646  0.00  0.00    +0.000 A 
ATOM      6  C   UNL     1      45.647   4.492  12.836  0.00  0.00    +0.000 A 
ATOM      7  C   UNL     1      46.413   5.525  13.378  0.00  0.00    +0.000 A 
BRANCH   5   8
ATOM      8  C   UNL     1      44.193   3.539  11.016  0.00  0.00    +0.000 C 
BRANCH   8   9
ATOM      9  O   UNL     1      44.121   3.764   9.608  0.00  0.00    +0.000 OA
BRANCH   9  10
ATOM     10  C   UNL     1      45.073   3.151   8.843  0.00  0.00    +0.000 A 
ATOM     11  C   UNL     1      45.384   1.796   8.863  0.00  0.00    +0.000 A 
ATOM     12  C   UNL     1      46.378   1.338   8.015  0.00  0.00    +0.000 A 
ATOM     13  N   UNL     1      47.070   2.126   7.168  0.00  0.00    +0.000 NA
ATOM     14  C   UNL     1      46.752   3.438   7.171  0.00  0.00    +0.000 A 
ATOM     15  C   UNL     1      45.774   3.991   7.981  0.00  0.00    +0.000 A 
ENDBRANCH   9  10
ENDBRANCH   8   9
ENDBRANCH   5   8
ENDBRANCH   1   2
BRANCH   1  16
ATOM     16  N   UNL     1      47.587   7.783  14.631  0.00  0.00    +0.000 N 
ATOM     17  C   UNL     1      48.224   8.742  15.370  0.00  0.00    +0.000 C 
ATOM     18  O   UNL     1      48.644   9.787  14.889  0.00  0.00    +0.000 OA
ATOM     19  H   UNL     1      47.410   6.872  15.039  0.00  0.00    +0.000 HD
BRANCH  17  20
ATOM     20  C   UNL     1      48.343   8.452  16.806  0.00  0.00    +0.000 A 
ATOM     21  C   UNL     1      48.101   9.442  17.747  0.00  0.00    +0.000 A 
ATOM     22  S   UNL     1      48.263   8.898  19.358  0.00  0.00    +0.000 S 
ATOM     23  C   UNL     1      48.718   7.340  18.848  0.00  0.00    +0.000 A 
ATOM     24  N   UNL     1      49.039   6.370  19.746  0.00  0.00    +0.000 NA
ATOM     25  C   UNL     1      49.397   5.248  19.216  0.00  0.00    +0.000 A 
ATOM     26  N   UNL     1      49.456   5.005  17.867  0.00  0.00    +0.000 N 
ATOM     27  C   UNL     1      49.100   5.936  16.928  0.00  0.00    +0.000 A 
ATOM     28  O   UNL     1      49.093   5.661  15.729  0.00  0.00    +0.000 OA
ATOM     29  C   UNL     1      48.716   7.226  17.470  0.00  0.00    +0.000 A 
ATOM     30  H   UNL     1      49.727   4.099  17.516  0.00  0.00    +0.000 HD
ENDBRANCH  17  20
ENDBRANCH   1  16
BRANCH   1  31
ATOM     31  C   UNL     1      48.875   7.823  12.504  0.00  0.00    +0.000 C 
BRANCH  31  32
ATOM     32  N   UNL     1      49.681   6.647  12.858  0.00  0.00    +0.000 NA
ATOM     33  H   UNL     1      49.539   5.910  12.173  0.00  0.00    +0.000 HD
ATOM     34  H   UNL     1      49.371   6.283  13.758  0.00  0.00    +0.000 HD
ENDBRANCH  31  32
ENDBRANCH   1  31
TORSDOF 8
ENDMDL
MODEL 6
REMARK VINA RESULT:    -7.314      2.734      4.396
REMARK INTER + INTRA:         -11.251
REMARK INTER:                 -10.006
REMARK INTRA:                  -1.245
REMARK UNBOUND:                -0.730
REMARK  Name = 
REMARK  8 active torsions:
REMARK  status: ('A' for Active; 'I' for Inactive)
REMARK    1  A    between atoms: N_1  and  C_2
REMARK    2  A    between atoms: C_2  and  C_3
REMARK    3  A    between atoms: C_3  and  N_4
REMARK    4  A    between atoms: C_3  and  C_17
REMARK    5  A    between atoms: C_5  and  C_7
REMARK    6  A    between atoms: C_20  and  C_21
REMARK    7  A    between atoms: C_21  and  O_22
REMARK    8  A    between atoms: O_22  and  C_23
REMARK                            x       y       z     vdW  Elec       q    Type
REMARK                         _______ _______ _______ _____ _____    ______ ____
ROOT
ATOM      1  C   UNL     1      47.956   4.464  15.469  0.00  0.00    +0.000 C 
ENDROOT
BRANCH   1   2
ATOM      2  C   UNL     1      47.022   4.685  14.288  0.00  0.00    +0.000 A 
ATOM      3  C   UNL     1      46.919   5.967  13.728  0.00  0.00    +0.000 A 
ATOM      4  C   UNL     1      46.180   6.178  12.562  0.00  0.00    +0.000 A 
ATOM      5  C   UNL     1      45.509   5.114  11.947  0.00  0.00    +0.000 A 
ATOM      6  C   UNL     1      45.550   3.849  12.541  0.00  0.00    +0.000 A 
ATOM      7  C   UNL     1      46.279   3.642  13.712  0.00  0.00    +0.000 A 
BRANCH   5   8
ATOM      8  C   UNL     1      44.799   5.309  10.634  0.00  0.00    +0.000 C 
BRANCH   8   9
ATOM      9  O   UNL     1      44.409   4.030  10.134  0.00  0.00    +0.000 OA
BRANCH   9  10
ATOM     10  C   UNL     1      45.179   3.504   9.135  0.00  0.00    +0.000 A 
ATOM     11  C   UNL     1      45.805   4.228   8.125  0.00  0.00    +0.000 A 
ATOM     12  C   UNL     1      46.556   3.535   7.191  0.00  0.00    +0.000 A 
ATOM     13  N   UNL     1      46.719   2.197   7.196  0.00  0.00    +0.000 NA
ATOM     14  C   UNL     1      46.098   1.518   8.183  0.00  0.00    +0.000 A 
ATOM     15  C   UNL     1      45.325   2.120   9.162  0.00  0.00    +0.000 A 
ENDBRANCH   9  10
ENDBRANCH   8   9
ENDBRANCH   5   8
ENDBRANCH   1   2
BRANCH   1  16
ATOM     16  N   UNL     1      47.791   5.557  16.408  0.00  0.00    +0.000 N 
ATOM     17  C   UNL     1      48.768   5.931  17.289  0.00  0.00    +0.000 C 
ATOM     18  O   UNL     1      49.896   5.454  17.279  0.00  0.00    +0.000 OA
ATOM     19  H   UNL     1      46.835   5.857  16.563  0.00  0.00    +0.000 HD
BRANCH  17  20
ATOM     20  C   UNL     1      48.386   6.984  18.241  0.00  0.00    +0.000 A 
ATOM     21  C   UNL     1      48.167   6.680  19.577  0.00  0.00    +0.000 A 
ATOM     22  S   UNL     1      47.762   8.043  20.523  0.00  0.00    +0.000 S 
ATOM     23  C   UNL     1      47.811   9.071  19.168  0.00  0.00    +0.000 A 
ATOM     24  N   UNL     1      47.520  10.395  19.277  0.00  0.00    +0.000 NA
ATOM     25  C   UNL     1      47.563  11.046  18.163  0.00  0.00    +0.000 A 
ATOM     26  N   UNL     1      47.879  10.493  16.947  0.00  0.00    +0.000 N 
ATOM     27  C   UNL     1      48.221   9.175  16.796  0.00  0.00    +0.000 A 
ATOM     28  O   UNL     1      48.571   8.730  15.705  0.00  0.00    +0.000 OA
ATOM     29  C   UNL     1      48.160   8.392  18.016  0.00  0.00    +0.000 A 
ATOM     30  H   UNL     1      47.914  11.061  16.114  0.00  0.00    +0.000 HD
ENDBRANCH  17  20
ENDBRANCH   1  16
BRANCH   1  31
ATOM     31  C   UNL     1      47.784   3.082  16.173  0.00  0.00    +0.000 C 
BRANCH  31  32
ATOM     32  N   UNL     1      48.913   2.167  15.962  0.00  0.00    +0.000 NA
ATOM     33  H   UNL     1      49.370   2.376  15.078  0.00  0.00    +0.000 HD
ATOM     34  H   UNL     1      48.567   1.210  15.901  0.00  0.00    +0.000 HD
ENDBRANCH  31  32
ENDBRANCH   1  31
TORSDOF 8
ENDMDL
MODEL 7
REMARK VINA RESULT:    -7.191      2.273      2.871
REMARK INTER + INTRA:         -11.073
REMARK INTER:                  -9.360
REMARK INTRA:                  -1.713
REMARK UNBOUND:                -0.730
REMARK  Name = 
REMARK  8 active torsions:
REMARK  status: ('A' for Active; 'I' for Inactive)
REMARK    1  A    between atoms: N_1  and  C_2
REMARK    2  A    between atoms: C_2  and  C_3
REMARK    3  A    between atoms: C_3  and  N_4
REMARK    4  A    between atoms: C_3  and  C_17
REMARK    5  A    between atoms: C_5  and  C_7
REMARK    6  A    between atoms: C_20  and  C_21
REMARK    7  A    between atoms: C_21  and  O_22
REMARK    8  A    between atoms: O_22  and  C_23
REMARK                            x       y       z     vdW  Elec       q    Type
REMARK                         _______ _______ _______ _____ _____    ______ ____
ROOT
ATOM      1  C   UNL     1      47.739   7.753  13.500  0.00  0.00    +0.000 C 
ENDROOT
BRANCH   1   2
ATOM      2  C   UNL     1      46.686   6.817  12.923  0.00  0.00    +0.000 A 
ATOM      3  C   UNL     1      45.750   7.322  12.009  0.00  0.00    +0.000 A 
ATOM      4  C   UNL     1      44.859   6.467  11.357  0.00  0.00    +0.000 A 
ATOM      5  C   UNL     1      44.871   5.093  11.626  0.00  0.00    +0.000 A 
ATOM      6  C   UNL     1      45.753   4.596  12.590  0.00  0.00    +0.000 A 
ATOM      7  C   UNL     1      46.635   5.453  13.248  0.00  0.00    +0.000 A 
BRANCH   5   8
ATOM      8  C   UNL     1      43.989   4.150  10.851  0.00  0.00    +0.000 C 
BRANCH   8   9
ATOM      9  O   UNL     1      44.197   4.376   9.457  0.00  0.00    +0.000 OA
BRANCH   9  10
ATOM     10  C   UNL     1      45.048   3.517   8.820  0.00  0.00    +0.000 A 
ATOM     11  C   UNL     1      45.118   2.143   9.025  0.00  0.00    +0.000 A 
ATOM     12  C   UNL     1      46.039   1.416   8.289  0.00  0.00    +0.000 A 
ATOM     13  N   UNL     1      46.877   1.959   7.383  0.00  0.00    +0.000 NA
ATOM     14  C   UNL     1      46.792   3.294   7.207  0.00  0.00    +0.000 A 
ATOM     15  C   UNL     1      45.905   4.106   7.894  0.00  0.00    +0.000 A 
ENDBRANCH   9  10
ENDBRANCH   8   9
ENDBRANCH   5   8
ENDBRANCH   1   2
BRANCH   1  16
ATOM     16  N   UNL     1      48.244   7.187  14.736  0.00  0.00    +0.000 N 
ATOM     17  C   UNL     1      48.407   7.923  15.877  0.00  0.00    +0.000 C 
ATOM     18  O   UNL     1      48.034   9.085  15.981  0.00  0.00    +0.000 OA
ATOM     19  H   UNL     1      48.716   6.294  14.644  0.00  0.00    +0.000 HD
BRANCH  17  20
ATOM     20  C   UNL     1      49.036   7.212  16.999  0.00  0.00    +0.000 A 
ATOM     21  C   UNL     1      48.318   6.946  18.155  0.00  0.00    +0.000 A 
ATOM     22  S   UNL     1      49.217   6.086  19.327  0.00  0.00    +0.000 S 
ATOM     23  C   UNL     1      50.609   6.094  18.348  0.00  0.00    +0.000 A 
ATOM     24  N   UNL     1      51.775   5.541  18.779  0.00  0.00    +0.000 NA
ATOM     25  C   UNL     1      52.757   5.650  17.947  0.00  0.00    +0.000 A 
ATOM     26  N   UNL     1      52.677   6.255  16.718  0.00  0.00    +0.000 N 
ATOM     27  C   UNL     1      51.513   6.785  16.226  0.00  0.00    +0.000 A 
ATOM     28  O   UNL     1      51.458   7.253  15.090  0.00  0.00    +0.000 OA
ATOM     29  C   UNL     1      50.385   6.715  17.134  0.00  0.00    +0.000 A 
ATOM     30  H   UNL     1      53.478   6.290  16.106  0.00  0.00    +0.000 HD
ENDBRANCH  17  20
ENDBRANCH   1  16
BRANCH   1  31
ATOM     31  C   UNL     1      48.901   8.095  12.516  0.00  0.00    +0.000 C 
BRANCH  31  32
ATOM     32  N   UNL     1      49.944   7.063  12.452  0.00  0.00    +0.000 NA
ATOM     33  H   UNL     1      50.724   7.392  11.890  0.00  0.00    +0.000 HD
ATOM     34  H   UNL     1      49.572   6.234  11.991  0.00  0.00    +0.000 HD
ENDBRANCH  31  32
ENDBRANCH   1  31
TORSDOF 8
ENDMDL
MODEL 8
REMARK VINA RESULT:    -6.931      3.523      5.968
REMARK INTER + INTRA:         -10.700
REMARK INTER:                  -9.822
REMARK INTRA:                  -0.878
REMARK UNBOUND:                -0.730
REMARK  Name = 
REMARK  8 active torsions:
REMARK  status: ('A' for Active; 'I' for Inactive)
REMARK    1  A    between atoms: N_1  and  C_2
REMARK    2  A    between atoms: C_2  and  C_3
REMARK    3  A    between atoms: C_3  and  N_4
REMARK    4  A    between atoms: C_3  and  C_17
REMARK    5  A    between atoms: C_5  and  C_7
REMARK    6  A    between atoms: C_20  and  C_21
REMARK    7  A    between atoms: C_21  and  O_22
REMARK    8  A    between atoms: O_22  and  C_23
REMARK                            x       y       z     vdW  Elec       q    Type
REMARK                         _______ _______ _______ _____ _____    ______ ____
ROOT
ATOM      1  C   UNL     1      48.230   4.022  17.652  0.00  0.00    +0.000 C 
ENDROOT
BRANCH   1   2
ATOM      2  C   UNL     1      48.022   4.668  16.290  0.00  0.00    +0.000 A 
ATOM      3  C   UNL     1      47.165   4.052  15.365  0.00  0.00    +0.000 A 
ATOM      4  C   UNL     1      46.845   4.684  14.162  0.00  0.00    +0.000 A 
ATOM      5  C   UNL     1      47.396   5.932  13.849  0.00  0.00    +0.000 A 
ATOM      6  C   UNL     1      48.307   6.516  14.734  0.00  0.00    +0.000 A 
ATOM      7  C   UNL     1      48.635   5.878  15.931  0.00  0.00    +0.000 A 
BRANCH   5   8
ATOM      8  C   UNL     1      46.975   6.669  12.605  0.00  0.00    +0.000 C 
BRANCH   8   9
ATOM      9  O   UNL     1      45.562   6.871  12.653  0.00  0.00    +0.000 OA
BRANCH   9  10
ATOM     10  C   UNL     1      44.790   5.939  12.018  0.00  0.00    +0.000 A 
ATOM     11  C   UNL     1      43.570   5.449  12.471  0.00  0.00    +0.000 A 
ATOM     12  C   UNL     1      42.914   4.506  11.698  0.00  0.00    +0.000 A 
ATOM     13  N   UNL     1      43.386   4.028  10.529  0.00  0.00    +0.000 NA
ATOM     14  C   UNL     1      44.574   4.517  10.114  0.00  0.00    +0.000 A 
ATOM     15  C   UNL     1      45.305   5.460  10.816  0.00  0.00    +0.000 A 
ENDBRANCH   9  10
ENDBRANCH   8   9
ENDBRANCH   5   8
ENDBRANCH   1   2
BRANCH   1  16
ATOM     16  N   UNL     1      49.619   3.629  17.779  0.00  0.00    +0.000 N 
ATOM     17  C   UNL     1      50.146   2.547  17.130  0.00  0.00    +0.000 C 
ATOM     18  O   UNL     1      49.522   1.894  16.304  0.00  0.00    +0.000 OA
ATOM     19  H   UNL     1      50.115   4.030  18.568  0.00  0.00    +0.000 HD
BRANCH  17  20
ATOM     20  C   UNL     1      51.543   2.233  17.464  0.00  0.00    +0.000 A 
ATOM     21  C   UNL     1      51.941   0.918  17.661  0.00  0.00    +0.000 A 
ATOM     22  S   UNL     1      53.606   0.761  18.011  0.00  0.00    +0.000 S 
ATOM     23  C   UNL     1      53.834   2.447  17.966  0.00  0.00    +0.000 A 
ATOM     24  N   UNL     1      55.050   3.000  18.220  0.00  0.00    +0.000 NA
ATOM     25  C   UNL     1      55.068   4.291  18.185  0.00  0.00    +0.000 A 
ATOM     26  N   UNL     1      53.980   5.080  17.909  0.00  0.00    +0.000 N 
ATOM     27  C   UNL     1      52.747   4.566  17.605  0.00  0.00    +0.000 A 
ATOM     28  O   UNL     1      51.812   5.300  17.290  0.00  0.00    +0.000 OA
ATOM     29  C   UNL     1      52.666   3.119  17.659  0.00  0.00    +0.000 A 
ATOM     30  H   UNL     1      54.065   6.085  17.879  0.00  0.00    +0.000 HD
ENDBRANCH  17  20
ENDBRANCH   1  16
BRANCH   1  31
ATOM     31  C   UNL     1      47.778   4.906  18.856  0.00  0.00    +0.000 C 
BRANCH  31  32
ATOM     32  N   UNL     1      46.409   5.424  18.729  0.00  0.00    +0.000 NA
ATOM     33  H   UNL     1      46.306   5.919  17.847  0.00  0.00    +0.000 HD
ATOM     34  H   UNL     1      46.231   6.097  19.473  0.00  0.00    +0.000 HD
ENDBRANCH  31  32
ENDBRANCH   1  31
TORSDOF 8
ENDMDL
MODEL 9
REMARK VINA RESULT:    -6.644      2.171      3.113
REMARK INTER + INTRA:         -10.287
REMARK INTER:                  -8.933
REMARK INTRA:                  -1.354
REMARK UNBOUND:                -0.730
REMARK  Name = 
REMARK  8 active torsions:
REMARK  status: ('A' for Active; 'I' for Inactive)
REMARK    1  A    between atoms: N_1  and  C_2
REMARK    2  A    between atoms: C_2  and  C_3
REMARK    3  A    between atoms: C_3  and  N_4
REMARK    4  A    between atoms: C_3  and  C_17
REMARK    5  A    between atoms: C_5  and  C_7
REMARK    6  A    between atoms: C_20  and  C_21
REMARK    7  A    between atoms: C_21  and  O_22
REMARK    8  A    between atoms: O_22  and  C_23
REMARK                            x       y       z     vdW  Elec       q    Type
REMARK                         _______ _______ _______ _____ _____    ______ ____
ROOT
ATOM      1  C   UNL     1      49.129   8.749  14.187  0.00  0.00    +0.000 C 
ENDROOT
BRANCH   1   2
ATOM      2  C   UNL     1      47.986   8.274  13.301  0.00  0.00    +0.000 A 
ATOM      3  C   UNL     1      48.198   7.192  12.434  0.00  0.00    +0.000 A 
ATOM      4  C   UNL     1      47.138   6.642  11.709  0.00  0.00    +0.000 A 
ATOM      5  C   UNL     1      45.851   7.182  11.819  0.00  0.00    +0.000 A 
ATOM      6  C   UNL     1      45.650   8.306  12.626  0.00  0.00    +0.000 A 
ATOM      7  C   UNL     1      46.712   8.860  13.341  0.00  0.00    +0.000 A 
BRANCH   5   8
ATOM      8  C   UNL     1      44.683   6.532  11.125  0.00  0.00    +0.000 C 
BRANCH   8   9
ATOM      9  O   UNL     1      44.752   5.123  11.345  0.00  0.00    +0.000 OA
BRANCH   9  10
ATOM     10  C   UNL     1      44.929   4.341  10.238  0.00  0.00    +0.000 A 
ATOM     11  C   UNL     1      45.479   4.756   9.030  0.00  0.00    +0.000 A 
ATOM     12  C   UNL     1      45.591   3.829   8.007  0.00  0.00    +0.000 A 
ATOM     13  N   UNL     1      45.197   2.544   8.107  0.00  0.00    +0.000 NA
ATOM     14  C   UNL     1      44.662   2.168   9.288  0.00  0.00    +0.000 A 
ATOM     15  C   UNL     1      44.508   3.020  10.369  0.00  0.00    +0.000 A 
ENDBRANCH   9  10
ENDBRANCH   8   9
ENDBRANCH   5   8
ENDBRANCH   1   2
BRANCH   1  16
ATOM     16  N   UNL     1      49.183   7.915  15.372  0.00  0.00    +0.000 N 
ATOM     17  C   UNL     1      48.602   8.273  16.557  0.00  0.00    +0.000 C 
ATOM     18  O   UNL     1      47.895   9.265  16.682  0.00  0.00    +0.000 OA
ATOM     19  H   UNL     1      49.887   7.186  15.360  0.00  0.00    +0.000 HD
BRANCH  17  20
ATOM     20  C   UNL     1      48.853   7.360  17.681  0.00  0.00    +0.000 A 
ATOM     21  C   UNL     1      49.299   7.849  18.900  0.00  0.00    +0.000 A 
ATOM     22  S   UNL     1      49.501   6.633  20.083  0.00  0.00    +0.000 S 
ATOM     23  C   UNL     1      49.055   5.411  18.987  0.00  0.00    +0.000 A 
ATOM     24  N   UNL     1      49.052   4.101  19.356  0.00  0.00    +0.000 NA
ATOM     25  C   UNL     1      48.726   3.281  18.413  0.00  0.00    +0.000 A 
ATOM     26  N   UNL     1      48.393   3.653  17.134  0.00  0.00    +0.000 N 
ATOM     27  C   UNL     1      48.340   4.961  16.731  0.00  0.00    +0.000 A 
ATOM     28  O   UNL     1      47.966   5.264  15.599  0.00  0.00    +0.000 OA
ATOM     29  C   UNL     1      48.727   5.923  17.746  0.00  0.00    +0.000 A 
ATOM     30  H   UNL     1      48.129   2.963  16.448  0.00  0.00    +0.000 HD
ENDBRANCH  17  20
ENDBRANCH   1  16
BRANCH   1  31
ATOM     31  C   UNL     1      50.515   8.806  13.470  0.00  0.00    +0.000 C 
BRANCH  31  32
ATOM     32  N   UNL     1      51.473   7.805  13.957  0.00  0.00    +0.000 NA
ATOM     33  H   UNL     1      51.961   7.380  13.173  0.00  0.00    +0.000 HD
ATOM     34  H   UNL     1      50.970   7.059  14.437  0.00  0.00    +0.000 HD
ENDBRANCH  31  32
ENDBRANCH   1  31
TORSDOF 8
ENDMDL
