MODEL 1
REMARK VINA RESULT:    -8.226      0.000      0.000
REMARK INTER + INTRA:         -11.682
REMARK INTER:                 -10.630
REMARK INTRA:                  -1.051
REMARK UNBOUND:                -1.051
REMARK  Name = 
REMARK  6 active torsions:
REMARK  status: ('A' for Active; 'I' for Inactive)
REMARK    1  A    between atoms: C_1  and  O_2
REMARK    2  A    between atoms: O_2  and  C_3
REMARK    3  A    between atoms: C_7  and  N_8
REMARK    4  A    between atoms: C_12  and  C_13
REMARK    5  A    between atoms: C_13  and  N_14
REMARK    6  A    between atoms: C_15  and  C_17
REMARK                            x       y       z     vdW  Elec       q    Type
REMARK                         _______ _______ _______ _____ _____    ______ ____
ROOT
ATOM      1  N   UNL     1      44.767   5.741  10.055  0.00  0.00    +0.000 N 
ATOM      2  C   UNL     1      45.471   6.479  11.011  0.00  0.00    +0.000 A 
ATOM      3  C   UNL     1      44.795   7.464  11.729  0.00  0.00    +0.000 A 
ATOM      4  C   UNL     1      45.464   8.177  12.725  0.00  0.00    +0.000 A 
ATOM      5  C   UNL     1      46.802   7.891  12.999  0.00  0.00    +0.000 A 
ATOM      6  C   UNL     1      47.402   6.910  12.231  0.00  0.00    +0.000 A 
ATOM      7  N   UNL     1      46.769   6.213  11.263  0.00  0.00    +0.000 NA
ATOM      8  H   UNL     1      43.814   6.018   9.878  0.00  0.00    +0.000 HD
ENDROOT
BRANCH   1  13
ATOM      9  C   UNL     1      46.050   3.419   7.702  0.00  0.00    +0.000 A 
ATOM     10  C   UNL     1      45.568   2.183   8.090  0.00  0.00    +0.000 A 
ATOM     11  C   UNL     1      44.787   2.125   9.233  0.00  0.00    +0.000 A 
ATOM     12  C   UNL     1      44.517   3.299   9.929  0.00  0.00    +0.000 A 
ATOM     13  C   UNL     1      45.026   4.510   9.469  0.00  0.00    +0.000 A 
ATOM     14  N   UNL     1      45.802   4.569   8.367  0.00  0.00    +0.000 NA
BRANCH   9  16
ATOM     15  C   UNL     1      47.840   2.447   6.564  0.00  0.00    +0.000 C 
ATOM     16  O   UNL     1      46.827   3.450   6.560  0.00  0.00    +0.000 OA
ENDBRANCH   9  16
ENDBRANCH   1  13
BRANCH   5  17
ATOM     17  C   UNL     1      47.577   8.643  14.039  0.00  0.00    +0.000 C 
BRANCH  17  18
ATOM     18  N   UNL     1      47.892   7.794  15.160  0.00  0.00    +0.000 N 
ATOM     19  C   UNL     1      49.131   7.221  15.293  0.00  0.00    +0.000 C 
ATOM     20  O   UNL     1      50.033   7.428  14.490  0.00  0.00    +0.000 OA
ATOM     21  H   UNL     1      47.113   7.424  15.697  0.00  0.00    +0.000 HD
BRANCH  19  22
ATOM     22  C   UNL     1      49.337   6.392  16.490  0.00  0.00    +0.000 A 
ATOM     23  C   UNL     1      50.306   6.754  17.417  0.00  0.00    +0.000 A 
ATOM     24  S   UNL     1      50.385   5.711  18.765  0.00  0.00    +0.000 S 
ATOM     25  C   UNL     1      49.166   4.709  18.131  0.00  0.00    +0.000 A 
ATOM     26  N   UNL     1      48.769   3.588  18.791  0.00  0.00    +0.000 NA
ATOM     27  C   UNL     1      47.862   2.901  18.179  0.00  0.00    +0.000 A 
ATOM     28  N   UNL     1      47.309   3.240  16.972  0.00  0.00    +0.000 N 
ATOM     29  C   UNL     1      47.649   4.383  16.290  0.00  0.00    +0.000 A 
ATOM     30  O   UNL     1      47.092   4.689  15.240  0.00  0.00    +0.000 OA
ATOM     31  C   UNL     1      48.686   5.178  16.920  0.00  0.00    +0.000 A 
ATOM     32  H   UNL     1      46.590   2.667  16.555  0.00  0.00    +0.000 HD
ENDBRANCH  19  22
ENDBRANCH  17  18
ENDBRANCH   5  17
TORSDOF 5
ENDMDL
MODEL 2
REMARK VINA RESULT:    -7.219      4.654      9.231
REMARK INTER + INTRA:         -10.381
REMARK INTER:                  -9.710
REMARK INTRA:                  -0.671
REMARK UNBOUND:                -1.051
REMARK  Name = 
REMARK  6 active torsions:
REMARK  status: ('A' for Active; 'I' for Inactive)
REMARK    1  A    between atoms: C_1  and  O_2
REMARK    2  A    between atoms: O_2  and  C_3
REMARK    3  A    between atoms: C_7  and  N_8
REMARK    4  A    between atoms: C_12  and  C_13
REMARK    5  A    between atoms: C_13  and  N_14
REMARK    6  A    between atoms: C_15  and  C_17
REMARK                            x       y       z     vdW  Elec       q    Type
REMARK                         _______ _______ _______ _____ _____    ______ ____
ROOT
ATOM      1  N   UNL     1      51.752   0.966  17.454  0.00  0.00    +0.000 N 
ATOM      2  C   UNL     1      51.029   2.160  17.381  0.00  0.00    +0.000 A 
ATOM      3  C   UNL     1      49.638   2.099  17.327  0.00  0.00    +0.000 A 
ATOM      4  C   UNL     1      48.893   3.279  17.306  0.00  0.00    +0.000 A 
ATOM      5  C   UNL     1      49.548   4.510  17.350  0.00  0.00    +0.000 A 
ATOM      6  C   UNL     1      50.930   4.482  17.389  0.00  0.00    +0.000 A 
ATOM      7  N   UNL     1      51.665   3.350  17.407  0.00  0.00    +0.000 NA
ATOM      8  H   UNL     1      51.225   0.110  17.383  0.00  0.00    +0.000 HD
ENDROOT
BRANCH   1  13
ATOM      9  C   UNL     1      54.411  -0.789  19.010  0.00  0.00    +0.000 A 
ATOM     10  C   UNL     1      55.522   0.024  18.892  0.00  0.00    +0.000 A 
ATOM     11  C   UNL     1      55.371   1.227  18.219  0.00  0.00    +0.000 A 
ATOM     12  C   UNL     1      54.123   1.563  17.704  0.00  0.00    +0.000 A 
ATOM     13  C   UNL     1      53.047   0.698  17.876  0.00  0.00    +0.000 A 
ATOM     14  N   UNL     1      53.193  -0.481  18.514  0.00  0.00    +0.000 NA
BRANCH   9  16
ATOM     15  C   UNL     1      53.382  -2.736  19.782  0.00  0.00    +0.000 C 
ATOM     16  O   UNL     1      54.587  -1.982  19.684  0.00  0.00    +0.000 OA
ENDBRANCH   9  16
ENDBRANCH   1  13
BRANCH   5  17
ATOM     17  C   UNL     1      48.800   5.809  17.305  0.00  0.00    +0.000 C 
BRANCH  17  18
ATOM     18  N   UNL     1      47.900   5.846  16.181  0.00  0.00    +0.000 N 
ATOM     19  C   UNL     1      48.316   6.290  14.951  0.00  0.00    +0.000 C 
ATOM     20  O   UNL     1      49.470   6.641  14.742  0.00  0.00    +0.000 OA
ATOM     21  H   UNL     1      46.906   5.789  16.379  0.00  0.00    +0.000 HD
BRANCH  19  22
ATOM     22  C   UNL     1      47.311   6.260  13.878  0.00  0.00    +0.000 A 
ATOM     23  C   UNL     1      46.918   7.447  13.273  0.00  0.00    +0.000 A 
ATOM     24  S   UNL     1      45.779   7.231  12.021  0.00  0.00    +0.000 S 
ATOM     25  C   UNL     1      45.730   5.551  12.280  0.00  0.00    +0.000 A 
ATOM     26  N   UNL     1      44.908   4.753  11.545  0.00  0.00    +0.000 NA
ATOM     27  C   UNL     1      44.945   3.504  11.871  0.00  0.00    +0.000 A 
ATOM     28  N   UNL     1      45.738   2.978  12.858  0.00  0.00    +0.000 N 
ATOM     29  C   UNL     1      46.613   3.738  13.596  0.00  0.00    +0.000 A 
ATOM     30  O   UNL     1      47.354   3.228  14.431  0.00  0.00    +0.000 OA
ATOM     31  C   UNL     1      46.591   5.156  13.289  0.00  0.00    +0.000 A 
ATOM     32  H   UNL     1      45.732   1.988  13.051  0.00  0.00    +0.000 HD
ENDBRANCH  19  22
ENDBRANCH  17  18
ENDBRANCH   5  17
TORSDOF 5
ENDMDL
MODEL 3
REMARK VINA RESULT:    -6.686      2.974      8.444
REMARK INTER + INTRA:          -9.691
REMARK INTER:                  -9.273
REMARK INTRA:                  -0.419
REMARK UNBOUND:                -1.051
REMARK  Name = 
REMARK  6 active torsions:
REMARK  status: ('A' for Active; 'I' for Inactive)
REMARK    1  A    between atoms: C_1  and  O_2
REMARK    2  A    between atoms: O_2  and  C_3
REMARK    3  A    between atoms: C_7  and  N_8
REMARK    4  A    between atoms: C_12  and  C_13
REMARK    5  A    between atoms: C_13  and  N_14
REMARK    6  A    between atoms: C_15  and  C_17
REMARK                            x       y       z     vdW  Elec       q    Type
REMARK                         _______ _______ _______ _____ _____    ______ ____
ROOT
ATOM      1  N   UNL     1      50.964   7.056  16.367  0.00  0.00    +0.000 N 
ATOM      2  C   UNL     1      50.025   7.246  15.351  0.00  0.00    +0.000 A 
ATOM      3  C   UNL     1      50.067   8.427  14.612  0.00  0.00    +0.000 A 
ATOM      4  C   UNL     1      49.172   8.617  13.558  0.00  0.00    +0.000 A 
ATOM      5  C   UNL     1      48.248   7.619  13.248  0.00  0.00    +0.000 A 
ATOM      6  C   UNL     1      48.263   6.485  14.040  0.00  0.00    +0.000 A 
ATOM      7  N   UNL     1      49.121   6.287  15.063  0.00  0.00    +0.000 NA
ATOM      8  H   UNL     1      51.583   7.827  16.566  0.00  0.00    +0.000 HD
ENDROOT
BRANCH   1  13
ATOM      9  C   UNL     1      50.863   3.754  17.657  0.00  0.00    +0.000 A 
ATOM     10  C   UNL     1      52.067   3.566  18.310  0.00  0.00    +0.000 A 
ATOM     11  C   UNL     1      52.981   4.608  18.289  0.00  0.00    +0.000 A 
ATOM     12  C   UNL     1      52.651   5.785  17.626  0.00  0.00    +0.000 A 
ATOM     13  C   UNL     1      51.413   5.906  17.003  0.00  0.00    +0.000 A 
ATOM     14  N   UNL     1      50.527   4.889  17.006  0.00  0.00    +0.000 NA
BRANCH   9  16
ATOM     15  C   UNL     1      48.734   3.014  17.054  0.00  0.00    +0.000 C 
ATOM     16  O   UNL     1      49.970   2.701  17.691  0.00  0.00    +0.000 OA
ENDBRANCH   9  16
ENDBRANCH   1  13
BRANCH   5  17
ATOM     17  C   UNL     1      47.246   7.779  12.144  0.00  0.00    +0.000 C 
BRANCH  17  18
ATOM     18  N   UNL     1      46.606   6.524  11.843  0.00  0.00    +0.000 N 
ATOM     19  C   UNL     1      45.245   6.439  11.687  0.00  0.00    +0.000 C 
ATOM     20  O   UNL     1      44.519   7.422  11.762  0.00  0.00    +0.000 OA
ATOM     21  H   UNL     1      47.141   5.677  12.008  0.00  0.00    +0.000 HD
BRANCH  19  22
ATOM     22  C   UNL     1      44.713   5.108  11.361  0.00  0.00    +0.000 A 
ATOM     23  C   UNL     1      43.928   4.436  12.288  0.00  0.00    +0.000 A 
ATOM     24  S   UNL     1      43.357   2.926  11.736  0.00  0.00    +0.000 S 
ATOM     25  C   UNL     1      44.183   3.092  10.259  0.00  0.00    +0.000 A 
ATOM     26  N   UNL     1      44.140   2.109   9.319  0.00  0.00    +0.000 NA
ATOM     27  C   UNL     1      44.841   2.351   8.261  0.00  0.00    +0.000 A 
ATOM     28  N   UNL     1      45.573   3.491   8.054  0.00  0.00    +0.000 N 
ATOM     29  C   UNL     1      45.613   4.527   8.956  0.00  0.00    +0.000 A 
ATOM     30  O   UNL     1      46.229   5.561   8.714  0.00  0.00    +0.000 OA
ATOM     31  C   UNL     1      44.864   4.295  10.177  0.00  0.00    +0.000 A 
ATOM     32  H   UNL     1      46.087   3.626   7.196  0.00  0.00    +0.000 HD
ENDBRANCH  19  22
ENDBRANCH  17  18
ENDBRANCH   5  17
TORSDOF 5
ENDMDL
MODEL 4
REMARK VINA RESULT:    -6.678      3.337      8.956
REMARK INTER + INTRA:          -9.681
REMARK INTER:                  -9.287
REMARK INTRA:                  -0.395
REMARK UNBOUND:                -1.051
REMARK  Name = 
REMARK  6 active torsions:
REMARK  status: ('A' for Active; 'I' for Inactive)
REMARK    1  A    between atoms: C_1  and  O_2
REMARK    2  A    between atoms: O_2  and  C_3
REMARK    3  A    between atoms: C_7  and  N_8
REMARK    4  A    between atoms: C_12  and  C_13
REMARK    5  A    between atoms: C_13  and  N_14
REMARK    6  A    between atoms: C_15  and  C_17
REMARK                            x       y       z     vdW  Elec       q    Type
REMARK                         _______ _______ _______ _____ _____    ______ ____
ROOT
ATOM      1  N   UNL     1      47.680   5.881  15.478  0.00  0.00    +0.000 N 
ATOM      2  C   UNL     1      46.888   5.676  14.345  0.00  0.00    +0.000 A 
ATOM      3  C   UNL     1      46.988   6.577  13.287  0.00  0.00    +0.000 A 
ATOM      4  C   UNL     1      46.245   6.364  12.124  0.00  0.00    +0.000 A 
ATOM      5  C   UNL     1      45.415   5.247  12.029  0.00  0.00    +0.000 A 
ATOM      6  C   UNL     1      45.363   4.411  13.130  0.00  0.00    +0.000 A 
ATOM      7  N   UNL     1      46.073   4.604  14.262  0.00  0.00    +0.000 NA
ATOM      8  H   UNL     1      48.232   6.724  15.502  0.00  0.00    +0.000 HD
ENDROOT
BRANCH   1  13
ATOM      9  C   UNL     1      49.110   3.004  16.980  0.00  0.00    +0.000 A 
ATOM     10  C   UNL     1      48.863   3.122  18.335  0.00  0.00    +0.000 A 
ATOM     11  C   UNL     1      48.199   4.258  18.772  0.00  0.00    +0.000 A 
ATOM     12  C   UNL     1      47.807   5.214  17.841  0.00  0.00    +0.000 A 
ATOM     13  C   UNL     1      48.079   5.018  16.491  0.00  0.00    +0.000 A 
ATOM     14  N   UNL     1      48.740   3.923  16.062  0.00  0.00    +0.000 NA
BRANCH   9  16
ATOM     15  C   UNL     1      50.940   1.604  17.346  0.00  0.00    +0.000 C 
ATOM     16  O   UNL     1      49.774   1.864  16.569  0.00  0.00    +0.000 OA
ENDBRANCH   9  16
ENDBRANCH   1  13
BRANCH   5  17
ATOM     17  C   UNL     1      44.576   4.982  10.815  0.00  0.00    +0.000 C 
BRANCH  17  18
ATOM     18  N   UNL     1      45.253   4.094   9.905  0.00  0.00    +0.000 N 
ATOM     19  C   UNL     1      44.770   2.836   9.648  0.00  0.00    +0.000 C 
ATOM     20  O   UNL     1      43.732   2.422  10.150  0.00  0.00    +0.000 OA
ATOM     21  H   UNL     1      46.214   4.315   9.667  0.00  0.00    +0.000 HD
BRANCH  19  22
ATOM     22  C   UNL     1      45.536   2.031   8.685  0.00  0.00    +0.000 A 
ATOM     23  C   UNL     1      45.426   0.647   8.704  0.00  0.00    +0.000 A 
ATOM     24  S   UNL     1      46.347  -0.129   7.496  0.00  0.00    +0.000 S 
ATOM     25  C   UNL     1      46.968   1.353   6.939  0.00  0.00    +0.000 A 
ATOM     26  N   UNL     1      47.864   1.397   5.916  0.00  0.00    +0.000 NA
ATOM     27  C   UNL     1      48.280   2.583   5.620  0.00  0.00    +0.000 A 
ATOM     28  N   UNL     1      47.873   3.732   6.248  0.00  0.00    +0.000 N 
ATOM     29  C   UNL     1      46.939   3.740   7.256  0.00  0.00    +0.000 A 
ATOM     30  O   UNL     1      46.550   4.791   7.756  0.00  0.00    +0.000 OA
ATOM     31  C   UNL     1      46.459   2.428   7.648  0.00  0.00    +0.000 A 
ATOM     32  H   UNL     1      48.224   4.631   5.956  0.00  0.00    +0.000 HD
ENDBRANCH  19  22
ENDBRANCH  17  18
ENDBRANCH   5  17
TORSDOF 5
ENDMDL
MODEL 5
REMARK VINA RESULT:    -6.595      4.054      6.038
REMARK INTER + INTRA:          -9.573
REMARK INTER:                  -8.874
REMARK INTRA:                  -0.699
REMARK UNBOUND:                -1.051
REMARK  Name = 
REMARK  6 active torsions:
REMARK  status: ('A' for Active; 'I' for Inactive)
REMARK    1  A    between atoms: C_1  and  O_2
REMARK    2  A    between atoms: O_2  and  C_3
REMARK    3  A    between atoms: C_7  and  N_8
REMARK    4  A    between atoms: C_12  and  C_13
REMARK    5  A    between atoms: C_13  and  N_14
REMARK    6  A    between atoms: C_15  and  C_17
REMARK                            x       y       z     vdW  Elec       q    Type
REMARK                         _______ _______ _______ _____ _____    ______ ____
ROOT
ATOM      1  N   UNL     1      46.754   3.682  14.696  0.00  0.00    +0.000 N 
ATOM      2  C   UNL     1      47.484   3.953  15.856  0.00  0.00    +0.000 A 
ATOM      3  C   UNL     1      48.043   2.888  16.560  0.00  0.00    +0.000 A 
ATOM      4  C   UNL     1      48.819   3.138  17.693  0.00  0.00    +0.000 A 
ATOM      5  C   UNL     1      49.036   4.453  18.105  0.00  0.00    +0.000 A 
ATOM      6  C   UNL     1      48.434   5.449  17.359  0.00  0.00    +0.000 A 
ATOM      7  N   UNL     1      47.679   5.224  16.263  0.00  0.00    +0.000 NA
ATOM      8  H   UNL     1      46.603   2.710  14.469  0.00  0.00    +0.000 HD
ENDROOT
BRANCH   1  13
ATOM      9  C   UNL     1      44.884   4.821  11.907  0.00  0.00    +0.000 A 
ATOM     10  C   UNL     1      45.595   5.885  11.384  0.00  0.00    +0.000 A 
ATOM     11  C   UNL     1      46.762   6.260  12.031  0.00  0.00    +0.000 A 
ATOM     12  C   UNL     1      47.168   5.555  13.159  0.00  0.00    +0.000 A 
ATOM     13  C   UNL     1      46.407   4.485  13.618  0.00  0.00    +0.000 A 
ATOM     14  N   UNL     1      45.260   4.127  13.003  0.00  0.00    +0.000 NA
BRANCH   9  16
ATOM     15  C   UNL     1      42.579   5.146  11.755  0.00  0.00    +0.000 C 
ATOM     16  O   UNL     1      43.723   4.468  11.246  0.00  0.00    +0.000 OA
ENDBRANCH   9  16
ENDBRANCH   1  13
BRANCH   5  17
ATOM     17  C   UNL     1      49.839   4.779  19.328  0.00  0.00    +0.000 C 
BRANCH  17  18
ATOM     18  N   UNL     1      51.015   3.949  19.408  0.00  0.00    +0.000 N 
ATOM     19  C   UNL     1      52.180   4.302  18.774  0.00  0.00    +0.000 C 
ATOM     20  O   UNL     1      52.286   5.347  18.143  0.00  0.00    +0.000 OA
ATOM     21  H   UNL     1      50.888   2.990  19.716  0.00  0.00    +0.000 HD
BRANCH  19  22
ATOM     22  C   UNL     1      53.316   3.385  18.948  0.00  0.00    +0.000 A 
ATOM     23  C   UNL     1      54.445   3.813  19.633  0.00  0.00    +0.000 A 
ATOM     24  S   UNL     1      55.650   2.614  19.781  0.00  0.00    +0.000 S 
ATOM     25  C   UNL     1      54.728   1.499  18.888  0.00  0.00    +0.000 A 
ATOM     26  N   UNL     1      55.207   0.255  18.614  0.00  0.00    +0.000 NA
ATOM     27  C   UNL     1      54.419  -0.475  17.897  0.00  0.00    +0.000 A 
ATOM     28  N   UNL     1      53.190  -0.078  17.438  0.00  0.00    +0.000 N 
ATOM     29  C   UNL     1      52.648   1.152  17.724  0.00  0.00    +0.000 A 
ATOM     30  O   UNL     1      51.520   1.455  17.349  0.00  0.00    +0.000 OA
ATOM     31  C   UNL     1      53.506   2.024  18.505  0.00  0.00    +0.000 A 
ATOM     32  H   UNL     1      52.615  -0.704  16.895  0.00  0.00    +0.000 HD
ENDBRANCH  19  22
ENDBRANCH  17  18
ENDBRANCH   5  17
TORSDOF 5
ENDMDL
MODEL 6
REMARK VINA RESULT:    -6.522      3.570      5.843
REMARK INTER + INTRA:          -9.479
REMARK INTER:                  -8.511
REMARK INTRA:                  -0.968
REMARK UNBOUND:                -1.051
REMARK  Name = 
REMARK  6 active torsions:
REMARK  status: ('A' for Active; 'I' for Inactive)
REMARK    1  A    between atoms: C_1  and  O_2
REMARK    2  A    between atoms: O_2  and  C_3
REMARK    3  A    between atoms: C_7  and  N_8
REMARK    4  A    between atoms: C_12  and  C_13
REMARK    5  A    between atoms: C_13  and  N_14
REMARK    6  A    between atoms: C_15  and  C_17
REMARK                            x       y       z     vdW  Elec       q    Type
REMARK                         _______ _______ _______ _____ _____    ______ ____
ROOT
ATOM      1  N   UNL     1      44.941  10.133  11.385  0.00  0.00    +0.000 N 
ATOM      2  C   UNL     1      45.295   8.867  11.861  0.00  0.00    +0.000 A 
ATOM      3  C   UNL     1      46.412   8.750  12.687  0.00  0.00    +0.000 A 
ATOM      4  C   UNL     1      46.754   7.505  13.216  0.00  0.00    +0.000 A 
ATOM      5  C   UNL     1      45.970   6.390  12.920  0.00  0.00    +0.000 A 
ATOM      6  C   UNL     1      44.889   6.590  12.082  0.00  0.00    +0.000 A 
ATOM      7  N   UNL     1      44.546   7.787  11.561  0.00  0.00    +0.000 NA
ATOM      8  H   UNL     1      45.566  10.893  11.604  0.00  0.00    +0.000 HD
ENDROOT
BRANCH   1  13
ATOM      9  C   UNL     1      41.588  11.284  11.406  0.00  0.00    +0.000 A 
ATOM     10  C   UNL     1      41.255  11.505  10.082  0.00  0.00    +0.000 A 
ATOM     11  C   UNL     1      42.233  11.280   9.126  0.00  0.00    +0.000 A 
ATOM     12  C   UNL     1      43.489  10.840   9.532  0.00  0.00    +0.000 A 
ATOM     13  C   UNL     1      43.744  10.626  10.883  0.00  0.00    +0.000 A 
ATOM     14  N   UNL     1      42.801  10.860  11.819  0.00  0.00    +0.000 NA
BRANCH   9  16
ATOM     15  C   UNL     1      39.298  11.195  11.847  0.00  0.00    +0.000 C 
ATOM     16  O   UNL     1      40.596  11.516  12.339  0.00  0.00    +0.000 OA
ENDBRANCH   9  16
ENDBRANCH   1  13
BRANCH   5  17
ATOM     17  C   UNL     1      46.305   5.024  13.440  0.00  0.00    +0.000 C 
BRANCH  17  18
ATOM     18  N   UNL     1      46.918   5.104  14.742  0.00  0.00    +0.000 N 
ATOM     19  C   UNL     1      47.491   4.003  15.327  0.00  0.00    +0.000 C 
ATOM     20  O   UNL     1      47.539   2.917  14.763  0.00  0.00    +0.000 OA
ATOM     21  H   UNL     1      46.687   5.908  15.316  0.00  0.00    +0.000 HD
BRANCH  19  22
ATOM     22  C   UNL     1      48.102   4.216  16.648  0.00  0.00    +0.000 A 
ATOM     23  C   UNL     1      47.760   3.383  17.705  0.00  0.00    +0.000 A 
ATOM     24  S   UNL     1      48.589   3.740  19.152  0.00  0.00    +0.000 S 
ATOM     25  C   UNL     1      49.395   5.053  18.432  0.00  0.00    +0.000 A 
ATOM     26  N   UNL     1      50.252   5.827  19.150  0.00  0.00    +0.000 NA
ATOM     27  C   UNL     1      50.766   6.811  18.489  0.00  0.00    +0.000 A 
ATOM     28  N   UNL     1      50.508   7.084  17.171  0.00  0.00    +0.000 N 
ATOM     29  C   UNL     1      49.683   6.305  16.395  0.00  0.00    +0.000 A 
ATOM     30  O   UNL     1      49.519   6.541  15.202  0.00  0.00    +0.000 OA
ATOM     31  C   UNL     1      49.056   5.201  17.098  0.00  0.00    +0.000 A 
ATOM     32  H   UNL     1      50.956   7.860  16.707  0.00  0.00    +0.000 HD
ENDBRANCH  19  22
ENDBRANCH  17  18
ENDBRANCH   5  17
TORSDOF 5
ENDMDL
MODEL 7
REMARK VINA RESULT:    -6.295      3.501      4.773
REMARK INTER + INTRA:          -9.186
REMARK INTER:                  -8.095
REMARK INTRA:                  -1.091
REMARK UNBOUND:                -1.051
REMARK  Name = 
REMARK  6 active torsions:
REMARK  status: ('A' for Active; 'I' for Inactive)
REMARK    1  A    between atoms: C_1  and  O_2
REMARK    2  A    between atoms: O_2  and  C_3
REMARK    3  A    between atoms: C_7  and  N_8
REMARK    4  A    between atoms: C_12  and  C_13
REMARK    5  A    between atoms: C_13  and  N_14
REMARK    6  A    between atoms: C_15  and  C_17
REMARK                            x       y       z     vdW  Elec       q    Type
REMARK                         _______ _______ _______ _____ _____    ______ ____
ROOT
ATOM      1  N   UNL     1      44.769   6.153  10.491  0.00  0.00    +0.000 N 
ATOM      2  C   UNL     1      45.566   6.807  11.433  0.00  0.00    +0.000 A 
ATOM      3  C   UNL     1      45.115   8.010  11.973  0.00  0.00    +0.000 A 
ATOM      4  C   UNL     1      45.871   8.655  12.954  0.00  0.00    +0.000 A 
ATOM      5  C   UNL     1      47.066   8.084  13.391  0.00  0.00    +0.000 A 
ATOM      6  C   UNL     1      47.449   6.897  12.793  0.00  0.00    +0.000 A 
ATOM      7  N   UNL     1      46.731   6.263  11.842  0.00  0.00    +0.000 NA
ATOM      8  H   UNL     1      43.933   6.632  10.190  0.00  0.00    +0.000 HD
ENDROOT
BRANCH   1  13
ATOM      9  C   UNL     1      45.234   3.385   8.324  0.00  0.00    +0.000 A 
ATOM     10  C   UNL     1      44.694   2.295   8.981  0.00  0.00    +0.000 A 
ATOM     11  C   UNL     1      44.167   2.501  10.246  0.00  0.00    +0.000 A 
ATOM     12  C   UNL     1      44.196   3.781  10.791  0.00  0.00    +0.000 A 
ATOM     13  C   UNL     1      44.744   4.832  10.063  0.00  0.00    +0.000 A 
ATOM     14  N   UNL     1      45.274   4.633   8.838  0.00  0.00    +0.000 NA
BRANCH   9  16
ATOM     15  C   UNL     1      47.119   3.545   6.958  0.00  0.00    +0.000 C 
ATOM     16  O   UNL     1      45.754   3.153   7.065  0.00  0.00    +0.000 OA
ENDBRANCH   9  16
ENDBRANCH   1  13
BRANCH   5  17
ATOM     17  C   UNL     1      47.930   8.746  14.423  0.00  0.00    +0.000 C 
BRANCH  17  18
ATOM     18  N   UNL     1      49.321   8.681  14.048  0.00  0.00    +0.000 N 
ATOM     19  C   UNL     1      49.950   9.751  13.463  0.00  0.00    +0.000 C 
ATOM     20  O   UNL     1      49.375  10.814  13.264  0.00  0.00    +0.000 OA
ATOM     21  H   UNL     1      49.743   7.761  13.985  0.00  0.00    +0.000 HD
BRANCH  19  22
ATOM     22  C   UNL     1      51.374   9.571  13.146  0.00  0.00    +0.000 A 
ATOM     23  C   UNL     1      52.328  10.320  13.822  0.00  0.00    +0.000 A 
ATOM     24  S   UNL     1      53.931   9.958  13.365  0.00  0.00    +0.000 S 
ATOM     25  C   UNL     1      53.405   8.827  12.209  0.00  0.00    +0.000 A 
ATOM     26  N   UNL     1      54.296   8.163  11.424  0.00  0.00    +0.000 NA
ATOM     27  C   UNL     1      53.758   7.361  10.566  0.00  0.00    +0.000 A 
ATOM     28  N   UNL     1      52.409   7.156  10.429  0.00  0.00    +0.000 N 
ATOM     29  C   UNL     1      51.476   7.773  11.227  0.00  0.00    +0.000 A 
ATOM     30  O   UNL     1      50.279   7.522  11.119  0.00  0.00    +0.000 OA
ATOM     31  C   UNL     1      52.026   8.707  12.191  0.00  0.00    +0.000 A 
ATOM     32  H   UNL     1      52.054   6.502   9.748  0.00  0.00    +0.000 HD
ENDBRANCH  19  22
ENDBRANCH  17  18
ENDBRANCH   5  17
TORSDOF 5
ENDMDL
MODEL 8
REMARK VINA RESULT:    -6.188      5.278      7.582
REMARK INTER + INTRA:          -9.048
REMARK INTER:                  -8.267
REMARK INTRA:                  -0.781
REMARK UNBOUND:                -1.051
REMARK  Name = 
REMARK  6 active torsions:
REMARK  status: ('A' for Active; 'I' for Inactive)
REMARK    1  A    between atoms: C_1  and  O_2
REMARK    2  A    between atoms: O_2  and  C_3
REMARK    3  A    between atoms: C_7  and  N_8
REMARK    4  A    between atoms: C_12  and  C_13
REMARK    5  A    between atoms: C_13  and  N_14
REMARK    6  A    between atoms: C_15  and  C_17
REMARK                            x       y       z     vdW  Elec       q    Type
REMARK                         _______ _______ _______ _____ _____    ______ ____
ROOT
ATOM      1  N   UNL     1      46.076   5.921  13.627  0.00  0.00    +0.000 N 
ATOM      2  C   UNL     1      47.244   6.590  13.250  0.00  0.00    +0.000 A 
ATOM      3  C   UNL     1      48.275   6.712  14.178  0.00  0.00    +0.000 A 
ATOM      4  C   UNL     1      49.471   7.330  13.808  0.00  0.00    +0.000 A 
ATOM      5  C   UNL     1      49.625   7.812  12.508  0.00  0.00    +0.000 A 
ATOM      6  C   UNL     1      48.548   7.663  11.653  0.00  0.00    +0.000 A 
ATOM      7  N   UNL     1      47.385   7.070  11.997  0.00  0.00    +0.000 NA
ATOM      8  H   UNL     1      46.010   5.627  14.590  0.00  0.00    +0.000 HD
ENDROOT
BRANCH   1  13
ATOM      9  C   UNL     1      44.591   3.799  11.205  0.00  0.00    +0.000 A 
ATOM     10  C   UNL     1      43.243   4.106  11.209  0.00  0.00    +0.000 A 
ATOM     11  C   UNL     1      42.803   5.067  12.106  0.00  0.00    +0.000 A 
ATOM     12  C   UNL     1      43.726   5.680  12.947  0.00  0.00    +0.000 A 
ATOM     13  C   UNL     1      45.070   5.329  12.875  0.00  0.00    +0.000 A 
ATOM     14  N   UNL     1      45.500   4.381  12.017  0.00  0.00    +0.000 NA
BRANCH   9  16
ATOM     15  C   UNL     1      45.096   3.340   8.974  0.00  0.00    +0.000 C 
ATOM     16  O   UNL     1      45.004   2.837  10.304  0.00  0.00    +0.000 OA
ENDBRANCH   9  16
ENDBRANCH   1  13
BRANCH   5  17
ATOM     17  C   UNL     1      50.877   8.507  12.062  0.00  0.00    +0.000 C 
BRANCH  17  18
ATOM     18  N   UNL     1      51.363   7.949  10.826  0.00  0.00    +0.000 N 
ATOM     19  C   UNL     1      52.688   7.633  10.661  0.00  0.00    +0.000 C 
ATOM     20  O   UNL     1      53.509   7.778  11.559  0.00  0.00    +0.000 OA
ATOM     21  H   UNL     1      50.769   8.039  10.008  0.00  0.00    +0.000 HD
BRANCH  19  22
ATOM     22  C   UNL     1      53.059   7.051   9.362  0.00  0.00    +0.000 A 
ATOM     23  C   UNL     1      53.420   5.712   9.288  0.00  0.00    +0.000 A 
ATOM     24  S   UNL     1      53.779   5.187   7.705  0.00  0.00    +0.000 S 
ATOM     25  C   UNL     1      53.516   6.743   7.070  0.00  0.00    +0.000 A 
ATOM     26  N   UNL     1      53.690   6.997   5.745  0.00  0.00    +0.000 NA
ATOM     27  C   UNL     1      53.492   8.228   5.406  0.00  0.00    +0.000 A 
ATOM     28  N   UNL     1      53.126   9.226   6.272  0.00  0.00    +0.000 N 
ATOM     29  C   UNL     1      52.898   9.008   7.609  0.00  0.00    +0.000 A 
ATOM     30  O   UNL     1      52.512   9.910   8.346  0.00  0.00    +0.000 OA
ATOM     31  C   UNL     1      53.134   7.645   8.049  0.00  0.00    +0.000 A 
ATOM     32  H   UNL     1      52.970  10.166   5.939  0.00  0.00    +0.000 HD
ENDBRANCH  19  22
ENDBRANCH  17  18
ENDBRANCH   5  17
TORSDOF 5
ENDMDL
MODEL 9
REMARK VINA RESULT:    -5.969      2.508      3.093
REMARK INTER + INTRA:          -8.765
REMARK INTER:                  -7.840
REMARK INTRA:                  -0.925
REMARK UNBOUND:                -1.051
REMARK  Name = 
REMARK  6 active torsions:
REMARK  status: ('A' for Active; 'I' for Inactive)
REMARK    1  A    between atoms: C_1  and  O_2
REMARK    2  A    between atoms: O_2  and  C_3
REMARK    3  A    between atoms: C_7  and  N_8
REMARK    4  A    between atoms: C_12  and  C_13
REMARK    5  A    between atoms: C_13  and  N_14
REMARK    6  A    between atoms: C_15  and  C_17
REMARK                            x       y       z     vdW  Elec       q    Type
REMARK                         _______ _______ _______ _____ _____    ______ ____
ROOT
ATOM      1  N   UNL     1      45.123   6.650  10.785  0.00  0.00    +0.000 N 
ATOM      2  C   UNL     1      46.058   7.174  11.682  0.00  0.00    +0.000 A 
ATOM      3  C   UNL     1      45.686   8.249  12.485  0.00  0.00    +0.000 A 
ATOM      4  C   UNL     1      46.586   8.756  13.425  0.00  0.00    +0.000 A 
ATOM      5  C   UNL     1      47.847   8.173  13.557  0.00  0.00    +0.000 A 
ATOM      6  C   UNL     1      48.141   7.119  12.711  0.00  0.00    +0.000 A 
ATOM      7  N   UNL     1      47.283   6.620  11.796  0.00  0.00    +0.000 NA
ATOM      8  H   UNL     1      44.242   7.135  10.710  0.00  0.00    +0.000 HD
ENDROOT
BRANCH   1  13
ATOM      9  C   UNL     1      44.204   3.266  10.260  0.00  0.00    +0.000 A 
ATOM     10  C   UNL     1      44.852   2.872   9.105  0.00  0.00    +0.000 A 
ATOM     11  C   UNL     1      45.624   3.816   8.446  0.00  0.00    +0.000 A 
ATOM     12  C   UNL     1      45.719   5.101   8.971  0.00  0.00    +0.000 A 
ATOM     13  C   UNL     1      45.047   5.419  10.148  0.00  0.00    +0.000 A 
ATOM     14  N   UNL     1      44.281   4.509  10.784  0.00  0.00    +0.000 NA
BRANCH   9  16
ATOM     15  C   UNL     1      43.399   2.493  12.310  0.00  0.00    +0.000 C 
ATOM     16  O   UNL     1      43.440   2.307  10.898  0.00  0.00    +0.000 OA
ENDBRANCH   9  16
ENDBRANCH   1  13
BRANCH   5  17
ATOM     17  C   UNL     1      48.862   8.691  14.531  0.00  0.00    +0.000 C 
BRANCH  17  18
ATOM     18  N   UNL     1      48.853   7.916  15.746  0.00  0.00    +0.000 N 
ATOM     19  C   UNL     1      48.549   8.490  16.954  0.00  0.00    +0.000 C 
ATOM     20  O   UNL     1      48.241   9.671  17.054  0.00  0.00    +0.000 OA
ATOM     21  H   UNL     1      49.325   7.017  15.727  0.00  0.00    +0.000 HD
BRANCH  19  22
ATOM     22  C   UNL     1      48.553   7.591  18.118  0.00  0.00    +0.000 A 
ATOM     23  C   UNL     1      47.458   7.568  18.971  0.00  0.00    +0.000 A 
ATOM     24  S   UNL     1      47.606   6.442  20.244  0.00  0.00    +0.000 S 
ATOM     25  C   UNL     1      49.161   5.983  19.731  0.00  0.00    +0.000 A 
ATOM     26  N   UNL     1      49.881   5.057  20.420  0.00  0.00    +0.000 NA
ATOM     27  C   UNL     1      51.059   4.831  19.941  0.00  0.00    +0.000 A 
ATOM     28  N   UNL     1      51.578   5.440  18.828  0.00  0.00    +0.000 N 
ATOM     29  C   UNL     1      50.873   6.349  18.077  0.00  0.00    +0.000 A 
ATOM     30  O   UNL     1      51.344   6.831  17.051  0.00  0.00    +0.000 OA
ATOM     31  C   UNL     1      49.552   6.661  18.589  0.00  0.00    +0.000 A 
ATOM     32  H   UNL     1      52.502   5.205  18.495  0.00  0.00    +0.000 HD
ENDBRANCH  19  22
ENDBRANCH  17  18
ENDBRANCH   5  17
TORSDOF 5
ENDMDL
