MODEL 1
REMARK VINA RESULT:    -8.136      0.000      0.000
REMARK INTER + INTRA:         -12.537
REMARK INTER:                 -11.465
REMARK INTRA:                  -1.072
REMARK UNBOUND:                -1.072
REMARK  Name = 
REMARK  9 active torsions:
REMARK  status: ('A' for Active; 'I' for Inactive)
REMARK    1  A    between atoms: C_1  and  C_2
REMARK    2  A    between atoms: C_2  and  N_3
REMARK    3  A    between atoms: C_2  and  C_16
REMARK    4  A    between atoms: C_4  and  C_6
REMARK    5  A    between atoms: C_19  and  C_20
REMARK    6  A    between atoms: C_20  and  N_21
REMARK    7  A    between atoms: N_21  and  C_22
REMARK    8  A    between atoms: C_22  and  C_23
REMARK    9  A    between atoms: C_22  and  C_24
REMARK                            x       y       z     vdW  Elec       q    Type
REMARK                         _______ _______ _______ _____ _____    ______ ____
ROOT
ATOM      1  C   UNL     1      48.907   8.035  14.303  0.00  0.00    +0.000 C 
ATOM      2  C   UNL     1      48.351   6.866  15.128  0.00  0.00    +0.000 C 
ENDROOT
BRANCH   2   3
ATOM      3  C   UNL     1      47.419   5.979  14.350  0.00  0.00    +0.000 A 
ATOM      4  C   UNL     1      46.877   6.335  13.131  0.00  0.00    +0.000 A 
ATOM      5  N   UNL     1      46.042   5.551  12.424  0.00  0.00    +0.000 NA
ATOM      6  C   UNL     1      45.730   4.360  12.978  0.00  0.00    +0.000 A 
ATOM      7  N   UNL     1      46.183   3.919  14.160  0.00  0.00    +0.000 NA
ATOM      8  C   UNL     1      47.014   4.748  14.822  0.00  0.00    +0.000 A 
BRANCH   6   9
ATOM      9  C   UNL     1      44.866   3.423  12.160  0.00  0.00    +0.000 C 
BRANCH   9  10
ATOM     10  N   UNL     1      45.535   2.800  11.001  0.00  0.00    +0.000 NA
ATOM     11  H   UNL     1      45.657   1.806  11.222  0.00  0.00    +0.000 HD
BRANCH  10  12
ATOM     12  C   UNL     1      44.723   2.866   9.767  0.00  0.00    +0.000 C 
ATOM     13  C   UNL     1      44.047   4.238   9.619  0.00  0.00    +0.000 C 
BRANCH  12  14
ATOM     14  C   UNL     1      45.592   2.526   8.554  0.00  0.00    +0.000 A 
ATOM     15  C   UNL     1      45.915   3.492   7.601  0.00  0.00    +0.000 A 
ATOM     16  C   UNL     1      46.728   3.144   6.526  0.00  0.00    +0.000 A 
ATOM     17  C   UNL     1      47.223   1.850   6.438  0.00  0.00    +0.000 A 
ATOM     18  C   UNL     1      46.886   0.956   7.440  0.00  0.00    +0.000 A 
ATOM     19  N   UNL     1      46.084   1.259   8.485  0.00  0.00    +0.000 NA
ENDBRANCH  12  14
ENDBRANCH  10  12
ENDBRANCH   9  10
ENDBRANCH   6   9
ENDBRANCH   2   3
BRANCH   2  20
ATOM     20  N   UNL     1      49.437   6.073  15.674  0.00  0.00    +0.000 N 
ATOM     21  C   UNL     1      49.741   6.081  17.011  0.00  0.00    +0.000 C 
ATOM     22  O   UNL     1      49.095   6.735  17.828  0.00  0.00    +0.000 OA
ATOM     23  H   UNL     1      50.115   5.693  15.022  0.00  0.00    +0.000 HD
BRANCH  21  24
ATOM     24  C   UNL     1      50.838   5.210  17.429  0.00  0.00    +0.000 A 
ATOM     25  C   UNL     1      52.022   5.760  17.896  0.00  0.00    +0.000 A 
ATOM     26  S   UNL     1      53.195   4.596  18.314  0.00  0.00    +0.000 S 
ATOM     27  C   UNL     1      52.170   3.318  17.855  0.00  0.00    +0.000 A 
ATOM     28  N   UNL     1      52.586   2.026  17.918  0.00  0.00    +0.000 NA
ATOM     29  C   UNL     1      51.719   1.166  17.497  0.00  0.00    +0.000 A 
ATOM     30  N   UNL     1      50.462   1.478  17.038  0.00  0.00    +0.000 N 
ATOM     31  C   UNL     1      49.971   2.764  17.016  0.00  0.00    +0.000 A 
ATOM     32  O   UNL     1      48.813   3.000  16.701  0.00  0.00    +0.000 OA
ATOM     33  C   UNL     1      50.930   3.771  17.426  0.00  0.00    +0.000 A 
ATOM     34  H   UNL     1      49.826   0.751  16.753  0.00  0.00    +0.000 HD
ENDBRANCH  21  24
ENDBRANCH   2  20
TORSDOF 7
ENDMDL
MODEL 2
REMARK VINA RESULT:    -7.971      2.464      2.813
REMARK INTER + INTRA:         -12.304
REMARK INTER:                 -11.909
REMARK INTRA:                  -0.395
REMARK UNBOUND:                -1.072
REMARK  Name = 
REMARK  9 active torsions:
REMARK  status: ('A' for Active; 'I' for Inactive)
REMARK    1  A    between atoms: C_1  and  C_2
REMARK    2  A    between atoms: C_2  and  N_3
REMARK    3  A    between atoms: C_2  and  C_16
REMARK    4  A    between atoms: C_4  and  C_6
REMARK    5  A    between atoms: C_19  and  C_20
REMARK    6  A    between atoms: C_20  and  N_21
REMARK    7  A    between atoms: N_21  and  C_22
REMARK    8  A    between atoms: C_22  and  C_23
REMARK    9  A    between atoms: C_22  and  C_24
REMARK                            x       y       z     vdW  Elec       q    Type
REMARK                         _______ _______ _______ _____ _____    ______ ____
ROOT
ATOM      1  C   UNL     1      48.416   8.698  12.315  0.00  0.00    +0.000 C 
ATOM      2  C   UNL     1      47.152   8.350  13.113  0.00  0.00    +0.000 C 
ENDROOT
BRANCH   2   3
ATOM      3  C   UNL     1      46.221   7.427  12.379  0.00  0.00    +0.000 A 
ATOM      4  C   UNL     1      46.545   6.818  11.182  0.00  0.00    +0.000 A 
ATOM      5  N   UNL     1      45.721   5.989  10.515  0.00  0.00    +0.000 NA
ATOM      6  C   UNL     1      44.511   5.776  11.072  0.00  0.00    +0.000 A 
ATOM      7  N   UNL     1      44.083   6.326  12.217  0.00  0.00    +0.000 NA
ATOM      8  C   UNL     1      44.951   7.147  12.839  0.00  0.00    +0.000 A 
BRANCH   6   9
ATOM      9  C   UNL     1      43.601   4.778  10.387  0.00  0.00    +0.000 C 
BRANCH   9  10
ATOM     10  N   UNL     1      44.154   4.155   9.168  0.00  0.00    +0.000 NA
ATOM     11  H   UNL     1      44.799   4.834   8.749  0.00  0.00    +0.000 HD
BRANCH  10  12
ATOM     12  C   UNL     1      44.942   2.937   9.452  0.00  0.00    +0.000 C 
ATOM     13  C   UNL     1      44.031   1.767   9.853  0.00  0.00    +0.000 C 
BRANCH  12  14
ATOM     14  C   UNL     1      45.816   2.590   8.244  0.00  0.00    +0.000 A 
ATOM     15  C   UNL     1      46.091   3.536   7.256  0.00  0.00    +0.000 A 
ATOM     16  C   UNL     1      46.910   3.185   6.186  0.00  0.00    +0.000 A 
ATOM     17  C   UNL     1      47.456   1.910   6.138  0.00  0.00    +0.000 A 
ATOM     18  C   UNL     1      47.164   1.037   7.172  0.00  0.00    +0.000 A 
ATOM     19  N   UNL     1      46.358   1.343   8.213  0.00  0.00    +0.000 NA
ENDBRANCH  12  14
ENDBRANCH  10  12
ENDBRANCH   9  10
ENDBRANCH   6   9
ENDBRANCH   2   3
BRANCH   2  20
ATOM     20  N   UNL     1      47.509   7.767  14.393  0.00  0.00    +0.000 N 
ATOM     21  C   UNL     1      48.414   6.742  14.496  0.00  0.00    +0.000 C 
ATOM     22  O   UNL     1      48.995   6.277  13.517  0.00  0.00    +0.000 OA
ATOM     23  H   UNL     1      46.911   7.971  15.186  0.00  0.00    +0.000 HD
BRANCH  21  24
ATOM     24  C   UNL     1      48.707   6.273  15.849  0.00  0.00    +0.000 A 
ATOM     25  C   UNL     1      49.583   6.984  16.656  0.00  0.00    +0.000 A 
ATOM     26  S   UNL     1      49.822   6.275  18.189  0.00  0.00    +0.000 S 
ATOM     27  C   UNL     1      48.787   4.979  17.812  0.00  0.00    +0.000 A 
ATOM     28  N   UNL     1      48.581   3.965  18.694  0.00  0.00    +0.000 NA
ATOM     29  C   UNL     1      47.807   3.029  18.257  0.00  0.00    +0.000 A 
ATOM     30  N   UNL     1      47.199   3.021  17.025  0.00  0.00    +0.000 N 
ATOM     31  C   UNL     1      47.324   4.055  16.124  0.00  0.00    +0.000 A 
ATOM     32  O   UNL     1      46.690   4.070  15.078  0.00  0.00    +0.000 OA
ATOM     33  C   UNL     1      48.231   5.103  16.547  0.00  0.00    +0.000 A 
ATOM     34  H   UNL     1      46.582   2.271  16.762  0.00  0.00    +0.000 HD
ENDBRANCH  21  24
ENDBRANCH   2  20
TORSDOF 7
ENDMDL
MODEL 3
REMARK VINA RESULT:    -7.623      2.893      4.425
REMARK INTER + INTRA:         -11.814
REMARK INTER:                 -10.793
REMARK INTRA:                  -1.020
REMARK UNBOUND:                -1.072
REMARK  Name = 
REMARK  9 active torsions:
REMARK  status: ('A' for Active; 'I' for Inactive)
REMARK    1  A    between atoms: C_1  and  C_2
REMARK    2  A    between atoms: C_2  and  N_3
REMARK    3  A    between atoms: C_2  and  C_16
REMARK    4  A    between atoms: C_4  and  C_6
REMARK    5  A    between atoms: C_19  and  C_20
REMARK    6  A    between atoms: C_20  and  N_21
REMARK    7  A    between atoms: N_21  and  C_22
REMARK    8  A    between atoms: C_22  and  C_23
REMARK    9  A    between atoms: C_22  and  C_24
REMARK                            x       y       z     vdW  Elec       q    Type
REMARK                         _______ _______ _______ _____ _____    ______ ____
ROOT
ATOM      1  C   UNL     1      47.572   3.760  16.642  0.00  0.00    +0.000 C 
ATOM      2  C   UNL     1      47.865   4.673  15.443  0.00  0.00    +0.000 C 
ENDROOT
BRANCH   2   3
ATOM      3  C   UNL     1      46.901   4.487  14.305  0.00  0.00    +0.000 A 
ATOM      4  C   UNL     1      46.686   3.272  13.685  0.00  0.00    +0.000 A 
ATOM      5  N   UNL     1      45.826   3.091  12.666  0.00  0.00    +0.000 NA
ATOM      6  C   UNL     1      45.164   4.189  12.243  0.00  0.00    +0.000 A 
ATOM      7  N   UNL     1      45.306   5.419  12.757  0.00  0.00    +0.000 NA
ATOM      8  C   UNL     1      46.181   5.537  13.774  0.00  0.00    +0.000 A 
BRANCH   6   9
ATOM      9  C   UNL     1      44.125   3.994  11.159  0.00  0.00    +0.000 C 
BRANCH   9  10
ATOM     10  N   UNL     1      44.515   3.075  10.071  0.00  0.00    +0.000 NA
ATOM     11  H   UNL     1      43.694   2.499   9.855  0.00  0.00    +0.000 HD
BRANCH  10  12
ATOM     12  C   UNL     1      44.879   3.783   8.825  0.00  0.00    +0.000 C 
ATOM     13  C   UNL     1      45.509   5.151   9.127  0.00  0.00    +0.000 C 
BRANCH  12  14
ATOM     14  C   UNL     1      45.803   2.904   7.980  0.00  0.00    +0.000 A 
ATOM     15  C   UNL     1      46.483   3.420   6.876  0.00  0.00    +0.000 A 
ATOM     16  C   UNL     1      47.333   2.590   6.149  0.00  0.00    +0.000 A 
ATOM     17  C   UNL     1      47.505   1.273   6.553  0.00  0.00    +0.000 A 
ATOM     18  C   UNL     1      46.822   0.842   7.677  0.00  0.00    +0.000 A 
ATOM     19  N   UNL     1      45.977   1.618   8.391  0.00  0.00    +0.000 NA
ENDBRANCH  12  14
ENDBRANCH  10  12
ENDBRANCH   9  10
ENDBRANCH   6   9
ENDBRANCH   2   3
BRANCH   2  20
ATOM     20  N   UNL     1      47.868   6.064  15.858  0.00  0.00    +0.000 N 
ATOM     21  C   UNL     1      49.032   6.756  16.069  0.00  0.00    +0.000 C 
ATOM     22  O   UNL     1      50.139   6.250  15.891  0.00  0.00    +0.000 OA
ATOM     23  H   UNL     1      47.000   6.449  16.214  0.00  0.00    +0.000 HD
BRANCH  21  24
ATOM     24  C   UNL     1      48.889   8.160  16.452  0.00  0.00    +0.000 A 
ATOM     25  C   UNL     1      49.370   9.159  15.619  0.00  0.00    +0.000 A 
ATOM     26  S   UNL     1      49.138  10.731  16.238  0.00  0.00    +0.000 S 
ATOM     27  C   UNL     1      48.414  10.125  17.654  0.00  0.00    +0.000 A 
ATOM     28  N   UNL     1      48.013  10.959  18.649  0.00  0.00    +0.000 NA
ATOM     29  C   UNL     1      47.521  10.358  19.681  0.00  0.00    +0.000 A 
ATOM     30  N   UNL     1      47.372   8.997  19.802  0.00  0.00    +0.000 N 
ATOM     31  C   UNL     1      47.702   8.117  18.796  0.00  0.00    +0.000 A 
ATOM     32  O   UNL     1      47.462   6.921  18.890  0.00  0.00    +0.000 OA
ATOM     33  C   UNL     1      48.312   8.741  17.639  0.00  0.00    +0.000 A 
ATOM     34  H   UNL     1      46.952   8.598  20.625  0.00  0.00    +0.000 HD
ENDBRANCH  21  24
ENDBRANCH   2  20
TORSDOF 7
ENDMDL
MODEL 4
REMARK VINA RESULT:    -7.555      1.391      1.955
REMARK INTER + INTRA:         -11.718
REMARK INTER:                 -10.562
REMARK INTRA:                  -1.156
REMARK UNBOUND:                -1.072
REMARK  Name = 
REMARK  9 active torsions:
REMARK  status: ('A' for Active; 'I' for Inactive)
REMARK    1  A    between atoms: C_1  and  C_2
REMARK    2  A    between atoms: C_2  and  N_3
REMARK    3  A    between atoms: C_2  and  C_16
REMARK    4  A    between atoms: C_4  and  C_6
REMARK    5  A    between atoms: C_19  and  C_20
REMARK    6  A    between atoms: C_20  and  N_21
REMARK    7  A    between atoms: N_21  and  C_22
REMARK    8  A    between atoms: C_22  and  C_23
REMARK    9  A    between atoms: C_22  and  C_24
REMARK                            x       y       z     vdW  Elec       q    Type
REMARK                         _______ _______ _______ _____ _____    ______ ____
ROOT
ATOM      1  C   UNL     1      49.894   7.801  16.303  0.00  0.00    +0.000 C 
ATOM      2  C   UNL     1      49.321   6.475  16.823  0.00  0.00    +0.000 C 
ENDROOT
BRANCH   2   3
ATOM      3  C   UNL     1      48.435   5.780  15.828  0.00  0.00    +0.000 A 
ATOM      4  C   UNL     1      47.703   4.647  16.127  0.00  0.00    +0.000 A 
ATOM      5  N   UNL     1      46.905   4.015  15.246  0.00  0.00    +0.000 NA
ATOM      6  C   UNL     1      46.854   4.542  14.004  0.00  0.00    +0.000 A 
ATOM      7  N   UNL     1      47.532   5.625  13.599  0.00  0.00    +0.000 NA
ATOM      8  C   UNL     1      48.315   6.213  14.524  0.00  0.00    +0.000 A 
BRANCH   6   9
ATOM      9  C   UNL     1      45.894   3.903  13.023  0.00  0.00    +0.000 C 
BRANCH   9  10
ATOM     10  N   UNL     1      45.362   4.806  11.983  0.00  0.00    +0.000 NA
ATOM     11  H   UNL     1      46.142   5.042  11.361  0.00  0.00    +0.000 HD
BRANCH  10  12
ATOM     12  C   UNL     1      44.325   4.167  11.145  0.00  0.00    +0.000 C 
ATOM     13  C   UNL     1      43.161   5.131  10.870  0.00  0.00    +0.000 C 
BRANCH  12  14
ATOM     14  C   UNL     1      44.953   3.648   9.849  0.00  0.00    +0.000 A 
ATOM     15  C   UNL     1      45.501   4.522   8.910  0.00  0.00    +0.000 A 
ATOM     16  C   UNL     1      46.083   4.004   7.755  0.00  0.00    +0.000 A 
ATOM     17  C   UNL     1      46.129   2.629   7.575  0.00  0.00    +0.000 A 
ATOM     18  C   UNL     1      45.593   1.825   8.566  0.00  0.00    +0.000 A 
ATOM     19  N   UNL     1      45.005   2.298   9.687  0.00  0.00    +0.000 NA
ENDBRANCH  12  14
ENDBRANCH  10  12
ENDBRANCH   9  10
ENDBRANCH   6   9
ENDBRANCH   2   3
BRANCH   2  20
ATOM     20  N   UNL     1      50.397   5.586  17.223  0.00  0.00    +0.000 N 
ATOM     21  C   UNL     1      50.580   5.211  18.529  0.00  0.00    +0.000 C 
ATOM     22  O   UNL     1      49.830   5.581  19.431  0.00  0.00    +0.000 OA
ATOM     23  H   UNL     1      51.149   5.430  16.561  0.00  0.00    +0.000 HD
BRANCH  21  24
ATOM     24  C   UNL     1      51.681   4.284  18.787  0.00  0.00    +0.000 A 
ATOM     25  C   UNL     1      52.722   4.659  19.623  0.00  0.00    +0.000 A 
ATOM     26  S   UNL     1      53.927   3.463  19.786  0.00  0.00    +0.000 S 
ATOM     27  C   UNL     1      53.111   2.418  18.720  0.00  0.00    +0.000 A 
ATOM     28  N   UNL     1      53.636   1.211  18.380  0.00  0.00    +0.000 NA
ATOM     29  C   UNL     1      52.930   0.544  17.529  0.00  0.00    +0.000 A 
ATOM     30  N   UNL     1      51.732   0.962  17.002  0.00  0.00    +0.000 N 
ATOM     31  C   UNL     1      51.127   2.145  17.365  0.00  0.00    +0.000 A 
ATOM     32  O   UNL     1      50.013   2.443  16.959  0.00  0.00    +0.000 OA
ATOM     33  C   UNL     1      51.912   2.956  18.275  0.00  0.00    +0.000 A 
ATOM     34  H   UNL     1      51.219   0.375  16.365  0.00  0.00    +0.000 HD
ENDBRANCH  21  24
ENDBRANCH   2  20
TORSDOF 7
ENDMDL
MODEL 5
REMARK VINA RESULT:    -6.971      3.819      9.211
REMARK INTER + INTRA:         -10.895
REMARK INTER:                  -9.700
REMARK INTRA:                  -1.194
REMARK UNBOUND:                -1.072
REMARK  Name = 
REMARK  9 active torsions:
REMARK  status: ('A' for Active; 'I' for Inactive)
REMARK    1  A    between atoms: C_1  and  C_2
REMARK    2  A    between atoms: C_2  and  N_3
REMARK    3  A    between atoms: C_2  and  C_16
REMARK    4  A    between atoms: C_4  and  C_6
REMARK    5  A    between atoms: C_19  and  C_20
REMARK    6  A    between atoms: C_20  and  N_21
REMARK    7  A    between atoms: N_21  and  C_22
REMARK    8  A    between atoms: C_22  and  C_23
REMARK    9  A    between atoms: C_22  and  C_24
REMARK                            x       y       z     vdW  Elec       q    Type
REMARK                         _______ _______ _______ _____ _____    ______ ____
ROOT
ATOM      1  C   UNL     1      43.673   3.071  12.960  0.00  0.00    +0.000 C 
ATOM      2  C   UNL     1      44.446   3.903  11.926  0.00  0.00    +0.000 C 
ENDROOT
BRANCH   2   3
ATOM      3  C   UNL     1      45.501   4.780  12.538  0.00  0.00    +0.000 A 
ATOM      4  C   UNL     1      46.652   4.286  13.121  0.00  0.00    +0.000 A 
ATOM      5  N   UNL     1      47.605   5.061  13.672  0.00  0.00    +0.000 NA
ATOM      6  C   UNL     1      47.381   6.391  13.645  0.00  0.00    +0.000 A 
ATOM      7  N   UNL     1      46.296   6.978  13.122  0.00  0.00    +0.000 NA
ATOM      8  C   UNL     1      45.376   6.153  12.587  0.00  0.00    +0.000 A 
BRANCH   6   9
ATOM      9  C   UNL     1      48.480   7.287  14.177  0.00  0.00    +0.000 C 
BRANCH   9  10
ATOM     10  N   UNL     1      49.631   6.584  14.776  0.00  0.00    +0.000 NA
ATOM     11  H   UNL     1      50.479   7.058  14.446  0.00  0.00    +0.000 HD
BRANCH  10  12
ATOM     12  C   UNL     1      49.647   6.662  16.253  0.00  0.00    +0.000 C 
ATOM     13  C   UNL     1      48.808   7.846  16.755  0.00  0.00    +0.000 C 
BRANCH  12  14
ATOM     14  C   UNL     1      49.174   5.334  16.848  0.00  0.00    +0.000 A 
ATOM     15  C   UNL     1      47.835   5.127  17.182  0.00  0.00    +0.000 A 
ATOM     16  C   UNL     1      47.443   3.895  17.699  0.00  0.00    +0.000 A 
ATOM     17  C   UNL     1      48.388   2.890  17.848  0.00  0.00    +0.000 A 
ATOM     18  C   UNL     1      49.691   3.159  17.465  0.00  0.00    +0.000 A 
ATOM     19  N   UNL     1      50.104   4.350  16.977  0.00  0.00    +0.000 NA
ENDBRANCH  12  14
ENDBRANCH  10  12
ENDBRANCH   9  10
ENDBRANCH   6   9
ENDBRANCH   2   3
BRANCH   2  20
ATOM     20  N   UNL     1      45.048   3.034  10.931  0.00  0.00    +0.000 N 
ATOM     21  C   UNL     1      44.779   3.167   9.593  0.00  0.00    +0.000 C 
ATOM     22  O   UNL     1      44.037   4.045   9.156  0.00  0.00    +0.000 OA
ATOM     23  H   UNL     1      45.490   2.181  11.258  0.00  0.00    +0.000 HD
BRANCH  21  24
ATOM     24  C   UNL     1      45.481   2.247   8.699  0.00  0.00    +0.000 A 
ATOM     25  C   UNL     1      45.254   0.882   8.789  0.00  0.00    +0.000 A 
ATOM     26  S   UNL     1      46.177  -0.035   7.687  0.00  0.00    +0.000 S 
ATOM     27  C   UNL     1      46.933   1.361   7.074  0.00  0.00    +0.000 A 
ATOM     28  N   UNL     1      47.891   1.277   6.113  0.00  0.00    +0.000 NA
ATOM     29  C   UNL     1      48.407   2.411   5.775  0.00  0.00    +0.000 A 
ATOM     30  N   UNL     1      48.038   3.629   6.295  0.00  0.00    +0.000 N 
ATOM     31  C   UNL     1      47.029   3.772   7.221  0.00  0.00    +0.000 A 
ATOM     32  O   UNL     1      46.652   4.876   7.588  0.00  0.00    +0.000 OA
ATOM     33  C   UNL     1      46.458   2.519   7.673  0.00  0.00    +0.000 A 
ATOM     34  H   UNL     1      48.464   4.478   5.962  0.00  0.00    +0.000 HD
ENDBRANCH  21  24
ENDBRANCH   2  20
TORSDOF 7
ENDMDL
MODEL 6
REMARK VINA RESULT:    -6.928      2.767      4.503
REMARK INTER + INTRA:         -10.834
REMARK INTER:                 -10.186
REMARK INTRA:                  -0.649
REMARK UNBOUND:                -1.072
REMARK  Name = 
REMARK  9 active torsions:
REMARK  status: ('A' for Active; 'I' for Inactive)
REMARK    1  A    between atoms: C_1  and  C_2
REMARK    2  A    between atoms: C_2  and  N_3
REMARK    3  A    between atoms: C_2  and  C_16
REMARK    4  A    between atoms: C_4  and  C_6
REMARK    5  A    between atoms: C_19  and  C_20
REMARK    6  A    between atoms: C_20  and  N_21
REMARK    7  A    between atoms: N_21  and  C_22
REMARK    8  A    between atoms: C_22  and  C_23
REMARK    9  A    between atoms: C_22  and  C_24
REMARK                            x       y       z     vdW  Elec       q    Type
REMARK                         _______ _______ _______ _____ _____    ______ ____
ROOT
ATOM      1  C   UNL     1      47.651   3.357  15.898  0.00  0.00    +0.000 C 
ATOM      2  C   UNL     1      47.919   4.755  15.324  0.00  0.00    +0.000 C 
ENDROOT
BRANCH   2   3
ATOM      3  C   UNL     1      47.049   5.090  14.146  0.00  0.00    +0.000 A 
ATOM      4  C   UNL     1      45.722   4.719  14.054  0.00  0.00    +0.000 A 
ATOM      5  N   UNL     1      44.931   5.013  13.005  0.00  0.00    +0.000 NA
ATOM      6  C   UNL     1      45.509   5.701  11.998  0.00  0.00    +0.000 A 
ATOM      7  N   UNL     1      46.789   6.097  11.972  0.00  0.00    +0.000 NA
ATOM      8  C   UNL     1      47.531   5.773  13.048  0.00  0.00    +0.000 A 
BRANCH   6   9
ATOM      9  C   UNL     1      44.618   6.121  10.848  0.00  0.00    +0.000 C 
BRANCH   9  10
ATOM     10  N   UNL     1      44.106   5.018  10.011  0.00  0.00    +0.000 NA
ATOM     11  H   UNL     1      44.341   5.244   9.039  0.00  0.00    +0.000 HD
BRANCH  10  12
ATOM     12  C   UNL     1      44.748   3.721  10.316  0.00  0.00    +0.000 C 
ATOM     13  C   UNL     1      43.730   2.714  10.868  0.00  0.00    +0.000 C 
BRANCH  12  14
ATOM     14  C   UNL     1      45.458   3.189   9.069  0.00  0.00    +0.000 A 
ATOM     15  C   UNL     1      45.876   4.048   8.052  0.00  0.00    +0.000 A 
ATOM     16  C   UNL     1      46.539   3.523   6.946  0.00  0.00    +0.000 A 
ATOM     17  C   UNL     1      46.795   2.160   6.890  0.00  0.00    +0.000 A 
ATOM     18  C   UNL     1      46.379   1.376   7.952  0.00  0.00    +0.000 A 
ATOM     19  N   UNL     1      45.717   1.854   9.030  0.00  0.00    +0.000 NA
ENDBRANCH  12  14
ENDBRANCH  10  12
ENDBRANCH   9  10
ENDBRANCH   6   9
ENDBRANCH   2   3
BRANCH   2  20
ATOM     20  N   UNL     1      47.754   5.762  16.356  0.00  0.00    +0.000 N 
ATOM     21  C   UNL     1      48.718   5.997  17.302  0.00  0.00    +0.000 C 
ATOM     22  O   UNL     1      49.787   5.390  17.316  0.00  0.00    +0.000 OA
ATOM     23  H   UNL     1      46.821   6.130  16.508  0.00  0.00    +0.000 HD
BRANCH  21  24
ATOM     24  C   UNL     1      48.435   7.064  18.262  0.00  0.00    +0.000 A 
ATOM     25  C   UNL     1      48.329   6.772  19.613  0.00  0.00    +0.000 A 
ATOM     26  S   UNL     1      47.972   8.133  20.577  0.00  0.00    +0.000 S 
ATOM     27  C   UNL     1      47.918   9.151  19.215  0.00  0.00    +0.000 A 
ATOM     28  N   UNL     1      47.609  10.469  19.335  0.00  0.00    +0.000 NA
ATOM     29  C   UNL     1      47.563  11.110  18.215  0.00  0.00    +0.000 A 
ATOM     30  N   UNL     1      47.818  10.558  16.982  0.00  0.00    +0.000 N 
ATOM     31  C   UNL     1      48.199   9.245  16.815  0.00  0.00    +0.000 A 
ATOM     32  O   UNL     1      48.521   8.808  15.719  0.00  0.00    +0.000 OA
ATOM     33  C   UNL     1      48.209   8.471  18.041  0.00  0.00    +0.000 A 
ATOM     34  H   UNL     1      47.793  11.125  16.151  0.00  0.00    +0.000 HD
ENDBRANCH  21  24
ENDBRANCH   2  20
TORSDOF 7
ENDMDL
MODEL 7
REMARK VINA RESULT:    -6.724      3.496      8.712
REMARK INTER + INTRA:         -10.547
REMARK INTER:                  -9.870
REMARK INTRA:                  -0.677
REMARK UNBOUND:                -1.072
REMARK  Name = 
REMARK  9 active torsions:
REMARK  status: ('A' for Active; 'I' for Inactive)
REMARK    1  A    between atoms: C_1  and  C_2
REMARK    2  A    between atoms: C_2  and  N_3
REMARK    3  A    between atoms: C_2  and  C_16
REMARK    4  A    between atoms: C_4  and  C_6
REMARK    5  A    between atoms: C_19  and  C_20
REMARK    6  A    between atoms: C_20  and  N_21
REMARK    7  A    between atoms: N_21  and  C_22
REMARK    8  A    between atoms: C_22  and  C_23
REMARK    9  A    between atoms: C_22  and  C_24
REMARK                            x       y       z     vdW  Elec       q    Type
REMARK                         _______ _______ _______ _____ _____    ______ ____
ROOT
ATOM      1  C   UNL     1      46.555   9.032  11.886  0.00  0.00    +0.000 C 
ATOM      2  C   UNL     1      47.455   7.809  12.109  0.00  0.00    +0.000 C 
ENDROOT
BRANCH   2   3
ATOM      3  C   UNL     1      47.985   7.708  13.511  0.00  0.00    +0.000 A 
ATOM      4  C   UNL     1      48.615   6.582  14.004  0.00  0.00    +0.000 A 
ATOM      5  N   UNL     1      49.095   6.480  15.258  0.00  0.00    +0.000 NA
ATOM      6  C   UNL     1      48.919   7.556  16.053  0.00  0.00    +0.000 A 
ATOM      7  N   UNL     1      48.309   8.692  15.687  0.00  0.00    +0.000 NA
ATOM      8  C   UNL     1      47.849   8.735  14.422  0.00  0.00    +0.000 A 
BRANCH   6   9
ATOM      9  C   UNL     1      49.530   7.498  17.438  0.00  0.00    +0.000 C 
BRANCH   9  10
ATOM     10  N   UNL     1      48.584   7.201  18.532  0.00  0.00    +0.000 NA
ATOM     11  H   UNL     1      47.671   7.023  18.100  0.00  0.00    +0.000 HD
BRANCH  10  12
ATOM     12  C   UNL     1      48.944   5.981  19.286  0.00  0.00    +0.000 C 
ATOM     13  C   UNL     1      48.078   5.831  20.545  0.00  0.00    +0.000 C 
BRANCH  12  14
ATOM     14  C   UNL     1      48.841   4.757  18.374  0.00  0.00    +0.000 A 
ATOM     15  C   UNL     1      49.930   3.908  18.176  0.00  0.00    +0.000 A 
ATOM     16  C   UNL     1      49.785   2.792  17.355  0.00  0.00    +0.000 A 
ATOM     17  C   UNL     1      48.553   2.533  16.773  0.00  0.00    +0.000 A 
ATOM     18  C   UNL     1      47.510   3.402  17.042  0.00  0.00    +0.000 A 
ATOM     19  N   UNL     1      47.625   4.503  17.818  0.00  0.00    +0.000 NA
ENDBRANCH  12  14
ENDBRANCH  10  12
ENDBRANCH   9  10
ENDBRANCH   6   9
ENDBRANCH   2   3
BRANCH   2  20
ATOM     20  N   UNL     1      46.741   6.591  11.768  0.00  0.00    +0.000 N 
ATOM     21  C   UNL     1      45.469   6.346  12.216  0.00  0.00    +0.000 C 
ATOM     22  O   UNL     1      44.849   7.153  12.907  0.00  0.00    +0.000 OA
ATOM     23  H   UNL     1      47.281   5.822  11.386  0.00  0.00    +0.000 HD
BRANCH  21  24
ATOM     24  C   UNL     1      44.856   5.097  11.769  0.00  0.00    +0.000 A 
ATOM     25  C   UNL     1      44.088   4.347  12.647  0.00  0.00    +0.000 A 
ATOM     26  S   UNL     1      43.475   2.911  11.959  0.00  0.00    +0.000 S 
ATOM     27  C   UNL     1      44.243   3.230  10.475  0.00  0.00    +0.000 A 
ATOM     28  N   UNL     1      44.161   2.353   9.439  0.00  0.00    +0.000 NA
ATOM     29  C   UNL     1      44.828   2.705   8.391  0.00  0.00    +0.000 A 
ATOM     30  N   UNL     1      45.553   3.866   8.272  0.00  0.00    +0.000 N 
ATOM     31  C   UNL     1      45.612   4.816   9.268  0.00  0.00    +0.000 A 
ATOM     32  O   UNL     1      46.179   5.886   9.096  0.00  0.00    +0.000 OA
ATOM     33  C   UNL     1      44.925   4.438  10.487  0.00  0.00    +0.000 A 
ATOM     34  H   UNL     1      46.024   4.091   7.412  0.00  0.00    +0.000 HD
ENDBRANCH  21  24
ENDBRANCH   2  20
TORSDOF 7
ENDMDL
MODEL 8
REMARK VINA RESULT:    -6.479      5.472      7.061
REMARK INTER + INTRA:         -10.202
REMARK INTER:                  -9.117
REMARK INTRA:                  -1.085
REMARK UNBOUND:                -1.072
REMARK  Name = 
REMARK  9 active torsions:
REMARK  status: ('A' for Active; 'I' for Inactive)
REMARK    1  A    between atoms: C_1  and  C_2
REMARK    2  A    between atoms: C_2  and  N_3
REMARK    3  A    between atoms: C_2  and  C_16
REMARK    4  A    between atoms: C_4  and  C_6
REMARK    5  A    between atoms: C_19  and  C_20
REMARK    6  A    between atoms: C_20  and  N_21
REMARK    7  A    between atoms: N_21  and  C_22
REMARK    8  A    between atoms: C_22  and  C_23
REMARK    9  A    between atoms: C_22  and  C_24
REMARK                            x       y       z     vdW  Elec       q    Type
REMARK                         _______ _______ _______ _____ _____    ______ ____
ROOT
ATOM      1  C   UNL     1      50.582  10.426  11.991  0.00  0.00    +0.000 C 
ATOM      2  C   UNL     1      50.931   8.933  11.915  0.00  0.00    +0.000 C 
ENDROOT
BRANCH   2   3
ATOM      3  C   UNL     1      49.805   8.037  12.348  0.00  0.00    +0.000 A 
ATOM      4  C   UNL     1      49.777   7.393  13.569  0.00  0.00    +0.000 A 
ATOM      5  N   UNL     1      48.775   6.588  13.970  0.00  0.00    +0.000 NA
ATOM      6  C   UNL     1      47.764   6.414  13.093  0.00  0.00    +0.000 A 
ATOM      7  N   UNL     1      47.695   6.973  11.877  0.00  0.00    +0.000 NA
ATOM      8  C   UNL     1      48.726   7.768  11.532  0.00  0.00    +0.000 A 
BRANCH   6   9
ATOM      9  C   UNL     1      46.584   5.586  13.556  0.00  0.00    +0.000 C 
BRANCH   9  10
ATOM     10  N   UNL     1      45.395   5.638  12.682  0.00  0.00    +0.000 NA
ATOM     11  H   UNL     1      45.697   6.038  11.787  0.00  0.00    +0.000 HD
BRANCH  10  12
ATOM     12  C   UNL     1      44.841   4.300  12.386  0.00  0.00    +0.000 C 
ATOM     13  C   UNL     1      43.398   4.171  12.896  0.00  0.00    +0.000 C 
BRANCH  12  14
ATOM     14  C   UNL     1      44.942   4.016  10.885  0.00  0.00    +0.000 A 
ATOM     15  C   UNL     1      44.424   2.844  10.334  0.00  0.00    +0.000 A 
ATOM     16  C   UNL     1      44.518   2.637   8.960  0.00  0.00    +0.000 A 
ATOM     17  C   UNL     1      45.101   3.613   8.164  0.00  0.00    +0.000 A 
ATOM     18  C   UNL     1      45.563   4.764   8.779  0.00  0.00    +0.000 A 
ATOM     19  N   UNL     1      45.503   4.985  10.111  0.00  0.00    +0.000 NA
ENDBRANCH  12  14
ENDBRANCH  10  12
ENDBRANCH   9  10
ENDBRANCH   6   9
ENDBRANCH   2   3
BRANCH   2  20
ATOM     20  N   UNL     1      51.345   8.582  10.568  0.00  0.00    +0.000 N 
ATOM     21  C   UNL     1      52.662   8.592  10.188  0.00  0.00    +0.000 C 
ATOM     22  O   UNL     1      53.570   8.870  10.970  0.00  0.00    +0.000 OA
ATOM     23  H   UNL     1      50.630   8.553   9.850  0.00  0.00    +0.000 HD
BRANCH  21  24
ATOM     24  C   UNL     1      52.940   8.184   8.812  0.00  0.00    +0.000 A 
ATOM     25  C   UNL     1      52.791   9.092   7.775  0.00  0.00    +0.000 A 
ATOM     26  S   UNL     1      53.135   8.434   6.240  0.00  0.00    +0.000 S 
ATOM     27  C   UNL     1      53.465   6.905   6.909  0.00  0.00    +0.000 A 
ATOM     28  N   UNL     1      53.785   5.846   6.119  0.00  0.00    +0.000 NA
ATOM     29  C   UNL     1      53.966   4.739   6.759  0.00  0.00    +0.000 A 
ATOM     30  N   UNL     1      53.879   4.596   8.123  0.00  0.00    +0.000 N 
ATOM     31  C   UNL     1      53.623   5.651   8.970  0.00  0.00    +0.000 A 
ATOM     32  O   UNL     1      53.653   5.515  10.185  0.00  0.00    +0.000 OA
ATOM     33  C   UNL     1      53.355   6.904   8.292  0.00  0.00    +0.000 A 
ATOM     34  H   UNL     1      54.063   3.707   8.558  0.00  0.00    +0.000 HD
ENDBRANCH  21  24
ENDBRANCH   2  20
TORSDOF 7
ENDMDL
MODEL 9
REMARK VINA RESULT:    -6.332      4.228      5.081
REMARK INTER + INTRA:          -9.994
REMARK INTER:                  -8.851
REMARK INTRA:                  -1.144
REMARK UNBOUND:                -1.072
REMARK  Name = 
REMARK  9 active torsions:
REMARK  status: ('A' for Active; 'I' for Inactive)
REMARK    1  A    between atoms: C_1  and  C_2
REMARK    2  A    between atoms: C_2  and  N_3
REMARK    3  A    between atoms: C_2  and  C_16
REMARK    4  A    between atoms: C_4  and  C_6
REMARK    5  A    between atoms: C_19  and  C_20
REMARK    6  A    between atoms: C_20  and  N_21
REMARK    7  A    between atoms: N_21  and  C_22
REMARK    8  A    between atoms: C_22  and  C_23
REMARK    9  A    between atoms: C_22  and  C_24
REMARK                            x       y       z     vdW  Elec       q    Type
REMARK                         _______ _______ _______ _____ _____    ______ ____
ROOT
ATOM      1  C   UNL     1      47.136  11.081  11.254  0.00  0.00    +0.000 C 
ATOM      2  C   UNL     1      46.952  10.100  12.420  0.00  0.00    +0.000 C 
ENDROOT
BRANCH   2   3
ATOM      3  C   UNL     1      45.925   9.038  12.146  0.00  0.00    +0.000 A 
ATOM      4  C   UNL     1      44.809   9.247  11.360  0.00  0.00    +0.000 A 
ATOM      5  N   UNL     1      43.882   8.305  11.106  0.00  0.00    +0.000 NA
ATOM      6  C   UNL     1      44.083   7.101  11.684  0.00  0.00    +0.000 A 
ATOM      7  N   UNL     1      45.118   6.792  12.477  0.00  0.00    +0.000 NA
ATOM      8  C   UNL     1      46.012   7.775  12.695  0.00  0.00    +0.000 A 
BRANCH   6   9
ATOM      9  C   UNL     1      43.103   5.999  11.341  0.00  0.00    +0.000 C 
BRANCH   9  10
ATOM     10  N   UNL     1      43.489   5.145  10.200  0.00  0.00    +0.000 NA
ATOM     11  H   UNL     1      44.074   5.716   9.581  0.00  0.00    +0.000 HD
BRANCH  10  12
ATOM     12  C   UNL     1      44.306   3.981  10.606  0.00  0.00    +0.000 C 
ATOM     13  C   UNL     1      43.438   2.891  11.251  0.00  0.00    +0.000 C 
BRANCH  12  14
ATOM     14  C   UNL     1      45.087   3.450   9.402  0.00  0.00    +0.000 A 
ATOM     15  C   UNL     1      45.625   4.316   8.449  0.00  0.00    +0.000 A 
ATOM     16  C   UNL     1      46.348   3.790   7.381  0.00  0.00    +0.000 A 
ATOM     17  C   UNL     1      46.541   2.418   7.301  0.00  0.00    +0.000 A 
ATOM     18  C   UNL     1      46.005   1.626   8.301  0.00  0.00    +0.000 A 
ATOM     19  N   UNL     1      45.283   2.105   9.339  0.00  0.00    +0.000 NA
ENDBRANCH  12  14
ENDBRANCH  10  12
ENDBRANCH   9  10
ENDBRANCH   6   9
ENDBRANCH   2   3
BRANCH   2  20
ATOM     20  N   UNL     1      48.219   9.479  12.759  0.00  0.00    +0.000 N 
ATOM     21  C   UNL     1      49.043   9.993  13.727  0.00  0.00    +0.000 C 
ATOM     22  O   UNL     1      48.746  10.991  14.381  0.00  0.00    +0.000 OA
ATOM     23  H   UNL     1      48.594   8.793  12.113  0.00  0.00    +0.000 HD
BRANCH  21  24
ATOM     24  C   UNL     1      50.273   9.248  13.990  0.00  0.00    +0.000 A 
ATOM     25  C   UNL     1      50.468   8.644  15.223  0.00  0.00    +0.000 A 
ATOM     26  S   UNL     1      51.967   7.842  15.358  0.00  0.00    +0.000 S 
ATOM     27  C   UNL     1      52.417   8.301  13.784  0.00  0.00    +0.000 A 
ATOM     28  N   UNL     1      53.634   7.971  13.276  0.00  0.00    +0.000 NA
ATOM     29  C   UNL     1      53.855   8.423  12.087  0.00  0.00    +0.000 A 
ATOM     30  N   UNL     1      52.961   9.159  11.346  0.00  0.00    +0.000 N 
ATOM     31  C   UNL     1      51.694   9.462  11.790  0.00  0.00    +0.000 A 
ATOM     32  O   UNL     1      50.884  10.028  11.069  0.00  0.00    +0.000 OA
ATOM     33  C   UNL     1      51.420   9.024  13.144  0.00  0.00    +0.000 A 
ATOM     34  H   UNL     1      53.190   9.453  10.411  0.00  0.00    +0.000 HD
ENDBRANCH  21  24
ENDBRANCH   2  20
TORSDOF 7
ENDMDL
