MODEL 1
REMARK VINA RESULT:    -8.808      0.000      0.000
REMARK INTER + INTRA:         -12.551
REMARK INTER:                 -11.383
REMARK INTRA:                  -1.168
REMARK UNBOUND:                -1.168
REMARK  Name = 
REMARK  5 active torsions:
REMARK  status: ('A' for Active; 'I' for Inactive)
REMARK    1  A    between atoms: C_2  and  C_4
REMARK    2  A    between atoms: C_7  and  N_8
REMARK    3  A    between atoms: N_8  and  C_9
REMARK    4  A    between atoms: C_9  and  C_10
REMARK    5  A    between atoms: C_14  and  C_15
REMARK                            x       y       z     vdW  Elec       q    Type
REMARK                         _______ _______ _______ _____ _____    ______ ____
ROOT
ATOM      1  C   UNL     1      43.550   4.746  11.284  0.00  0.00    +0.000 C 
ENDROOT
BRANCH   1   2
ATOM      2  C   UNL     1      44.769   5.051  12.117  0.00  0.00    +0.000 A 
ATOM      3  C   UNL     1      45.313   4.084  12.967  0.00  0.00    +0.000 A 
ATOM      4  C   UNL     1      46.508   4.336  13.634  0.00  0.00    +0.000 A 
ATOM      5  C   UNL     1      47.174   5.552  13.451  0.00  0.00    +0.000 A 
ATOM      6  C   UNL     1      46.661   6.548  12.600  0.00  0.00    +0.000 A 
ATOM      7  C   UNL     1      45.429   6.285  11.974  0.00  0.00    +0.000 A 
BRANCH   6   8
ATOM      8  C   UNL     1      47.428   7.777  12.283  0.00  0.00    +0.000 A 
ATOM      9  C   UNL     1      48.772   7.702  11.863  0.00  0.00    +0.000 A 
ATOM     10  C   UNL     1      49.473   8.839  11.451  0.00  0.00    +0.000 A 
ATOM     11  C   UNL     1      48.837  10.072  11.449  0.00  0.00    +0.000 A 
ATOM     12  F   UNL     1      49.496  11.155  11.019  0.00  0.00    +0.000 F 
ATOM     13  C   UNL     1      47.523  10.190  11.877  0.00  0.00    +0.000 A 
ATOM     14  C   UNL     1      46.828   9.052  12.301  0.00  0.00    +0.000 A 
ENDBRANCH   6   8
ENDBRANCH   1   2
BRANCH   1  15
ATOM     15  N   UNL     1      43.789   4.968   9.870  0.00  0.00    +0.000 N 
ATOM     16  H   UNL     1      42.982   5.302   9.351  0.00  0.00    +0.000 HD
BRANCH  15  20
ATOM     17  C   UNL     1      46.360   2.279   7.858  0.00  0.00    +0.000 A 
ATOM     18  C   UNL     1      45.388   1.784   8.731  0.00  0.00    +0.000 A 
ATOM     19  C   UNL     1      44.518   2.664   9.378  0.00  0.00    +0.000 A 
ATOM     20  C   UNL     1      44.569   4.048   9.159  0.00  0.00    +0.000 A 
ATOM     21  C   UNL     1      45.558   4.530   8.292  0.00  0.00    +0.000 A 
ATOM     22  C   UNL     1      46.449   3.657   7.648  0.00  0.00    +0.000 A 
BRANCH  17  24
ATOM     23  N   UNL     1      48.387   1.961   6.545  0.00  0.00    +0.000 N 
ATOM     24  C   UNL     1      47.335   1.380   7.195  0.00  0.00    +0.000 C 
ATOM     25  O   UNL     1      47.222   0.161   7.242  0.00  0.00    +0.000 OA
ATOM     26  H   UNL     1      49.085   1.330   6.169  0.00  0.00    +0.000 HD
ATOM     27  H   UNL     1      48.650   2.926   6.683  0.00  0.00    +0.000 HD
ENDBRANCH  17  24
ENDBRANCH  15  20
ENDBRANCH   1  15
TORSDOF 5
ENDMDL
MODEL 2
REMARK VINA RESULT:    -8.701      2.763      4.128
REMARK INTER + INTRA:         -12.412
REMARK INTER:                 -11.430
REMARK INTRA:                  -0.982
REMARK UNBOUND:                -1.168
REMARK  Name = 
REMARK  5 active torsions:
REMARK  status: ('A' for Active; 'I' for Inactive)
REMARK    1  A    between atoms: C_2  and  C_4
REMARK    2  A    between atoms: C_7  and  N_8
REMARK    3  A    between atoms: N_8  and  C_9
REMARK    4  A    between atoms: C_9  and  C_10
REMARK    5  A    between atoms: C_14  and  C_15
REMARK                            x       y       z     vdW  Elec       q    Type
REMARK                         _______ _______ _______ _____ _____    ______ ____
ROOT
ATOM      1  C   UNL     1      43.957   4.780  11.520  0.00  0.00    +0.000 C 
ENDROOT
BRANCH   1   2
ATOM      2  C   UNL     1      45.272   5.339  12.000  0.00  0.00    +0.000 A 
ATOM      3  C   UNL     1      45.847   6.448  11.372  0.00  0.00    +0.000 A 
ATOM      4  C   UNL     1      46.994   7.030  11.900  0.00  0.00    +0.000 A 
ATOM      5  C   UNL     1      47.573   6.516  13.066  0.00  0.00    +0.000 A 
ATOM      6  C   UNL     1      47.021   5.405  13.730  0.00  0.00    +0.000 A 
ATOM      7  C   UNL     1      45.886   4.809  13.148  0.00  0.00    +0.000 A 
BRANCH   6   8
ATOM      8  C   UNL     1      47.534   4.942  15.042  0.00  0.00    +0.000 A 
ATOM      9  C   UNL     1      48.313   5.793  15.853  0.00  0.00    +0.000 A 
ATOM     10  C   UNL     1      48.709   5.414  17.140  0.00  0.00    +0.000 A 
ATOM     11  C   UNL     1      48.326   4.178  17.637  0.00  0.00    +0.000 A 
ATOM     12  F   UNL     1      48.672   3.830  18.882  0.00  0.00    +0.000 F 
ATOM     13  C   UNL     1      47.579   3.304  16.861  0.00  0.00    +0.000 A 
ATOM     14  C   UNL     1      47.195   3.681  15.569  0.00  0.00    +0.000 A 
ENDBRANCH   6   8
ENDBRANCH   1   2
BRANCH   1  15
ATOM     15  N   UNL     1      43.836   4.838  10.075  0.00  0.00    +0.000 N 
ATOM     16  H   UNL     1      42.888   4.972   9.734  0.00  0.00    +0.000 HD
BRANCH  15  20
ATOM     17  C   UNL     1      46.342   2.274   7.830  0.00  0.00    +0.000 A 
ATOM     18  C   UNL     1      45.469   1.732   8.778  0.00  0.00    +0.000 A 
ATOM     19  C   UNL     1      44.619   2.570   9.504  0.00  0.00    +0.000 A 
ATOM     20  C   UNL     1      44.592   3.957   9.293  0.00  0.00    +0.000 A 
ATOM     21  C   UNL     1      45.482   4.485   8.350  0.00  0.00    +0.000 A 
ATOM     22  C   UNL     1      46.353   3.656   7.626  0.00  0.00    +0.000 A 
BRANCH  17  24
ATOM     23  N   UNL     1      48.388   2.032   6.531  0.00  0.00    +0.000 N 
ATOM     24  C   UNL     1      47.295   1.422   7.080  0.00  0.00    +0.000 C 
ATOM     25  O   UNL     1      47.129   0.213   6.970  0.00  0.00    +0.000 OA
ATOM     26  H   UNL     1      49.068   1.422   6.093  0.00  0.00    +0.000 HD
ATOM     27  H   UNL     1      48.687   2.959   6.796  0.00  0.00    +0.000 HD
ENDBRANCH  17  24
ENDBRANCH  15  20
ENDBRANCH   1  15
TORSDOF 5
ENDMDL
MODEL 3
REMARK VINA RESULT:    -8.069      3.771      6.891
REMARK INTER + INTRA:         -11.595
REMARK INTER:                 -10.565
REMARK INTRA:                  -1.030
REMARK UNBOUND:                -1.168
REMARK  Name = 
REMARK  5 active torsions:
REMARK  status: ('A' for Active; 'I' for Inactive)
REMARK    1  A    between atoms: C_2  and  C_4
REMARK    2  A    between atoms: C_7  and  N_8
REMARK    3  A    between atoms: N_8  and  C_9
REMARK    4  A    between atoms: C_9  and  C_10
REMARK    5  A    between atoms: C_14  and  C_15
REMARK                            x       y       z     vdW  Elec       q    Type
REMARK                         _______ _______ _______ _____ _____    ______ ____
ROOT
ATOM      1  C   UNL     1      43.926   6.630  11.530  0.00  0.00    +0.000 C 
ENDROOT
BRANCH   1   2
ATOM      2  C   UNL     1      44.040   5.152  11.256  0.00  0.00    +0.000 A 
ATOM      3  C   UNL     1      43.254   4.233  11.959  0.00  0.00    +0.000 A 
ATOM      4  C   UNL     1      43.278   2.887  11.611  0.00  0.00    +0.000 A 
ATOM      5  C   UNL     1      44.079   2.446  10.552  0.00  0.00    +0.000 A 
ATOM      6  C   UNL     1      44.879   3.341   9.817  0.00  0.00    +0.000 A 
ATOM      7  C   UNL     1      44.870   4.689  10.219  0.00  0.00    +0.000 A 
BRANCH   6   8
ATOM      8  C   UNL     1      45.616   2.915   8.603  0.00  0.00    +0.000 A 
ATOM      9  C   UNL     1      45.974   3.851   7.610  0.00  0.00    +0.000 A 
ATOM     10  C   UNL     1      46.766   3.488   6.516  0.00  0.00    +0.000 A 
ATOM     11  C   UNL     1      47.218   2.182   6.402  0.00  0.00    +0.000 A 
ATOM     12  F   UNL     1      48.008   1.843   5.376  0.00  0.00    +0.000 F 
ATOM     13  C   UNL     1      46.868   1.227   7.346  0.00  0.00    +0.000 A 
ATOM     14  C   UNL     1      46.065   1.590   8.432  0.00  0.00    +0.000 A 
ENDBRANCH   6   8
ENDBRANCH   1   2
BRANCH   1  15
ATOM     15  N   UNL     1      44.635   7.016  12.735  0.00  0.00    +0.000 N 
ATOM     16  H   UNL     1      44.099   7.592  13.378  0.00  0.00    +0.000 HD
BRANCH  15  20
ATOM     17  C   UNL     1      48.723   7.982  12.239  0.00  0.00    +0.000 A 
ATOM     18  C   UNL     1      47.752   8.966  12.042  0.00  0.00    +0.000 A 
ATOM     19  C   UNL     1      46.401   8.661  12.230  0.00  0.00    +0.000 A 
ATOM     20  C   UNL     1      45.981   7.388  12.642  0.00  0.00    +0.000 A 
ATOM     21  C   UNL     1      46.967   6.409  12.822  0.00  0.00    +0.000 A 
ATOM     22  C   UNL     1      48.326   6.698  12.620  0.00  0.00    +0.000 A 
BRANCH  17  24
ATOM     23  N   UNL     1      50.902   7.261  11.422  0.00  0.00    +0.000 N 
ATOM     24  C   UNL     1      50.161   8.254  11.997  0.00  0.00    +0.000 C 
ATOM     25  O   UNL     1      50.667   9.334  12.277  0.00  0.00    +0.000 OA
ATOM     26  H   UNL     1      51.860   7.494  11.190  0.00  0.00    +0.000 HD
ATOM     27  H   UNL     1      50.485   6.465  10.960  0.00  0.00    +0.000 HD
ENDBRANCH  17  24
ENDBRANCH  15  20
ENDBRANCH   1  15
TORSDOF 5
ENDMDL
MODEL 4
REMARK VINA RESULT:    -7.844      1.641      2.271
REMARK INTER + INTRA:         -11.304
REMARK INTER:                 -10.391
REMARK INTRA:                  -0.913
REMARK UNBOUND:                -1.168
REMARK  Name = 
REMARK  5 active torsions:
REMARK  status: ('A' for Active; 'I' for Inactive)
REMARK    1  A    between atoms: C_2  and  C_4
REMARK    2  A    between atoms: C_7  and  N_8
REMARK    3  A    between atoms: N_8  and  C_9
REMARK    4  A    between atoms: C_9  and  C_10
REMARK    5  A    between atoms: C_14  and  C_15
REMARK                            x       y       z     vdW  Elec       q    Type
REMARK                         _______ _______ _______ _____ _____    ______ ____
ROOT
ATOM      1  C   UNL     1      44.354   4.346  11.650  0.00  0.00    +0.000 C 
ENDROOT
BRANCH   1   2
ATOM      2  C   UNL     1      44.923   5.742  11.631  0.00  0.00    +0.000 A 
ATOM      3  C   UNL     1      44.091   6.849  11.439  0.00  0.00    +0.000 A 
ATOM      4  C   UNL     1      44.608   8.136  11.549  0.00  0.00    +0.000 A 
ATOM      5  C   UNL     1      45.958   8.329  11.861  0.00  0.00    +0.000 A 
ATOM      6  C   UNL     1      46.825   7.241  12.067  0.00  0.00    +0.000 A 
ATOM      7  C   UNL     1      46.287   5.951  11.906  0.00  0.00    +0.000 A 
BRANCH   6   8
ATOM      8  C   UNL     1      48.218   7.429  12.542  0.00  0.00    +0.000 A 
ATOM      9  C   UNL     1      49.222   7.896  11.669  0.00  0.00    +0.000 A 
ATOM     10  C   UNL     1      50.511   8.187  12.126  0.00  0.00    +0.000 A 
ATOM     11  C   UNL     1      50.814   8.019  13.469  0.00  0.00    +0.000 A 
ATOM     12  F   UNL     1      52.036   8.333  13.915  0.00  0.00    +0.000 F 
ATOM     13  C   UNL     1      49.860   7.540  14.355  0.00  0.00    +0.000 A 
ATOM     14  C   UNL     1      48.574   7.238  13.892  0.00  0.00    +0.000 A 
ENDBRANCH   6   8
ENDBRANCH   1   2
BRANCH   1  15
ATOM     15  N   UNL     1      43.797   3.970  10.364  0.00  0.00    +0.000 N 
ATOM     16  H   UNL     1      42.907   3.481  10.413  0.00  0.00    +0.000 HD
BRANCH  15  20
ATOM     17  C   UNL     1      46.582   2.593   7.493  0.00  0.00    +0.000 A 
ATOM     18  C   UNL     1      45.937   1.675   8.326  0.00  0.00    +0.000 A 
ATOM     19  C   UNL     1      44.996   2.120   9.258  0.00  0.00    +0.000 A 
ATOM     20  C   UNL     1      44.651   3.475   9.371  0.00  0.00    +0.000 A 
ATOM     21  C   UNL     1      45.316   4.383   8.538  0.00  0.00    +0.000 A 
ATOM     22  C   UNL     1      46.276   3.951   7.609  0.00  0.00    +0.000 A 
BRANCH  17  24
ATOM     23  N   UNL     1      47.811   2.937   5.418  0.00  0.00    +0.000 N 
ATOM     24  C   UNL     1      47.624   2.164   6.529  0.00  0.00    +0.000 C 
ATOM     25  O   UNL     1      48.311   1.169   6.725  0.00  0.00    +0.000 OA
ATOM     26  H   UNL     1      48.581   2.675   4.815  0.00  0.00    +0.000 HD
ATOM     27  H   UNL     1      47.448   3.876   5.338  0.00  0.00    +0.000 HD
ENDBRANCH  17  24
ENDBRANCH  15  20
ENDBRANCH   1  15
TORSDOF 5
ENDMDL
MODEL 5
REMARK VINA RESULT:    -7.399      4.293      7.571
REMARK INTER + INTRA:         -10.730
REMARK INTER:                  -9.901
REMARK INTRA:                  -0.829
REMARK UNBOUND:                -1.168
REMARK  Name = 
REMARK  5 active torsions:
REMARK  status: ('A' for Active; 'I' for Inactive)
REMARK    1  A    between atoms: C_2  and  C_4
REMARK    2  A    between atoms: C_7  and  N_8
REMARK    3  A    between atoms: N_8  and  C_9
REMARK    4  A    between atoms: C_9  and  C_10
REMARK    5  A    between atoms: C_14  and  C_15
REMARK                            x       y       z     vdW  Elec       q    Type
REMARK                         _______ _______ _______ _____ _____    ______ ____
ROOT
ATOM      1  C   UNL     1      46.029   7.111  12.657  0.00  0.00    +0.000 C 
ENDROOT
BRANCH   1   2
ATOM      2  C   UNL     1      45.123   6.132  11.953  0.00  0.00    +0.000 A 
ATOM      3  C   UNL     1      43.739   6.175  12.148  0.00  0.00    +0.000 A 
ATOM      4  C   UNL     1      42.905   5.351  11.399  0.00  0.00    +0.000 A 
ATOM      5  C   UNL     1      43.444   4.484  10.443  0.00  0.00    +0.000 A 
ATOM      6  C   UNL     1      44.830   4.417  10.213  0.00  0.00    +0.000 A 
ATOM      7  C   UNL     1      45.654   5.228  11.016  0.00  0.00    +0.000 A 
BRANCH   6   8
ATOM      8  C   UNL     1      45.403   3.615   9.105  0.00  0.00    +0.000 A 
ATOM      9  C   UNL     1      46.031   4.243   8.010  0.00  0.00    +0.000 A 
ATOM     10  C   UNL     1      46.675   3.501   7.014  0.00  0.00    +0.000 A 
ATOM     11  C   UNL     1      46.704   2.117   7.102  0.00  0.00    +0.000 A 
ATOM     12  F   UNL     1      47.352   1.409   6.170  0.00  0.00    +0.000 F 
ATOM     13  C   UNL     1      46.077   1.462   8.152  0.00  0.00    +0.000 A 
ATOM     14  C   UNL     1      45.422   2.207   9.140  0.00  0.00    +0.000 A 
ENDBRANCH   6   8
ENDBRANCH   1   2
BRANCH   1  15
ATOM     15  N   UNL     1      47.329   6.535  12.946  0.00  0.00    +0.000 N 
ATOM     16  H   UNL     1      47.736   6.001  12.183  0.00  0.00    +0.000 HD
BRANCH  15  20
ATOM     17  C   UNL     1      48.155   4.631  16.632  0.00  0.00    +0.000 A 
ATOM     18  C   UNL     1      48.734   5.870  16.349  0.00  0.00    +0.000 A 
ATOM     19  C   UNL     1      48.445   6.518  15.145  0.00  0.00    +0.000 A 
ATOM     20  C   UNL     1      47.558   5.970  14.206  0.00  0.00    +0.000 A 
ATOM     21  C   UNL     1      46.996   4.721  14.500  0.00  0.00    +0.000 A 
ATOM     22  C   UNL     1      47.292   4.053  15.698  0.00  0.00    +0.000 A 
BRANCH  17  24
ATOM     23  N   UNL     1      47.930   4.344  19.040  0.00  0.00    +0.000 N 
ATOM     24  C   UNL     1      48.480   3.890  17.875  0.00  0.00    +0.000 C 
ATOM     25  O   UNL     1      49.195   2.896  17.863  0.00  0.00    +0.000 OA
ATOM     26  H   UNL     1      48.096   3.779  19.864  0.00  0.00    +0.000 HD
ATOM     27  H   UNL     1      47.158   4.995  19.064  0.00  0.00    +0.000 HD
ENDBRANCH  17  24
ENDBRANCH  15  20
ENDBRANCH   1  15
TORSDOF 5
ENDMDL
MODEL 6
REMARK VINA RESULT:    -7.324      5.125      8.362
REMARK INTER + INTRA:         -10.633
REMARK INTER:                 -10.024
REMARK INTRA:                  -0.609
REMARK UNBOUND:                -1.168
REMARK  Name = 
REMARK  5 active torsions:
REMARK  status: ('A' for Active; 'I' for Inactive)
REMARK    1  A    between atoms: C_2  and  C_4
REMARK    2  A    between atoms: C_7  and  N_8
REMARK    3  A    between atoms: N_8  and  C_9
REMARK    4  A    between atoms: C_9  and  C_10
REMARK    5  A    between atoms: C_14  and  C_15
REMARK                            x       y       z     vdW  Elec       q    Type
REMARK                         _______ _______ _______ _____ _____    ______ ____
ROOT
ATOM      1  C   UNL     1      46.152   5.273  13.898  0.00  0.00    +0.000 C 
ENDROOT
BRANCH   1   2
ATOM      2  C   UNL     1      45.164   4.888  12.827  0.00  0.00    +0.000 A 
ATOM      3  C   UNL     1      43.833   5.310  12.898  0.00  0.00    +0.000 A 
ATOM      4  C   UNL     1      42.964   5.055  11.842  0.00  0.00    +0.000 A 
ATOM      5  C   UNL     1      43.418   4.382  10.702  0.00  0.00    +0.000 A 
ATOM      6  C   UNL     1      44.751   3.946  10.591  0.00  0.00    +0.000 A 
ATOM      7  C   UNL     1      45.596   4.179  11.691  0.00  0.00    +0.000 A 
BRANCH   6   8
ATOM      8  C   UNL     1      45.282   3.366   9.333  0.00  0.00    +0.000 A 
ATOM      9  C   UNL     1      45.763   4.199   8.302  0.00  0.00    +0.000 A 
ATOM     10  C   UNL     1      46.371   3.668   7.159  0.00  0.00    +0.000 A 
ATOM     11  C   UNL     1      46.511   2.294   7.035  0.00  0.00    +0.000 A 
ATOM     12  F   UNL     1      47.127   1.788   5.959  0.00  0.00    +0.000 F 
ATOM     13  C   UNL     1      46.030   1.442   8.018  0.00  0.00    +0.000 A 
ATOM     14  C   UNL     1      45.411   1.975   9.153  0.00  0.00    +0.000 A 
ENDBRANCH   6   8
ENDBRANCH   1   2
BRANCH   1  15
ATOM     15  N   UNL     1      46.642   4.117  14.626  0.00  0.00    +0.000 N 
ATOM     16  H   UNL     1      46.035   3.303  14.588  0.00  0.00    +0.000 HD
BRANCH  15  20
ATOM     17  C   UNL     1      48.637   4.480  18.338  0.00  0.00    +0.000 A 
ATOM     18  C   UNL     1      48.750   5.500  17.389  0.00  0.00    +0.000 A 
ATOM     19  C   UNL     1      48.073   5.399  16.172  0.00  0.00    +0.000 A 
ATOM     20  C   UNL     1      47.248   4.305  15.874  0.00  0.00    +0.000 A 
ATOM     21  C   UNL     1      47.155   3.285  16.830  0.00  0.00    +0.000 A 
ATOM     22  C   UNL     1      47.844   3.367  18.050  0.00  0.00    +0.000 A 
BRANCH  17  24
ATOM     23  N   UNL     1      48.753   4.052  20.733  0.00  0.00    +0.000 N 
ATOM     24  C   UNL     1      49.383   4.528  19.618  0.00  0.00    +0.000 C 
ATOM     25  O   UNL     1      50.530   4.955  19.679  0.00  0.00    +0.000 OA
ATOM     26  H   UNL     1      49.306   4.017  21.580  0.00  0.00    +0.000 HD
ATOM     27  H   UNL     1      47.922   3.479  20.689  0.00  0.00    +0.000 HD
ENDBRANCH  17  24
ENDBRANCH  15  20
ENDBRANCH   1  15
TORSDOF 5
ENDMDL
MODEL 7
REMARK VINA RESULT:    -7.317      3.846      6.880
REMARK INTER + INTRA:         -10.623
REMARK INTER:                  -9.613
REMARK INTRA:                  -1.010
REMARK UNBOUND:                -1.168
REMARK  Name = 
REMARK  5 active torsions:
REMARK  status: ('A' for Active; 'I' for Inactive)
REMARK    1  A    between atoms: C_2  and  C_4
REMARK    2  A    between atoms: C_7  and  N_8
REMARK    3  A    between atoms: N_8  and  C_9
REMARK    4  A    between atoms: C_9  and  C_10
REMARK    5  A    between atoms: C_14  and  C_15
REMARK                            x       y       z     vdW  Elec       q    Type
REMARK                         _______ _______ _______ _____ _____    ______ ____
ROOT
ATOM      1  C   UNL     1      45.980   4.619  13.730  0.00  0.00    +0.000 C 
ENDROOT
BRANCH   1   2
ATOM      2  C   UNL     1      45.096   4.375  12.534  0.00  0.00    +0.000 A 
ATOM      3  C   UNL     1      43.787   4.863  12.502  0.00  0.00    +0.000 A 
ATOM      4  C   UNL     1      43.025   4.739  11.344  0.00  0.00    +0.000 A 
ATOM      5  C   UNL     1      43.568   4.136  10.205  0.00  0.00    +0.000 A 
ATOM      6  C   UNL     1      44.884   3.638  10.195  0.00  0.00    +0.000 A 
ATOM      7  C   UNL     1      45.615   3.736  11.393  0.00  0.00    +0.000 A 
BRANCH   6   8
ATOM      8  C   UNL     1      45.520   3.132   8.955  0.00  0.00    +0.000 A 
ATOM      9  C   UNL     1      45.959   4.022   7.954  0.00  0.00    +0.000 A 
ATOM     10  C   UNL     1      46.662   3.571   6.832  0.00  0.00    +0.000 A 
ATOM     11  C   UNL     1      46.942   2.219   6.699  0.00  0.00    +0.000 A 
ATOM     12  F   UNL     1      47.648   1.791   5.645  0.00  0.00    +0.000 F 
ATOM     13  C   UNL     1      46.506   1.309   7.651  0.00  0.00    +0.000 A 
ATOM     14  C   UNL     1      45.792   1.762   8.765  0.00  0.00    +0.000 A 
ENDBRANCH   6   8
ENDBRANCH   1   2
BRANCH   1  15
ATOM     15  N   UNL     1      46.211   6.034  13.955  0.00  0.00    +0.000 N 
ATOM     16  H   UNL     1      45.370   6.605  13.967  0.00  0.00    +0.000 HD
BRANCH  15  20
ATOM     17  C   UNL     1      49.629   7.674  12.079  0.00  0.00    +0.000 A 
ATOM     18  C   UNL     1      48.452   7.507  11.346  0.00  0.00    +0.000 A 
ATOM     19  C   UNL     1      47.311   6.991  11.966  0.00  0.00    +0.000 A 
ATOM     20  C   UNL     1      47.298   6.654  13.327  0.00  0.00    +0.000 A 
ATOM     21  C   UNL     1      48.491   6.815  14.044  0.00  0.00    +0.000 A 
ATOM     22  C   UNL     1      49.648   7.316  13.429  0.00  0.00    +0.000 A 
BRANCH  17  24
ATOM     23  N   UNL     1      51.705   7.241  10.881  0.00  0.00    +0.000 N 
ATOM     24  C   UNL     1      50.874   8.168  11.442  0.00  0.00    +0.000 C 
ATOM     25  O   UNL     1      51.142   9.362  11.396  0.00  0.00    +0.000 OA
ATOM     26  H   UNL     1      52.507   7.603  10.379  0.00  0.00    +0.000 HD
ATOM     27  H   UNL     1      51.414   6.294  10.682  0.00  0.00    +0.000 HD
ENDBRANCH  17  24
ENDBRANCH  15  20
ENDBRANCH   1  15
TORSDOF 5
ENDMDL
MODEL 8
REMARK VINA RESULT:    -6.895      4.019      7.386
REMARK INTER + INTRA:         -10.079
REMARK INTER:                  -9.061
REMARK INTRA:                  -1.018
REMARK UNBOUND:                -1.168
REMARK  Name = 
REMARK  5 active torsions:
REMARK  status: ('A' for Active; 'I' for Inactive)
REMARK    1  A    between atoms: C_2  and  C_4
REMARK    2  A    between atoms: C_7  and  N_8
REMARK    3  A    between atoms: N_8  and  C_9
REMARK    4  A    between atoms: C_9  and  C_10
REMARK    5  A    between atoms: C_14  and  C_15
REMARK                            x       y       z     vdW  Elec       q    Type
REMARK                         _______ _______ _______ _____ _____    ______ ____
ROOT
ATOM      1  C   UNL     1      45.972   4.794  14.050  0.00  0.00    +0.000 C 
ENDROOT
BRANCH   1   2
ATOM      2  C   UNL     1      45.036   4.638  12.878  0.00  0.00    +0.000 A 
ATOM      3  C   UNL     1      43.786   5.264  12.875  0.00  0.00    +0.000 A 
ATOM      4  C   UNL     1      42.986   5.216  11.738  0.00  0.00    +0.000 A 
ATOM      5  C   UNL     1      43.431   4.550  10.591  0.00  0.00    +0.000 A 
ATOM      6  C   UNL     1      44.685   3.913  10.553  0.00  0.00    +0.000 A 
ATOM      7  C   UNL     1      45.454   3.939  11.731  0.00  0.00    +0.000 A 
BRANCH   6   8
ATOM      8  C   UNL     1      45.231   3.334   9.302  0.00  0.00    +0.000 A 
ATOM      9  C   UNL     1      45.686   4.166   8.258  0.00  0.00    +0.000 A 
ATOM     10  C   UNL     1      46.307   3.640   7.122  0.00  0.00    +0.000 A 
ATOM     11  C   UNL     1      46.487   2.269   7.014  0.00  0.00    +0.000 A 
ATOM     12  F   UNL     1      47.116   1.767   5.944  0.00  0.00    +0.000 F 
ATOM     13  C   UNL     1      46.033   1.415   8.009  0.00  0.00    +0.000 A 
ATOM     14  C   UNL     1      45.400   1.944   9.139  0.00  0.00    +0.000 A 
ENDBRANCH   6   8
ENDBRANCH   1   2
BRANCH   1  15
ATOM     15  N   UNL     1      47.336   5.049  13.626  0.00  0.00    +0.000 N 
ATOM     16  H   UNL     1      48.036   4.466  14.075  0.00  0.00    +0.000 HD
BRANCH  15  20
ATOM     17  C   UNL     1      48.339   9.105  12.968  0.00  0.00    +0.000 A 
ATOM     18  C   UNL     1      48.396   8.580  14.262  0.00  0.00    +0.000 A 
ATOM     19  C   UNL     1      48.093   7.234  14.482  0.00  0.00    +0.000 A 
ATOM     20  C   UNL     1      47.752   6.371  13.431  0.00  0.00    +0.000 A 
ATOM     21  C   UNL     1      47.685   6.917  12.142  0.00  0.00    +0.000 A 
ATOM     22  C   UNL     1      47.972   8.271  11.910  0.00  0.00    +0.000 A 
BRANCH  17  24
ATOM     23  N   UNL     1      47.564  11.412  12.871  0.00  0.00    +0.000 N 
ATOM     24  C   UNL     1      48.602  10.540  12.704  0.00  0.00    +0.000 C 
ATOM     25  O   UNL     1      49.711  10.939  12.370  0.00  0.00    +0.000 OA
ATOM     26  H   UNL     1      47.784  12.395  12.766  0.00  0.00    +0.000 HD
ATOM     27  H   UNL     1      46.720  11.169  13.369  0.00  0.00    +0.000 HD
ENDBRANCH  17  24
ENDBRANCH  15  20
ENDBRANCH   1  15
TORSDOF 5
ENDMDL
MODEL 9
REMARK VINA RESULT:    -6.288      5.150      8.221
REMARK INTER + INTRA:          -9.294
REMARK INTER:                  -8.456
REMARK INTRA:                  -0.838
REMARK UNBOUND:                -1.168
REMARK  Name = 
REMARK  5 active torsions:
REMARK  status: ('A' for Active; 'I' for Inactive)
REMARK    1  A    between atoms: C_2  and  C_4
REMARK    2  A    between atoms: C_7  and  N_8
REMARK    3  A    between atoms: N_8  and  C_9
REMARK    4  A    between atoms: C_9  and  C_10
REMARK    5  A    between atoms: C_14  and  C_15
REMARK                            x       y       z     vdW  Elec       q    Type
REMARK                         _______ _______ _______ _____ _____    ______ ____
ROOT
ATOM      1  C   UNL     1      48.013   8.010  14.035  0.00  0.00    +0.000 C 
ENDROOT
BRANCH   1   2
ATOM      2  C   UNL     1      46.785   7.891  13.170  0.00  0.00    +0.000 A 
ATOM      3  C   UNL     1      46.007   9.014  12.876  0.00  0.00    +0.000 A 
ATOM      4  C   UNL     1      44.951   8.914  11.976  0.00  0.00    +0.000 A 
ATOM      5  C   UNL     1      44.667   7.693  11.355  0.00  0.00    +0.000 A 
ATOM      6  C   UNL     1      45.431   6.542  11.620  0.00  0.00    +0.000 A 
ATOM      7  C   UNL     1      46.465   6.661  12.567  0.00  0.00    +0.000 A 
BRANCH   6   8
ATOM      8  C   UNL     1      45.237   5.282  10.861  0.00  0.00    +0.000 A 
ATOM      9  C   UNL     1      44.624   4.164  11.462  0.00  0.00    +0.000 A 
ATOM     10  C   UNL     1      44.331   3.009  10.730  0.00  0.00    +0.000 A 
ATOM     11  C   UNL     1      44.644   2.959   9.380  0.00  0.00    +0.000 A 
ATOM     12  F   UNL     1      44.330   1.869   8.669  0.00  0.00    +0.000 F 
ATOM     13  C   UNL     1      45.269   4.030   8.757  0.00  0.00    +0.000 A 
ATOM     14  C   UNL     1      45.572   5.178   9.496  0.00  0.00    +0.000 A 
ENDBRANCH   6   8
ENDBRANCH   1   2
BRANCH   1  15
ATOM     15  N   UNL     1      48.620   6.719  14.299  0.00  0.00    +0.000 N 
ATOM     16  H   UNL     1      48.434   6.011  13.593  0.00  0.00    +0.000 HD
BRANCH  15  20
ATOM     17  C   UNL     1      48.725   4.986  18.156  0.00  0.00    +0.000 A 
ATOM     18  C   UNL     1      49.488   6.126  17.889  0.00  0.00    +0.000 A 
ATOM     19  C   UNL     1      49.438   6.719  16.625  0.00  0.00    +0.000 A 
ATOM     20  C   UNL     1      48.614   6.219  15.606  0.00  0.00    +0.000 A 
ATOM     21  C   UNL     1      47.866   5.068  15.886  0.00  0.00    +0.000 A 
ATOM     22  C   UNL     1      47.921   4.453  17.147  0.00  0.00    +0.000 A 
BRANCH  17  24
ATOM     23  N   UNL     1      48.262   3.043  19.550  0.00  0.00    +0.000 N 
ATOM     24  C   UNL     1      48.794   4.299  19.468  0.00  0.00    +0.000 C 
ATOM     25  O   UNL     1      49.326   4.821  20.440  0.00  0.00    +0.000 OA
ATOM     26  H   UNL     1      48.391   2.559  20.430  0.00  0.00    +0.000 HD
ATOM     27  H   UNL     1      48.039   2.489  18.735  0.00  0.00    +0.000 HD
ENDBRANCH  17  24
ENDBRANCH  15  20
ENDBRANCH   1  15
TORSDOF 5
ENDMDL
