MODEL 1
REMARK VINA RESULT:    -9.014      0.000      0.000
REMARK INTER + INTRA:         -13.608
REMARK INTER:                 -12.703
REMARK INTRA:                  -0.905
REMARK UNBOUND:                -0.905
REMARK  Name = 
REMARK  8 active torsions:
REMARK  status: ('A' for Active; 'I' for Inactive)
REMARK    1  A    between atoms: C_1  and  C_2
REMARK    2  A    between atoms: C_4  and  C_5
REMARK    3  A    between atoms: C_10  and  N_11
REMARK    4  A    between atoms: N_11  and  C_12
REMARK    5  A    between atoms: C_12  and  C_13
REMARK    6  A    between atoms: C_17  and  C_18
REMARK    7  A    between atoms: C_21  and  O_22
REMARK    8  A    between atoms: O_22  and  C_23
REMARK                            x       y       z     vdW  Elec       q    Type
REMARK                         _______ _______ _______ _____ _____    ______ ____
ROOT
ATOM      1  C   UNL     1      44.081   5.124  11.356  0.00  0.00    +0.000 C 
ATOM      2  C   UNL     1      43.348   4.062  12.198  0.00  0.00    +0.000 C 
ATOM      3  C   UNL     1      42.951   5.481  12.319  0.00  0.00    +0.000 C 
ENDROOT
BRANCH   1   4
ATOM      4  C   UNL     1      45.469   5.533  11.856  0.00  0.00    +0.000 A 
ATOM      5  C   UNL     1      46.189   6.560  11.233  0.00  0.00    +0.000 A 
ATOM      6  C   UNL     1      47.393   7.014  11.764  0.00  0.00    +0.000 A 
ATOM      7  C   UNL     1      47.882   6.461  12.947  0.00  0.00    +0.000 A 
ATOM      8  C   UNL     1      47.178   5.451  13.629  0.00  0.00    +0.000 A 
ATOM      9  C   UNL     1      46.008   4.969  13.029  0.00  0.00    +0.000 A 
BRANCH   8  10
ATOM     10  C   UNL     1      47.578   5.011  14.982  0.00  0.00    +0.000 A 
ATOM     11  C   UNL     1      48.307   5.878  15.815  0.00  0.00    +0.000 A 
ATOM     12  C   UNL     1      48.640   5.535  17.126  0.00  0.00    +0.000 A 
ATOM     13  C   UNL     1      48.217   4.320  17.653  0.00  0.00    +0.000 A 
ATOM     14  C   UNL     1      47.510   3.433  16.843  0.00  0.00    +0.000 A 
ATOM     15  C   UNL     1      47.191   3.774  15.524  0.00  0.00    +0.000 A 
BRANCH  13  16
ATOM     16  O   UNL     1      48.447   3.894  18.929  0.00  0.00    +0.000 OA
BRANCH  16  17
ATOM     17  C   UNL     1      48.702   4.924  19.868  0.00  0.00    +0.000 C 
ATOM     18  F   UNL     1      47.511   5.505  20.162  0.00  0.00    +0.000 F 
ATOM     19  F   UNL     1      49.159   4.364  21.014  0.00  0.00    +0.000 F 
ENDBRANCH  16  17
ENDBRANCH  13  16
ENDBRANCH   8  10
ENDBRANCH   1   4
BRANCH   1  20
ATOM     20  N   UNL     1      44.072   4.820   9.914  0.00  0.00    +0.000 N 
ATOM     21  H   UNL     1      43.179   4.949   9.442  0.00  0.00    +0.000 HD
BRANCH  20  28
ATOM     22  C   UNL     1      44.121   1.722   9.713  0.00  0.00    +0.000 C 
ATOM     23  C   UNL     1      44.972   2.687   8.968  0.00  0.00    +0.000 A 
ATOM     24  C   UNL     1      45.953   2.122   8.135  0.00  0.00    +0.000 A 
ATOM     25  C   UNL     1      46.779   2.902   7.342  0.00  0.00    +0.000 A 
ATOM     26  C   UNL     1      46.575   4.263   7.422  0.00  0.00    +0.000 A 
ATOM     27  N   UNL     1      45.656   4.849   8.249  0.00  0.00    +0.000 NA
ATOM     28  C   UNL     1      44.865   4.073   9.046  0.00  0.00    +0.000 A 
BRANCH  25  29
ATOM     29  C   UNL     1      47.780   2.201   6.494  0.00  0.00    +0.000 C 
ATOM     30  N   UNL     1      48.208   2.769   5.332  0.00  0.00    +0.000 N 
ATOM     31  O   UNL     1      48.233   1.115   6.823  0.00  0.00    +0.000 OA
ATOM     32  H   UNL     1      47.923   3.665   4.964  0.00  0.00    +0.000 HD
ATOM     33  H   UNL     1      48.895   2.243   4.809  0.00  0.00    +0.000 HD
ENDBRANCH  25  29
ENDBRANCH  20  28
ENDBRANCH   1  20
TORSDOF 7
ENDMDL
MODEL 2
REMARK VINA RESULT:    -8.254      3.881      4.695
REMARK INTER + INTRA:         -12.537
REMARK INTER:                 -11.003
REMARK INTRA:                  -1.535
REMARK UNBOUND:                -0.905
REMARK  Name = 
REMARK  8 active torsions:
REMARK  status: ('A' for Active; 'I' for Inactive)
REMARK    1  A    between atoms: C_1  and  C_2
REMARK    2  A    between atoms: C_4  and  C_5
REMARK    3  A    between atoms: C_10  and  N_11
REMARK    4  A    between atoms: N_11  and  C_12
REMARK    5  A    between atoms: C_12  and  C_13
REMARK    6  A    between atoms: C_17  and  C_18
REMARK    7  A    between atoms: C_21  and  O_22
REMARK    8  A    between atoms: O_22  and  C_23
REMARK                            x       y       z     vdW  Elec       q    Type
REMARK                         _______ _______ _______ _____ _____    ______ ____
ROOT
ATOM      1  C   UNL     1      43.840   5.492  10.994  0.00  0.00    +0.000 C 
ATOM      2  C   UNL     1      42.484   5.803  11.656  0.00  0.00    +0.000 C 
ATOM      3  C   UNL     1      43.279   6.909  11.083  0.00  0.00    +0.000 C 
ENDROOT
BRANCH   1   4
ATOM      4  C   UNL     1      45.007   5.231  11.950  0.00  0.00    +0.000 A 
ATOM      5  C   UNL     1      45.177   3.982  12.561  0.00  0.00    +0.000 A 
ATOM      6  C   UNL     1      46.305   3.709  13.329  0.00  0.00    +0.000 A 
ATOM      7  C   UNL     1      47.296   4.678  13.477  0.00  0.00    +0.000 A 
ATOM      8  C   UNL     1      47.188   5.936  12.855  0.00  0.00    +0.000 A 
ATOM      9  C   UNL     1      46.008   6.202  12.149  0.00  0.00    +0.000 A 
BRANCH   8  10
ATOM     10  C   UNL     1      48.320   6.885  12.831  0.00  0.00    +0.000 A 
ATOM     11  C   UNL     1      49.076   7.107  13.998  0.00  0.00    +0.000 A 
ATOM     12  C   UNL     1      50.199   7.935  14.003  0.00  0.00    +0.000 A 
ATOM     13  C   UNL     1      50.619   8.540  12.823  0.00  0.00    +0.000 A 
ATOM     14  C   UNL     1      49.878   8.354  11.658  0.00  0.00    +0.000 A 
ATOM     15  C   UNL     1      48.743   7.534  11.659  0.00  0.00    +0.000 A 
BRANCH  13  16
ATOM     16  O   UNL     1      51.721   9.335  12.698  0.00  0.00    +0.000 OA
BRANCH  16  17
ATOM     17  C   UNL     1      52.108   9.617  11.364  0.00  0.00    +0.000 C 
ATOM     18  F   UNL     1      52.254  10.962  11.262  0.00  0.00    +0.000 F 
ATOM     19  F   UNL     1      53.329   9.071  11.141  0.00  0.00    +0.000 F 
ENDBRANCH  16  17
ENDBRANCH  13  16
ENDBRANCH   8  10
ENDBRANCH   1   4
BRANCH   1  20
ATOM     20  N   UNL     1      43.743   4.470   9.937  0.00  0.00    +0.000 N 
ATOM     21  H   UNL     1      42.929   3.862   9.985  0.00  0.00    +0.000 HD
BRANCH  20  28
ATOM     22  C   UNL     1      44.009   1.414   9.455  0.00  0.00    +0.000 C 
ATOM     23  C   UNL     1      44.833   2.496   8.856  0.00  0.00    +0.000 A 
ATOM     24  C   UNL     1      45.894   2.075   8.035  0.00  0.00    +0.000 A 
ATOM     25  C   UNL     1      46.709   2.976   7.369  0.00  0.00    +0.000 A 
ATOM     26  C   UNL     1      46.411   4.308   7.561  0.00  0.00    +0.000 A 
ATOM     27  N   UNL     1      45.410   4.755   8.381  0.00  0.00    +0.000 NA
ATOM     28  C   UNL     1      44.631   3.859   9.053  0.00  0.00    +0.000 A 
BRANCH  25  29
ATOM     29  C   UNL     1      47.799   2.422   6.523  0.00  0.00    +0.000 C 
ATOM     30  N   UNL     1      48.009   2.914   5.270  0.00  0.00    +0.000 N 
ATOM     31  O   UNL     1      48.520   1.524   6.934  0.00  0.00    +0.000 OA
ATOM     32  H   UNL     1      47.495   3.662   4.828  0.00  0.00    +0.000 HD
ATOM     33  H   UNL     1      48.772   2.498   4.753  0.00  0.00    +0.000 HD
ENDBRANCH  25  29
ENDBRANCH  20  28
ENDBRANCH   1  20
TORSDOF 7
ENDMDL
MODEL 3
REMARK VINA RESULT:    -8.178      4.658      8.727
REMARK INTER + INTRA:         -12.429
REMARK INTER:                 -11.316
REMARK INTRA:                  -1.114
REMARK UNBOUND:                -0.905
REMARK  Name = 
REMARK  8 active torsions:
REMARK  status: ('A' for Active; 'I' for Inactive)
REMARK    1  A    between atoms: C_1  and  C_2
REMARK    2  A    between atoms: C_4  and  C_5
REMARK    3  A    between atoms: C_10  and  N_11
REMARK    4  A    between atoms: N_11  and  C_12
REMARK    5  A    between atoms: C_12  and  C_13
REMARK    6  A    between atoms: C_17  and  C_18
REMARK    7  A    between atoms: C_21  and  O_22
REMARK    8  A    between atoms: O_22  and  C_23
REMARK                            x       y       z     vdW  Elec       q    Type
REMARK                         _______ _______ _______ _____ _____    ______ ____
ROOT
ATOM      1  C   UNL     1      48.155   8.188  12.938  0.00  0.00    +0.000 C 
ATOM      2  C   UNL     1      49.122   8.879  11.958  0.00  0.00    +0.000 C 
ATOM      3  C   UNL     1      48.405   9.694  12.960  0.00  0.00    +0.000 C 
ENDROOT
BRANCH   1   4
ATOM      4  C   UNL     1      46.790   7.799  12.367  0.00  0.00    +0.000 A 
ATOM      5  C   UNL     1      45.730   8.714  12.337  0.00  0.00    +0.000 A 
ATOM      6  C   UNL     1      44.531   8.398  11.705  0.00  0.00    +0.000 A 
ATOM      7  C   UNL     1      44.383   7.167  11.069  0.00  0.00    +0.000 A 
ATOM      8  C   UNL     1      45.431   6.227  11.042  0.00  0.00    +0.000 A 
ATOM      9  C   UNL     1      46.596   6.548  11.748  0.00  0.00    +0.000 A 
BRANCH   8  10
ATOM     10  C   UNL     1      45.360   5.016  10.197  0.00  0.00    +0.000 A 
ATOM     11  C   UNL     1      45.893   5.037   8.895  0.00  0.00    +0.000 A 
ATOM     12  C   UNL     1      45.916   3.898   8.090  0.00  0.00    +0.000 A 
ATOM     13  C   UNL     1      45.436   2.690   8.584  0.00  0.00    +0.000 A 
ATOM     14  C   UNL     1      44.884   2.645   9.863  0.00  0.00    +0.000 A 
ATOM     15  C   UNL     1      44.848   3.794  10.663  0.00  0.00    +0.000 A 
BRANCH  13  16
ATOM     16  O   UNL     1      45.444   1.506   7.907  0.00  0.00    +0.000 OA
BRANCH  16  17
ATOM     17  C   UNL     1      46.731   0.989   7.616  0.00  0.00    +0.000 C 
ATOM     18  F   UNL     1      46.665  -0.359   7.753  0.00  0.00    +0.000 F 
ATOM     19  F   UNL     1      47.015   1.238   6.314  0.00  0.00    +0.000 F 
ENDBRANCH  16  17
ENDBRANCH  13  16
ENDBRANCH   8  10
ENDBRANCH   1   4
BRANCH   1  20
ATOM     20  N   UNL     1      48.785   7.086  13.686  0.00  0.00    +0.000 N 
ATOM     21  H   UNL     1      49.509   6.572  13.188  0.00  0.00    +0.000 HD
BRANCH  20  28
ATOM     22  C   UNL     1      49.523   7.698  16.639  0.00  0.00    +0.000 C 
ATOM     23  C   UNL     1      48.812   6.502  16.118  0.00  0.00    +0.000 A 
ATOM     24  C   UNL     1      48.507   5.509  17.065  0.00  0.00    +0.000 A 
ATOM     25  C   UNL     1      47.799   4.367  16.728  0.00  0.00    +0.000 A 
ATOM     26  C   UNL     1      47.414   4.268  15.408  0.00  0.00    +0.000 A 
ATOM     27  N   UNL     1      47.726   5.196  14.452  0.00  0.00    +0.000 NA
ATOM     28  C   UNL     1      48.446   6.305  14.789  0.00  0.00    +0.000 A 
BRANCH  25  29
ATOM     29  C   UNL     1      47.526   3.383  17.810  0.00  0.00    +0.000 C 
ATOM     30  N   UNL     1      48.324   3.343  18.913  0.00  0.00    +0.000 N 
ATOM     31  O   UNL     1      46.590   2.602  17.728  0.00  0.00    +0.000 OA
ATOM     32  H   UNL     1      49.112   3.945  19.103  0.00  0.00    +0.000 HD
ATOM     33  H   UNL     1      48.077   2.656  19.613  0.00  0.00    +0.000 HD
ENDBRANCH  25  29
ENDBRANCH  20  28
ENDBRANCH   1  20
TORSDOF 7
ENDMDL
MODEL 4
REMARK VINA RESULT:    -7.959      5.599      9.027
REMARK INTER + INTRA:         -12.121
REMARK INTER:                 -10.838
REMARK INTRA:                  -1.283
REMARK UNBOUND:                -0.905
REMARK  Name = 
REMARK  8 active torsions:
REMARK  status: ('A' for Active; 'I' for Inactive)
REMARK    1  A    between atoms: C_1  and  C_2
REMARK    2  A    between atoms: C_4  and  C_5
REMARK    3  A    between atoms: C_10  and  N_11
REMARK    4  A    between atoms: N_11  and  C_12
REMARK    5  A    between atoms: C_12  and  C_13
REMARK    6  A    between atoms: C_17  and  C_18
REMARK    7  A    between atoms: C_21  and  O_22
REMARK    8  A    between atoms: O_22  and  C_23
REMARK                            x       y       z     vdW  Elec       q    Type
REMARK                         _______ _______ _______ _____ _____    ______ ____
ROOT
ATOM      1  C   UNL     1      48.758   5.387  17.515  0.00  0.00    +0.000 C 
ATOM      2  C   UNL     1      48.126   6.213  18.653  0.00  0.00    +0.000 C 
ATOM      3  C   UNL     1      47.423   5.012  18.154  0.00  0.00    +0.000 C 
ENDROOT
BRANCH   1   4
ATOM      4  C   UNL     1      48.624   5.975  16.109  0.00  0.00    +0.000 A 
ATOM      5  C   UNL     1      49.588   6.852  15.595  0.00  0.00    +0.000 A 
ATOM      6  C   UNL     1      49.529   7.286  14.274  0.00  0.00    +0.000 A 
ATOM      7  C   UNL     1      48.515   6.826  13.437  0.00  0.00    +0.000 A 
ATOM      8  C   UNL     1      47.542   5.917  13.895  0.00  0.00    +0.000 A 
ATOM      9  C   UNL     1      47.590   5.557  15.247  0.00  0.00    +0.000 A 
BRANCH   8  10
ATOM     10  C   UNL     1      46.597   5.265  12.966  0.00  0.00    +0.000 A 
ATOM     11  C   UNL     1      46.221   5.914  11.775  0.00  0.00    +0.000 A 
ATOM     12  C   UNL     1      45.391   5.305  10.833  0.00  0.00    +0.000 A 
ATOM     13  C   UNL     1      44.941   4.006  11.043  0.00  0.00    +0.000 A 
ATOM     14  C   UNL     1      45.281   3.347  12.223  0.00  0.00    +0.000 A 
ATOM     15  C   UNL     1      46.101   3.967  13.173  0.00  0.00    +0.000 A 
BRANCH  13  16
ATOM     16  O   UNL     1      44.161   3.296  10.177  0.00  0.00    +0.000 OA
BRANCH  16  17
ATOM     17  C   UNL     1      44.864   2.645   9.132  0.00  0.00    +0.000 C 
ATOM     18  F   UNL     1      44.462   1.349   9.122  0.00  0.00    +0.000 F 
ATOM     19  F   UNL     1      44.480   3.185   7.950  0.00  0.00    +0.000 F 
ENDBRANCH  16  17
ENDBRANCH  13  16
ENDBRANCH   8  10
ENDBRANCH   1   4
BRANCH   1  20
ATOM     20  N   UNL     1      50.135   4.957  17.814  0.00  0.00    +0.000 N 
ATOM     21  H   UNL     1      50.819   5.704  17.911  0.00  0.00    +0.000 HD
BRANCH  20  28
ATOM     22  C   UNL     1      49.052   2.270  16.698  0.00  0.00    +0.000 C 
ATOM     23  C   UNL     1      50.407   2.536  17.247  0.00  0.00    +0.000 A 
ATOM     24  C   UNL     1      51.263   1.425  17.331  0.00  0.00    +0.000 A 
ATOM     25  C   UNL     1      52.572   1.539  17.772  0.00  0.00    +0.000 A 
ATOM     26  C   UNL     1      52.978   2.809  18.120  0.00  0.00    +0.000 A 
ATOM     27  N   UNL     1      52.161   3.907  18.086  0.00  0.00    +0.000 NA
ATOM     28  C   UNL     1      50.867   3.779  17.675  0.00  0.00    +0.000 A 
BRANCH  25  29
ATOM     29  C   UNL     1      53.393   0.299  17.818  0.00  0.00    +0.000 C 
ATOM     30  N   UNL     1      53.842  -0.265  16.662  0.00  0.00    +0.000 N 
ATOM     31  O   UNL     1      53.676  -0.229  18.883  0.00  0.00    +0.000 OA
ATOM     32  H   UNL     1      53.690   0.085  15.727  0.00  0.00    +0.000 HD
ATOM     33  H   UNL     1      54.401  -1.102  16.766  0.00  0.00    +0.000 HD
ENDBRANCH  25  29
ENDBRANCH  20  28
ENDBRANCH   1  20
TORSDOF 7
ENDMDL
MODEL 5
REMARK VINA RESULT:    -7.200      4.961      8.363
REMARK INTER + INTRA:         -11.051
REMARK INTER:                  -9.395
REMARK INTRA:                  -1.657
REMARK UNBOUND:                -0.905
REMARK  Name = 
REMARK  8 active torsions:
REMARK  status: ('A' for Active; 'I' for Inactive)
REMARK    1  A    between atoms: C_1  and  C_2
REMARK    2  A    between atoms: C_4  and  C_5
REMARK    3  A    between atoms: C_10  and  N_11
REMARK    4  A    between atoms: N_11  and  C_12
REMARK    5  A    between atoms: C_12  and  C_13
REMARK    6  A    between atoms: C_17  and  C_18
REMARK    7  A    between atoms: C_21  and  O_22
REMARK    8  A    between atoms: O_22  and  C_23
REMARK                            x       y       z     vdW  Elec       q    Type
REMARK                         _______ _______ _______ _____ _____    ______ ____
ROOT
ATOM      1  C   UNL     1      46.812   4.701  14.364  0.00  0.00    +0.000 C 
ATOM      2  C   UNL     1      46.635   4.071  15.759  0.00  0.00    +0.000 C 
ATOM      3  C   UNL     1      47.508   3.404  14.770  0.00  0.00    +0.000 C 
ENDROOT
BRANCH   1   4
ATOM      4  C   UNL     1      45.652   4.498  13.386  0.00  0.00    +0.000 A 
ATOM      5  C   UNL     1      44.372   4.991  13.669  0.00  0.00    +0.000 A 
ATOM      6  C   UNL     1      43.352   4.915  12.725  0.00  0.00    +0.000 A 
ATOM      7  C   UNL     1      43.607   4.365  11.470  0.00  0.00    +0.000 A 
ATOM      8  C   UNL     1      44.885   3.888  11.125  0.00  0.00    +0.000 A 
ATOM      9  C   UNL     1      45.868   3.915  12.121  0.00  0.00    +0.000 A 
BRANCH   8  10
ATOM     10  C   UNL     1      45.216   3.502   9.737  0.00  0.00    +0.000 A 
ATOM     11  C   UNL     1      45.582   4.489   8.802  0.00  0.00    +0.000 A 
ATOM     12  C   UNL     1      45.975   4.164   7.503  0.00  0.00    +0.000 A 
ATOM     13  C   UNL     1      46.049   2.831   7.115  0.00  0.00    +0.000 A 
ATOM     14  C   UNL     1      45.673   1.835   8.014  0.00  0.00    +0.000 A 
ATOM     15  C   UNL     1      45.264   2.165   9.311  0.00  0.00    +0.000 A 
BRANCH  13  16
ATOM     16  O   UNL     1      46.457   2.392   5.889  0.00  0.00    +0.000 OA
BRANCH  16  17
ATOM     17  C   UNL     1      47.834   2.071   5.795  0.00  0.00    +0.000 C 
ATOM     18  F   UNL     1      48.290   2.589   4.626  0.00  0.00    +0.000 F 
ATOM     19  F   UNL     1      48.497   2.707   6.791  0.00  0.00    +0.000 F 
ENDBRANCH  16  17
ENDBRANCH  13  16
ENDBRANCH   8  10
ENDBRANCH   1   4
BRANCH   1  20
ATOM     20  N   UNL     1      47.259   6.104  14.420  0.00  0.00    +0.000 N 
ATOM     21  H   UNL     1      46.670   6.733  14.962  0.00  0.00    +0.000 HD
BRANCH  20  28
ATOM     22  C   UNL     1      46.487   7.520  11.766  0.00  0.00    +0.000 C 
ATOM     23  C   UNL     1      47.816   7.515  12.431  0.00  0.00    +0.000 A 
ATOM     24  C   UNL     1      48.851   8.167  11.738  0.00  0.00    +0.000 A 
ATOM     25  C   UNL     1      50.127   8.286  12.265  0.00  0.00    +0.000 A 
ATOM     26  C   UNL     1      50.314   7.726  13.511  0.00  0.00    +0.000 A 
ATOM     27  N   UNL     1      49.341   7.052  14.198  0.00  0.00    +0.000 NA
ATOM     28  C   UNL     1      48.095   6.918  13.657  0.00  0.00    +0.000 A 
BRANCH  25  29
ATOM     29  C   UNL     1      51.145   9.000  11.449  0.00  0.00    +0.000 C 
ATOM     30  N   UNL     1      51.491  10.280  11.758  0.00  0.00    +0.000 N 
ATOM     31  O   UNL     1      51.683   8.454  10.497  0.00  0.00    +0.000 OA
ATOM     32  H   UNL     1      51.132  10.828  12.526  0.00  0.00    +0.000 HD
ATOM     33  H   UNL     1      52.195  10.703  11.167  0.00  0.00    +0.000 HD
ENDBRANCH  25  29
ENDBRANCH  20  28
ENDBRANCH   1  20
TORSDOF 7
ENDMDL
MODEL 6
REMARK VINA RESULT:    -7.174      5.080      8.669
REMARK INTER + INTRA:         -11.015
REMARK INTER:                  -9.402
REMARK INTRA:                  -1.613
REMARK UNBOUND:                -0.905
REMARK  Name = 
REMARK  8 active torsions:
REMARK  status: ('A' for Active; 'I' for Inactive)
REMARK    1  A    between atoms: C_1  and  C_2
REMARK    2  A    between atoms: C_4  and  C_5
REMARK    3  A    between atoms: C_10  and  N_11
REMARK    4  A    between atoms: N_11  and  C_12
REMARK    5  A    between atoms: C_12  and  C_13
REMARK    6  A    between atoms: C_17  and  C_18
REMARK    7  A    between atoms: C_21  and  O_22
REMARK    8  A    between atoms: O_22  and  C_23
REMARK                            x       y       z     vdW  Elec       q    Type
REMARK                         _______ _______ _______ _____ _____    ______ ____
ROOT
ATOM      1  C   UNL     1      48.896   8.672  17.075  0.00  0.00    +0.000 C 
ATOM      2  C   UNL     1      49.380  10.072  17.503  0.00  0.00    +0.000 C 
ATOM      3  C   UNL     1      47.937   9.842  17.281  0.00  0.00    +0.000 C 
ENDROOT
BRANCH   1   4
ATOM      4  C   UNL     1      49.117   8.309  15.605  0.00  0.00    +0.000 A 
ATOM      5  C   UNL     1      50.387   8.396  15.020  0.00  0.00    +0.000 A 
ATOM      6  C   UNL     1      50.610   7.947  13.722  0.00  0.00    +0.000 A 
ATOM      7  C   UNL     1      49.565   7.379  12.995  0.00  0.00    +0.000 A 
ATOM      8  C   UNL     1      48.279   7.238  13.550  0.00  0.00    +0.000 A 
ATOM      9  C   UNL     1      48.074   7.764  14.831  0.00  0.00    +0.000 A 
BRANCH   8  10
ATOM     10  C   UNL     1      47.228   6.451  12.871  0.00  0.00    +0.000 A 
ATOM     11  C   UNL     1      46.592   5.395  13.551  0.00  0.00    +0.000 A 
ATOM     12  C   UNL     1      45.543   4.675  12.977  0.00  0.00    +0.000 A 
ATOM     13  C   UNL     1      45.077   5.018  11.714  0.00  0.00    +0.000 A 
ATOM     14  C   UNL     1      45.701   6.047  11.010  0.00  0.00    +0.000 A 
ATOM     15  C   UNL     1      46.763   6.757  11.582  0.00  0.00    +0.000 A 
BRANCH  13  16
ATOM     16  O   UNL     1      44.036   4.415  11.070  0.00  0.00    +0.000 OA
BRANCH  16  17
ATOM     17  C   UNL     1      44.211   3.032  10.811  0.00  0.00    +0.000 C 
ATOM     18  F   UNL     1      43.186   2.376  11.412  0.00  0.00    +0.000 F 
ATOM     19  F   UNL     1      44.085   2.821   9.478  0.00  0.00    +0.000 F 
ENDBRANCH  16  17
ENDBRANCH  13  16
ENDBRANCH   8  10
ENDBRANCH   1   4
BRANCH   1  20
ATOM     20  N   UNL     1      49.342   7.606  17.989  0.00  0.00    +0.000 N 
ATOM     21  H   UNL     1      49.715   7.919  18.883  0.00  0.00    +0.000 HD
BRANCH  20  28
ATOM     22  C   UNL     1      52.258   6.549  17.860  0.00  0.00    +0.000 C 
ATOM     23  C   UNL     1      51.007   5.759  17.727  0.00  0.00    +0.000 A 
ATOM     24  C   UNL     1      51.173   4.393  17.440  0.00  0.00    +0.000 A 
ATOM     25  C   UNL     1      50.095   3.527  17.342  0.00  0.00    +0.000 A 
ATOM     26  C   UNL     1      48.854   4.091  17.546  0.00  0.00    +0.000 A 
ATOM     27  N   UNL     1      48.653   5.423  17.790  0.00  0.00    +0.000 NA
ATOM     28  C   UNL     1      49.719   6.271  17.858  0.00  0.00    +0.000 A 
BRANCH  25  29
ATOM     29  C   UNL     1      50.385   2.100  17.039  0.00  0.00    +0.000 C 
ATOM     30  N   UNL     1      51.243   1.395  17.828  0.00  0.00    +0.000 N 
ATOM     31  O   UNL     1      49.861   1.541  16.087  0.00  0.00    +0.000 OA
ATOM     32  H   UNL     1      51.721   1.739  18.648  0.00  0.00    +0.000 HD
ATOM     33  H   UNL     1      51.389   0.428  17.570  0.00  0.00    +0.000 HD
ENDBRANCH  25  29
ENDBRANCH  20  28
ENDBRANCH   1  20
TORSDOF 7
ENDMDL
MODEL 7
REMARK VINA RESULT:    -7.169      3.341      5.114
REMARK INTER + INTRA:         -11.008
REMARK INTER:                  -9.496
REMARK INTRA:                  -1.511
REMARK UNBOUND:                -0.905
REMARK  Name = 
REMARK  8 active torsions:
REMARK  status: ('A' for Active; 'I' for Inactive)
REMARK    1  A    between atoms: C_1  and  C_2
REMARK    2  A    between atoms: C_4  and  C_5
REMARK    3  A    between atoms: C_10  and  N_11
REMARK    4  A    between atoms: N_11  and  C_12
REMARK    5  A    between atoms: C_12  and  C_13
REMARK    6  A    between atoms: C_17  and  C_18
REMARK    7  A    between atoms: C_21  and  O_22
REMARK    8  A    between atoms: O_22  and  C_23
REMARK                            x       y       z     vdW  Elec       q    Type
REMARK                         _______ _______ _______ _____ _____    ______ ____
ROOT
ATOM      1  C   UNL     1      48.213   7.843  12.784  0.00  0.00    +0.000 C 
ATOM      2  C   UNL     1      48.628   8.983  11.834  0.00  0.00    +0.000 C 
ATOM      3  C   UNL     1      49.384   7.713  11.812  0.00  0.00    +0.000 C 
ENDROOT
BRANCH   1   4
ATOM      4  C   UNL     1      48.641   8.002  14.245  0.00  0.00    +0.000 A 
ATOM      5  C   UNL     1      48.092   9.005  15.055  0.00  0.00    +0.000 A 
ATOM      6  C   UNL     1      48.388   9.069  16.413  0.00  0.00    +0.000 A 
ATOM      7  C   UNL     1      49.222   8.111  16.988  0.00  0.00    +0.000 A 
ATOM      8  C   UNL     1      49.770   7.064  16.224  0.00  0.00    +0.000 A 
ATOM      9  C   UNL     1      49.509   7.071  14.849  0.00  0.00    +0.000 A 
BRANCH   8  10
ATOM     10  C   UNL     1      50.476   5.932  16.860  0.00  0.00    +0.000 A 
ATOM     11  C   UNL     1      49.744   4.840  17.362  0.00  0.00    +0.000 A 
ATOM     12  C   UNL     1      50.371   3.717  17.902  0.00  0.00    +0.000 A 
ATOM     13  C   UNL     1      51.760   3.641  17.920  0.00  0.00    +0.000 A 
ATOM     14  C   UNL     1      52.510   4.716  17.448  0.00  0.00    +0.000 A 
ATOM     15  C   UNL     1      51.877   5.848  16.922  0.00  0.00    +0.000 A 
BRANCH  13  16
ATOM     16  O   UNL     1      52.482   2.580  18.384  0.00  0.00    +0.000 OA
BRANCH  16  17
ATOM     17  C   UNL     1      52.485   1.441  17.541  0.00  0.00    +0.000 C 
ATOM     18  F   UNL     1      53.762   1.250  17.126  0.00  0.00    +0.000 F 
ATOM     19  F   UNL     1      52.144   0.355  18.277  0.00  0.00    +0.000 F 
ENDBRANCH  16  17
ENDBRANCH  13  16
ENDBRANCH   8  10
ENDBRANCH   1   4
BRANCH   1  20
ATOM     20  N   UNL     1      46.793   7.473  12.653  0.00  0.00    +0.000 N 
ATOM     21  H   UNL     1      46.132   8.095  13.112  0.00  0.00    +0.000 HD
BRANCH  20  28
ATOM     22  C   UNL     1      46.785   4.871  14.346  0.00  0.00    +0.000 C 
ATOM     23  C   UNL     1      46.108   5.100  13.043  0.00  0.00    +0.000 A 
ATOM     24  C   UNL     1      45.452   3.986  12.489  0.00  0.00    +0.000 A 
ATOM     25  C   UNL     1      44.735   4.071  11.307  0.00  0.00    +0.000 A 
ATOM     26  C   UNL     1      44.706   5.314  10.712  0.00  0.00    +0.000 A 
ATOM     27  N   UNL     1      45.363   6.409  11.202  0.00  0.00    +0.000 NA
ATOM     28  C   UNL     1      46.088   6.309  12.354  0.00  0.00    +0.000 A 
BRANCH  25  29
ATOM     29  C   UNL     1      44.076   2.832  10.812  0.00  0.00    +0.000 C 
ATOM     30  N   UNL     1      44.647   2.109   9.809  0.00  0.00    +0.000 N 
ATOM     31  O   UNL     1      43.021   2.446  11.294  0.00  0.00    +0.000 OA
ATOM     32  H   UNL     1      45.520   2.315   9.345  0.00  0.00    +0.000 HD
ATOM     33  H   UNL     1      44.150   1.274   9.527  0.00  0.00    +0.000 HD
ENDBRANCH  25  29
ENDBRANCH  20  28
ENDBRANCH   1  20
TORSDOF 7
ENDMDL
MODEL 8
REMARK VINA RESULT:    -6.852      4.771      9.080
REMARK INTER + INTRA:         -10.561
REMARK INTER:                  -9.353
REMARK INTRA:                  -1.209
REMARK UNBOUND:                -0.905
REMARK  Name = 
REMARK  8 active torsions:
REMARK  status: ('A' for Active; 'I' for Inactive)
REMARK    1  A    between atoms: C_1  and  C_2
REMARK    2  A    between atoms: C_4  and  C_5
REMARK    3  A    between atoms: C_10  and  N_11
REMARK    4  A    between atoms: N_11  and  C_12
REMARK    5  A    between atoms: C_12  and  C_13
REMARK    6  A    between atoms: C_17  and  C_18
REMARK    7  A    between atoms: C_21  and  O_22
REMARK    8  A    between atoms: O_22  and  C_23
REMARK                            x       y       z     vdW  Elec       q    Type
REMARK                         _______ _______ _______ _____ _____    ______ ____
ROOT
ATOM      1  C   UNL     1      49.471   8.176  13.348  0.00  0.00    +0.000 C 
ATOM      2  C   UNL     1      50.403   7.995  12.135  0.00  0.00    +0.000 C 
ATOM      3  C   UNL     1      50.176   9.352  12.676  0.00  0.00    +0.000 C 
ENDROOT
BRANCH   1   4
ATOM      4  C   UNL     1      47.970   8.109  13.053  0.00  0.00    +0.000 A 
ATOM      5  C   UNL     1      47.179   9.265  13.057  0.00  0.00    +0.000 A 
ATOM      6  C   UNL     1      45.844   9.219  12.666  0.00  0.00    +0.000 A 
ATOM      7  C   UNL     1      45.286   8.014  12.241  0.00  0.00    +0.000 A 
ATOM      8  C   UNL     1      46.048   6.833  12.187  0.00  0.00    +0.000 A 
ATOM      9  C   UNL     1      47.366   6.900  12.653  0.00  0.00    +0.000 A 
BRANCH   8  10
ATOM     10  C   UNL     1      45.530   5.609  11.542  0.00  0.00    +0.000 A 
ATOM     11  C   UNL     1      45.345   5.574  10.147  0.00  0.00    +0.000 A 
ATOM     12  C   UNL     1      44.930   4.417   9.487  0.00  0.00    +0.000 A 
ATOM     13  C   UNL     1      44.722   3.245  10.206  0.00  0.00    +0.000 A 
ATOM     14  C   UNL     1      44.877   3.257  11.591  0.00  0.00    +0.000 A 
ATOM     15  C   UNL     1      45.279   4.423  12.252  0.00  0.00    +0.000 A 
BRANCH  13  16
ATOM     16  O   UNL     1      44.355   2.047   9.667  0.00  0.00    +0.000 OA
BRANCH  16  17
ATOM     17  C   UNL     1      45.113   1.639   8.540  0.00  0.00    +0.000 C 
ATOM     18  F   UNL     1      44.851   2.517   7.539  0.00  0.00    +0.000 F 
ATOM     19  F   UNL     1      46.430   1.761   8.836  0.00  0.00    +0.000 F 
ENDBRANCH  16  17
ENDBRANCH  13  16
ENDBRANCH   8  10
ENDBRANCH   1   4
BRANCH   1  20
ATOM     20  N   UNL     1      49.854   7.339  14.497  0.00  0.00    +0.000 N 
ATOM     21  H   UNL     1      50.559   6.629  14.310  0.00  0.00    +0.000 HD
BRANCH  20  28
ATOM     22  C   UNL     1      49.068   9.337  16.741  0.00  0.00    +0.000 C 
ATOM     23  C   UNL     1      48.979   7.854  16.783  0.00  0.00    +0.000 A 
ATOM     24  C   UNL     1      48.558   7.300  18.005  0.00  0.00    +0.000 A 
ATOM     25  C   UNL     1      48.378   5.936  18.169  0.00  0.00    +0.000 A 
ATOM     26  C   UNL     1      48.637   5.160  17.059  0.00  0.00    +0.000 A 
ATOM     27  N   UNL     1      49.084   5.661  15.867  0.00  0.00    +0.000 NA
ATOM     28  C   UNL     1      49.283   7.003  15.724  0.00  0.00    +0.000 A 
BRANCH  25  29
ATOM     29  C   UNL     1      47.925   5.457  19.502  0.00  0.00    +0.000 C 
ATOM     30  N   UNL     1      48.337   4.245  19.968  0.00  0.00    +0.000 N 
ATOM     31  O   UNL     1      47.184   6.138  20.196  0.00  0.00    +0.000 OA
ATOM     32  H   UNL     1      48.959   3.604  19.498  0.00  0.00    +0.000 HD
ATOM     33  H   UNL     1      47.998   3.985  20.885  0.00  0.00    +0.000 HD
ENDBRANCH  25  29
ENDBRANCH  20  28
ENDBRANCH   1  20
TORSDOF 7
ENDMDL
MODEL 9
REMARK VINA RESULT:    -6.625      4.528      8.747
REMARK INTER + INTRA:         -10.242
REMARK INTER:                  -8.695
REMARK INTRA:                  -1.546
REMARK UNBOUND:                -0.905
REMARK  Name = 
REMARK  8 active torsions:
REMARK  status: ('A' for Active; 'I' for Inactive)
REMARK    1  A    between atoms: C_1  and  C_2
REMARK    2  A    between atoms: C_4  and  C_5
REMARK    3  A    between atoms: C_10  and  N_11
REMARK    4  A    between atoms: N_11  and  C_12
REMARK    5  A    between atoms: C_12  and  C_13
REMARK    6  A    between atoms: C_17  and  C_18
REMARK    7  A    between atoms: C_21  and  O_22
REMARK    8  A    between atoms: O_22  and  C_23
REMARK                            x       y       z     vdW  Elec       q    Type
REMARK                         _______ _______ _______ _____ _____    ______ ____
ROOT
ATOM      1  C   UNL     1      50.641   8.596  12.990  0.00  0.00    +0.000 C 
ATOM      2  C   UNL     1      51.450   8.057  11.795  0.00  0.00    +0.000 C 
ATOM      3  C   UNL     1      51.672   9.445  12.252  0.00  0.00    +0.000 C 
ENDROOT
BRANCH   1   4
ATOM      4  C   UNL     1      49.192   8.991  12.693  0.00  0.00    +0.000 A 
ATOM      5  C   UNL     1      48.854  10.309  12.362  0.00  0.00    +0.000 A 
ATOM      6  C   UNL     1      47.560  10.638  11.970  0.00  0.00    +0.000 A 
ATOM      7  C   UNL     1      46.587   9.644  11.879  0.00  0.00    +0.000 A 
ATOM      8  C   UNL     1      46.885   8.300  12.168  0.00  0.00    +0.000 A 
ATOM      9  C   UNL     1      48.177   8.015  12.627  0.00  0.00    +0.000 A 
BRANCH   8  10
ATOM     10  C   UNL     1      45.925   7.215  11.873  0.00  0.00    +0.000 A 
ATOM     11  C   UNL     1      46.119   6.393  10.747  0.00  0.00    +0.000 A 
ATOM     12  C   UNL     1      45.282   5.311  10.471  0.00  0.00    +0.000 A 
ATOM     13  C   UNL     1      44.243   5.000  11.342  0.00  0.00    +0.000 A 
ATOM     14  C   UNL     1      44.016   5.809  12.453  0.00  0.00    +0.000 A 
ATOM     15  C   UNL     1      44.848   6.903  12.719  0.00  0.00    +0.000 A 
BRANCH  13  16
ATOM     16  O   UNL     1      43.388   3.947  11.198  0.00  0.00    +0.000 OA
BRANCH  16  17
ATOM     17  C   UNL     1      43.505   2.939  12.188  0.00  0.00    +0.000 C 
ATOM     18  F   UNL     1      42.992   1.798  11.665  0.00  0.00    +0.000 F 
ATOM     19  F   UNL     1      44.821   2.708  12.419  0.00  0.00    +0.000 F 
ENDBRANCH  16  17
ENDBRANCH  13  16
ENDBRANCH   8  10
ENDBRANCH   1   4
BRANCH   1  20
ATOM     20  N   UNL     1      50.756   7.750  14.191  0.00  0.00    +0.000 N 
ATOM     21  H   UNL     1      51.404   6.969  14.119  0.00  0.00    +0.000 HD
BRANCH  20  28
ATOM     22  C   UNL     1      50.087   9.800  16.425  0.00  0.00    +0.000 C 
ATOM     23  C   UNL     1      49.704   8.365  16.375  0.00  0.00    +0.000 A 
ATOM     24  C   UNL     1      49.025   7.872  17.503  0.00  0.00    +0.000 A 
ATOM     25  C   UNL     1      48.561   6.568  17.569  0.00  0.00    +0.000 A 
ATOM     26  C   UNL     1      48.807   5.789  16.459  0.00  0.00    +0.000 A 
ATOM     27  N   UNL     1      49.498   6.223  15.360  0.00  0.00    +0.000 NA
ATOM     28  C   UNL     1      49.973   7.501  15.317  0.00  0.00    +0.000 A 
BRANCH  25  29
ATOM     29  C   UNL     1      47.850   6.153  18.807  0.00  0.00    +0.000 C 
ATOM     30  N   UNL     1      46.671   5.475  18.724  0.00  0.00    +0.000 N 
ATOM     31  O   UNL     1      48.308   6.409  19.911  0.00  0.00    +0.000 OA
ATOM     32  H   UNL     1      46.204   5.191  17.875  0.00  0.00    +0.000 HD
ATOM     33  H   UNL     1      46.246   5.216  19.604  0.00  0.00    +0.000 HD
ENDBRANCH  25  29
ENDBRANCH  20  28
ENDBRANCH   1  20
TORSDOF 7
ENDMDL
