MODEL 1
REMARK VINA RESULT:    -8.397      0.000      0.000
REMARK INTER + INTRA:         -10.308
REMARK INTER:                 -10.361
REMARK INTRA:                   0.053
REMARK UNBOUND:                 0.053
REMARK  Name = 
REMARK  4 active torsions:
REMARK  status: ('A' for Active; 'I' for Inactive)
REMARK    1  A    between atoms: C_2  and  C_4
REMARK    2  A    between atoms: C_7  and  N_8
REMARK    3  A    between atoms: N_8  and  C_9
REMARK    4  A    between atoms: C_9  and  C_10
REMARK                            x       y       z     vdW  Elec       q    Type
REMARK                         _______ _______ _______ _____ _____    ______ ____
ROOT
ATOM      1  N   UNL     1      43.939   4.854   9.847  0.00  0.00    +0.000 N 
ATOM      2  H   UNL     1      43.015   4.860   9.431  0.00  0.00    +0.000 HD
ENDROOT
BRANCH   1   6
ATOM      3  C   UNL     1      46.521   2.542   7.626  0.00  0.00    +0.000 A 
ATOM      4  C   UNL     1      46.512   3.918   7.484  0.00  0.00    +0.000 A 
ATOM      5  N   UNL     1      45.698   4.720   8.224  0.00  0.00    +0.000 NA
ATOM      6  C   UNL     1      44.869   4.105   9.099  0.00  0.00    +0.000 A 
ATOM      7  C   UNL     1      44.877   2.707   9.201  0.00  0.00    +0.000 A 
ATOM      8  N   UNL     1      45.706   1.892   8.499  0.00  0.00    +0.000 NA
BRANCH   3  10
ATOM      9  N   UNL     1      48.546   2.385   6.317  0.00  0.00    +0.000 N 
ATOM     10  C   UNL     1      47.461   1.717   6.820  0.00  0.00    +0.000 C 
ATOM     11  O   UNL     1      47.281   0.526   6.610  0.00  0.00    +0.000 OA
ATOM     12  H   UNL     1      49.231   1.885   5.765  0.00  0.00    +0.000 HD
ATOM     13  H   UNL     1      48.670   3.371   6.514  0.00  0.00    +0.000 HD
ENDBRANCH   3  10
ENDBRANCH   1   6
BRANCH   1  14
ATOM     14  C   UNL     1      43.971   4.764  11.340  0.00  0.00    +0.000 C 
ATOM     15  C   UNL     1      43.126   3.688  12.014  0.00  0.00    +0.000 C 
ATOM     16  C   UNL     1      42.704   5.111  12.108  0.00  0.00    +0.000 C 
ATOM     17  F   UNL     1      42.793   5.689  13.361  0.00  0.00    +0.000 F 
BRANCH  14  18
ATOM     18  C   UNL     1      45.304   5.190  11.952  0.00  0.00    +0.000 A 
ATOM     19  C   UNL     1      45.951   6.365  11.553  0.00  0.00    +0.000 A 
ATOM     20  N   UNL     1      47.087   6.848  12.119  0.00  0.00    +0.000 NA
ATOM     21  C   UNL     1      47.569   6.107  13.137  0.00  0.00    +0.000 A 
ATOM     22  C   UNL     1      46.961   4.935  13.547  0.00  0.00    +0.000 A 
ATOM     23  N   UNL     1      45.832   4.455  12.973  0.00  0.00    +0.000 NA
ENDBRANCH  14  18
ENDBRANCH   1  14
TORSDOF 4
ENDMDL
MODEL 2
REMARK VINA RESULT:    -6.887      3.088      6.053
REMARK INTER + INTRA:          -8.444
REMARK INTER:                  -8.293
REMARK INTRA:                  -0.151
REMARK UNBOUND:                 0.053
REMARK  Name = 
REMARK  4 active torsions:
REMARK  status: ('A' for Active; 'I' for Inactive)
REMARK    1  A    between atoms: C_2  and  C_4
REMARK    2  A    between atoms: C_7  and  N_8
REMARK    3  A    between atoms: N_8  and  C_9
REMARK    4  A    between atoms: C_9  and  C_10
REMARK                            x       y       z     vdW  Elec       q    Type
REMARK                         _______ _______ _______ _____ _____    ______ ____
ROOT
ATOM      1  N   UNL     1      46.391   5.822  12.065  0.00  0.00    +0.000 N 
ATOM      2  H   UNL     1      47.138   5.862  11.382  0.00  0.00    +0.000 HD
ENDROOT
BRANCH   1   6
ATOM      3  C   UNL     1      47.599   3.758  15.417  0.00  0.00    +0.000 A 
ATOM      4  C   UNL     1      47.550   5.141  15.422  0.00  0.00    +0.000 A 
ATOM      5  N   UNL     1      47.124   5.859  14.346  0.00  0.00    +0.000 NA
ATOM      6  C   UNL     1      46.769   5.154  13.247  0.00  0.00    +0.000 A 
ATOM      7  C   UNL     1      46.856   3.756  13.257  0.00  0.00    +0.000 A 
ATOM      8  N   UNL     1      47.243   3.020  14.331  0.00  0.00    +0.000 NA
BRANCH   3  10
ATOM      9  N   UNL     1      47.073   2.860  17.597  0.00  0.00    +0.000 N 
ATOM     10  C   UNL     1      48.034   3.024  16.635  0.00  0.00    +0.000 C 
ATOM     11  O   UNL     1      49.171   2.599  16.778  0.00  0.00    +0.000 OA
ATOM     12  H   UNL     1      47.297   2.364  18.450  0.00  0.00    +0.000 HD
ATOM     13  H   UNL     1      46.138   3.219  17.445  0.00  0.00    +0.000 HD
ENDBRANCH   3  10
ENDBRANCH   1   6
BRANCH   1  14
ATOM     14  C   UNL     1      45.023   5.588  11.507  0.00  0.00    +0.000 C 
ATOM     15  C   UNL     1      44.006   6.720  11.598  0.00  0.00    +0.000 C 
ATOM     16  C   UNL     1      43.852   5.530  12.477  0.00  0.00    +0.000 C 
ATOM     17  F   UNL     1      42.771   4.712  12.207  0.00  0.00    +0.000 F 
BRANCH  14  18
ATOM     18  C   UNL     1      45.000   4.628  10.320  0.00  0.00    +0.000 A 
ATOM     19  C   UNL     1      45.549   4.980   9.082  0.00  0.00    +0.000 A 
ATOM     20  N   UNL     1      45.644   4.144   8.016  0.00  0.00    +0.000 NA
ATOM     21  C   UNL     1      45.169   2.901   8.230  0.00  0.00    +0.000 A 
ATOM     22  C   UNL     1      44.608   2.525   9.436  0.00  0.00    +0.000 A 
ATOM     23  N   UNL     1      44.510   3.365  10.493  0.00  0.00    +0.000 NA
ENDBRANCH  14  18
ENDBRANCH   1  14
TORSDOF 4
ENDMDL
MODEL 3
REMARK VINA RESULT:    -6.298      3.241      6.363
REMARK INTER + INTRA:          -7.717
REMARK INTER:                  -8.307
REMARK INTRA:                   0.591
REMARK UNBOUND:                 0.053
REMARK  Name = 
REMARK  4 active torsions:
REMARK  status: ('A' for Active; 'I' for Inactive)
REMARK    1  A    between atoms: C_2  and  C_4
REMARK    2  A    between atoms: C_7  and  N_8
REMARK    3  A    between atoms: N_8  and  C_9
REMARK    4  A    between atoms: C_9  and  C_10
REMARK                            x       y       z     vdW  Elec       q    Type
REMARK                         _______ _______ _______ _____ _____    ______ ____
ROOT
ATOM      1  N   UNL     1      45.530   3.701  13.075  0.00  0.00    +0.000 N 
ATOM      2  H   UNL     1      45.087   2.934  13.565  0.00  0.00    +0.000 HD
ENDROOT
BRANCH   1   6
ATOM      3  C   UNL     1      48.344   5.755  15.269  0.00  0.00    +0.000 A 
ATOM      4  C   UNL     1      47.583   4.760  15.858  0.00  0.00    +0.000 A 
ATOM      5  N   UNL     1      46.667   4.034  15.158  0.00  0.00    +0.000 NA
ATOM      6  C   UNL     1      46.512   4.348  13.851  0.00  0.00    +0.000 A 
ATOM      7  C   UNL     1      47.273   5.381  13.288  0.00  0.00    +0.000 A 
ATOM      8  N   UNL     1      48.217   6.091  13.957  0.00  0.00    +0.000 NA
BRANCH   3  10
ATOM      9  N   UNL     1      48.988   7.737  16.491  0.00  0.00    +0.000 N 
ATOM     10  C   UNL     1      49.359   6.488  16.072  0.00  0.00    +0.000 C 
ATOM     11  O   UNL     1      50.456   6.017  16.337  0.00  0.00    +0.000 OA
ATOM     12  H   UNL     1      49.627   8.290  17.047  0.00  0.00    +0.000 HD
ATOM     13  H   UNL     1      48.069   8.097  16.259  0.00  0.00    +0.000 HD
ENDBRANCH   3  10
ENDBRANCH   1   6
BRANCH   1  14
ATOM     14  C   UNL     1      44.623   4.527  12.220  0.00  0.00    +0.000 C 
ATOM     15  C   UNL     1      44.187   5.892  12.744  0.00  0.00    +0.000 C 
ATOM     16  C   UNL     1      43.204   4.776  12.709  0.00  0.00    +0.000 C 
ATOM     17  F   UNL     1      42.172   4.904  11.798  0.00  0.00    +0.000 F 
BRANCH  14  18
ATOM     18  C   UNL     1      44.821   4.307  10.722  0.00  0.00    +0.000 A 
ATOM     19  C   UNL     1      45.571   5.196   9.944  0.00  0.00    +0.000 A 
ATOM     20  N   UNL     1      45.862   5.012   8.630  0.00  0.00    +0.000 NA
ATOM     21  C   UNL     1      45.378   3.871   8.100  0.00  0.00    +0.000 A 
ATOM     22  C   UNL     1      44.622   2.979   8.837  0.00  0.00    +0.000 A 
ATOM     23  N   UNL     1      44.329   3.172  10.145  0.00  0.00    +0.000 NA
ENDBRANCH  14  18
ENDBRANCH   1  14
TORSDOF 4
ENDMDL
MODEL 4
REMARK VINA RESULT:    -6.289      4.189      7.182
REMARK INTER + INTRA:          -7.706
REMARK INTER:                  -7.448
REMARK INTRA:                  -0.257
REMARK UNBOUND:                 0.053
REMARK  Name = 
REMARK  4 active torsions:
REMARK  status: ('A' for Active; 'I' for Inactive)
REMARK    1  A    between atoms: C_2  and  C_4
REMARK    2  A    between atoms: C_7  and  N_8
REMARK    3  A    between atoms: N_8  and  C_9
REMARK    4  A    between atoms: C_9  and  C_10
REMARK                            x       y       z     vdW  Elec       q    Type
REMARK                         _______ _______ _______ _____ _____    ______ ____
ROOT
ATOM      1  N   UNL     1      47.543   5.699  12.975  0.00  0.00    +0.000 N 
ATOM      2  H   UNL     1      47.655   4.874  12.398  0.00  0.00    +0.000 HD
ENDROOT
BRANCH   1   6
ATOM      3  C   UNL     1      47.846   4.701  16.957  0.00  0.00    +0.000 A 
ATOM      4  C   UNL     1      48.612   5.726  16.430  0.00  0.00    +0.000 A 
ATOM      5  N   UNL     1      48.515   6.109  15.126  0.00  0.00    +0.000 NA
ATOM      6  C   UNL     1      47.646   5.419  14.352  0.00  0.00    +0.000 A 
ATOM      7  C   UNL     1      46.906   4.366  14.904  0.00  0.00    +0.000 A 
ATOM      8  N   UNL     1      46.960   3.992  16.209  0.00  0.00    +0.000 NA
BRANCH   3  10
ATOM      9  N   UNL     1      47.208   5.113  19.250  0.00  0.00    +0.000 N 
ATOM     10  C   UNL     1      47.963   4.352  18.399  0.00  0.00    +0.000 C 
ATOM     11  O   UNL     1      48.686   3.453  18.804  0.00  0.00    +0.000 OA
ATOM     12  H   UNL     1      47.233   4.927  20.245  0.00  0.00    +0.000 HD
ATOM     13  H   UNL     1      46.614   5.847  18.883  0.00  0.00    +0.000 HD
ENDBRANCH   3  10
ENDBRANCH   1   6
BRANCH   1  14
ATOM     14  C   UNL     1      46.506   6.672  12.510  0.00  0.00    +0.000 C 
ATOM     15  C   UNL     1      46.973   7.925  11.777  0.00  0.00    +0.000 C 
ATOM     16  C   UNL     1      46.461   8.043  13.169  0.00  0.00    +0.000 C 
ATOM     17  F   UNL     1      45.253   8.698  13.317  0.00  0.00    +0.000 F 
BRANCH  14  18
ATOM     18  C   UNL     1      45.172   6.022  12.148  0.00  0.00    +0.000 A 
ATOM     19  C   UNL     1      44.946   5.471  10.882  0.00  0.00    +0.000 A 
ATOM     20  N   UNL     1      43.820   4.800  10.525  0.00  0.00    +0.000 NA
ATOM     21  C   UNL     1      42.901   4.680  11.503  0.00  0.00    +0.000 A 
ATOM     22  C   UNL     1      43.088   5.224  12.760  0.00  0.00    +0.000 A 
ATOM     23  N   UNL     1      44.209   5.898  13.108  0.00  0.00    +0.000 NA
ENDBRANCH  14  18
ENDBRANCH   1  14
TORSDOF 4
ENDMDL
MODEL 5
REMARK VINA RESULT:    -6.192      3.503      5.220
REMARK INTER + INTRA:          -7.587
REMARK INTER:                  -7.322
REMARK INTRA:                  -0.265
REMARK UNBOUND:                 0.053
REMARK  Name = 
REMARK  4 active torsions:
REMARK  status: ('A' for Active; 'I' for Inactive)
REMARK    1  A    between atoms: C_2  and  C_4
REMARK    2  A    between atoms: C_7  and  N_8
REMARK    3  A    between atoms: N_8  and  C_9
REMARK    4  A    between atoms: C_9  and  C_10
REMARK                            x       y       z     vdW  Elec       q    Type
REMARK                         _______ _______ _______ _____ _____    ______ ____
ROOT
ATOM      1  N   UNL     1      46.132   7.567  13.233  0.00  0.00    +0.000 N 
ATOM      2  H   UNL     1      45.658   7.830  14.088  0.00  0.00    +0.000 HD
ENDROOT
BRANCH   1   6
ATOM      3  C   UNL     1      44.524   4.092  11.720  0.00  0.00    +0.000 A 
ATOM      4  C   UNL     1      44.545   5.247  10.957  0.00  0.00    +0.000 A 
ATOM      5  N   UNL     1      45.098   6.407  11.408  0.00  0.00    +0.000 NA
ATOM      6  C   UNL     1      45.612   6.390  12.660  0.00  0.00    +0.000 A 
ATOM      7  C   UNL     1      45.551   5.215  13.422  0.00  0.00    +0.000 A 
ATOM      8  N   UNL     1      45.037   4.039  12.978  0.00  0.00    +0.000 NA
BRANCH   3  10
ATOM      9  N   UNL     1      44.591   2.331  10.068  0.00  0.00    +0.000 N 
ATOM     10  C   UNL     1      43.943   2.842  11.160  0.00  0.00    +0.000 C 
ATOM     11  O   UNL     1      42.952   2.306  11.634  0.00  0.00    +0.000 OA
ATOM     12  H   UNL     1      44.255   1.478   9.639  0.00  0.00    +0.000 HD
ATOM     13  H   UNL     1      45.414   2.796   9.702  0.00  0.00    +0.000 HD
ENDBRANCH   3  10
ENDBRANCH   1   6
BRANCH   1  14
ATOM     14  C   UNL     1      47.612   7.782  13.227  0.00  0.00    +0.000 C 
ATOM     15  C   UNL     1      48.187   8.801  12.248  0.00  0.00    +0.000 C 
ATOM     16  C   UNL     1      48.396   7.350  11.996  0.00  0.00    +0.000 C 
ATOM     17  F   UNL     1      49.693   6.891  12.129  0.00  0.00    +0.000 F 
BRANCH  14  18
ATOM     18  C   UNL     1      48.270   7.568  14.588  0.00  0.00    +0.000 A 
ATOM     19  C   UNL     1      48.449   8.624  15.489  0.00  0.00    +0.000 A 
ATOM     20  N   UNL     1      48.940   8.487  16.748  0.00  0.00    +0.000 NA
ATOM     21  C   UNL     1      49.248   7.222  17.098  0.00  0.00    +0.000 A 
ATOM     22  C   UNL     1      49.096   6.159  16.228  0.00  0.00    +0.000 A 
ATOM     23  N   UNL     1      48.612   6.303  14.972  0.00  0.00    +0.000 NA
ENDBRANCH  14  18
ENDBRANCH   1  14
TORSDOF 4
ENDMDL
MODEL 6
REMARK VINA RESULT:    -5.823      2.693      4.364
REMARK INTER + INTRA:          -7.131
REMARK INTER:                  -7.421
REMARK INTRA:                   0.289
REMARK UNBOUND:                 0.053
REMARK  Name = 
REMARK  4 active torsions:
REMARK  status: ('A' for Active; 'I' for Inactive)
REMARK    1  A    between atoms: C_2  and  C_4
REMARK    2  A    between atoms: C_7  and  N_8
REMARK    3  A    between atoms: N_8  and  C_9
REMARK    4  A    between atoms: C_9  and  C_10
REMARK                            x       y       z     vdW  Elec       q    Type
REMARK                         _______ _______ _______ _____ _____    ______ ____
ROOT
ATOM      1  N   UNL     1      45.550   5.775  13.547  0.00  0.00    +0.000 N 
ATOM      2  H   UNL     1      45.007   5.523  14.363  0.00  0.00    +0.000 HD
ENDROOT
BRANCH   1   6
ATOM      3  C   UNL     1      44.823   3.526  10.176  0.00  0.00    +0.000 A 
ATOM      4  C   UNL     1      45.027   2.912  11.400  0.00  0.00    +0.000 A 
ATOM      5  N   UNL     1      45.237   3.622  12.544  0.00  0.00    +0.000 NA
ATOM      6  C   UNL     1      45.262   4.970  12.428  0.00  0.00    +0.000 A 
ATOM      7  C   UNL     1      45.083   5.564  11.172  0.00  0.00    +0.000 A 
ATOM      8  N   UNL     1      44.836   4.877  10.026  0.00  0.00    +0.000 NA
BRANCH   3  10
ATOM      9  N   UNL     1      44.354   3.405   7.810  0.00  0.00    +0.000 N 
ATOM     10  C   UNL     1      44.559   2.702   8.966  0.00  0.00    +0.000 C 
ATOM     11  O   UNL     1      44.518   1.480   8.996  0.00  0.00    +0.000 OA
ATOM     12  H   UNL     1      44.175   2.909   6.946  0.00  0.00    +0.000 HD
ATOM     13  H   UNL     1      44.400   4.418   7.817  0.00  0.00    +0.000 HD
ENDBRANCH   3  10
ENDBRANCH   1   6
BRANCH   1  14
ATOM     14  C   UNL     1      46.972   6.157  13.816  0.00  0.00    +0.000 C 
ATOM     15  C   UNL     1      47.382   7.609  13.588  0.00  0.00    +0.000 C 
ATOM     16  C   UNL     1      47.842   6.564  12.635  0.00  0.00    +0.000 C 
ATOM     17  F   UNL     1      49.196   6.285  12.648  0.00  0.00    +0.000 F 
BRANCH  14  18
ATOM     18  C   UNL     1      47.629   5.338  14.924  0.00  0.00    +0.000 A 
ATOM     19  C   UNL     1      48.569   5.903  15.794  0.00  0.00    +0.000 A 
ATOM     20  N   UNL     1      49.120   5.258  16.854  0.00  0.00    +0.000 NA
ATOM     21  C   UNL     1      48.686   3.995  17.035  0.00  0.00    +0.000 A 
ATOM     22  C   UNL     1      47.769   3.403  16.187  0.00  0.00    +0.000 A 
ATOM     23  N   UNL     1      47.228   4.049  15.127  0.00  0.00    +0.000 NA
ENDBRANCH  14  18
ENDBRANCH   1  14
TORSDOF 4
ENDMDL
