MODEL 1
REMARK VINA RESULT:    -7.141      0.000      0.000
REMARK INTER + INTRA:          -8.630
REMARK INTER:                  -8.602
REMARK INTRA:                  -0.028
REMARK UNBOUND:                -0.028
REMARK  Name = 
REMARK  4 active torsions:
REMARK  status: ('A' for Active; 'I' for Inactive)
REMARK    1  A    between atoms: C_2  and  O_3
REMARK    2  A    between atoms: C_2  and  C_4
REMARK    3  A    between atoms: C_8  and  C_9
REMARK    4  A    between atoms: C_9  and  C_10
REMARK                            x       y       z     vdW  Elec       q    Type
REMARK                         _______ _______ _______ _____ _____    ______ ____
ROOT
ATOM      1  C   UNL     1      46.287   2.117   8.004  0.00  0.00    +0.000 A 
ATOM      2  C   UNL     1      46.198   3.158   7.102  0.00  0.00    +0.000 A 
ATOM      3  N   UNL     1      45.676   4.346   7.447  0.00  0.00    +0.000 NA
ATOM      4  N   UNL     1      45.205   4.528   8.723  0.00  0.00    +0.000 NA
ATOM      5  C   UNL     1      45.264   3.539   9.648  0.00  0.00    +0.000 A 
ATOM      6  C   UNL     1      45.832   2.314   9.307  0.00  0.00    +0.000 A 
ENDROOT
BRANCH   5   7
ATOM      7  C   UNL     1      44.557   3.756  10.986  0.00  0.00    +0.000 C 
ATOM      8  C   UNL     1      43.379   2.845  11.313  0.00  0.00    +0.000 C 
ATOM      9  C   UNL     1      43.134   4.293  11.028  0.00  0.00    +0.000 C 
BRANCH   7  10
ATOM     10  C   UNL     1      45.529   4.121  12.100  0.00  0.00    +0.000 A 
ATOM     11  C   UNL     1      45.772   5.456  12.457  0.00  0.00    +0.000 A 
ATOM     12  C   UNL     1      46.484   5.766  13.611  0.00  0.00    +0.000 A 
ATOM     13  C   UNL     1      46.954   4.723  14.388  0.00  0.00    +0.000 A 
ATOM     14  N   UNL     1      46.793   3.422  14.070  0.00  0.00    +0.000 NA
ATOM     15  C   UNL     1      46.097   3.159  12.939  0.00  0.00    +0.000 A 
ENDBRANCH   7  10
ENDBRANCH   5   7
BRANCH   1  17
ATOM     16  O   UNL     1      46.534  -0.231   7.970  0.00  0.00    +0.000 OA
ATOM     17  C   UNL     1      46.887   0.858   7.541  0.00  0.00    +0.000 C 
BRANCH  17  18
ATOM     18  O   UNL     1      47.869   1.005   6.629  0.00  0.00    +0.000 OA
ATOM     19  H   UNL     1      47.588   1.223   5.722  0.00  0.00    +0.000 HD
ENDBRANCH  17  18
ENDBRANCH   1  17
TORSDOF 4
ENDMDL
MODEL 2
REMARK VINA RESULT:    -7.064      3.331      5.805
REMARK INTER + INTRA:          -8.538
REMARK INTER:                  -8.444
REMARK INTRA:                  -0.094
REMARK UNBOUND:                -0.028
REMARK  Name = 
REMARK  4 active torsions:
REMARK  status: ('A' for Active; 'I' for Inactive)
REMARK    1  A    between atoms: C_2  and  O_3
REMARK    2  A    between atoms: C_2  and  C_4
REMARK    3  A    between atoms: C_8  and  C_9
REMARK    4  A    between atoms: C_9  and  C_10
REMARK                            x       y       z     vdW  Elec       q    Type
REMARK                         _______ _______ _______ _____ _____    ______ ____
ROOT
ATOM      1  C   UNL     1      46.832   4.825  14.090  0.00  0.00    +0.000 A 
ATOM      2  C   UNL     1      47.473   6.002  13.757  0.00  0.00    +0.000 A 
ATOM      3  N   UNL     1      47.108   6.722  12.684  0.00  0.00    +0.000 NA
ATOM      4  N   UNL     1      46.084   6.273  11.889  0.00  0.00    +0.000 NA
ATOM      5  C   UNL     1      45.424   5.122  12.167  0.00  0.00    +0.000 A 
ATOM      6  C   UNL     1      45.774   4.385  13.295  0.00  0.00    +0.000 A 
ENDROOT
BRANCH   5   7
ATOM      7  C   UNL     1      44.421   4.596  11.140  0.00  0.00    +0.000 C 
ATOM      8  C   UNL     1      43.131   5.385  10.951  0.00  0.00    +0.000 C 
ATOM      9  C   UNL     1      43.081   4.034  11.589  0.00  0.00    +0.000 C 
BRANCH   7  10
ATOM     10  C   UNL     1      45.106   4.011   9.911  0.00  0.00    +0.000 A 
ATOM     11  C   UNL     1      45.067   2.637   9.632  0.00  0.00    +0.000 A 
ATOM     12  C   UNL     1      45.501   2.149   8.404  0.00  0.00    +0.000 A 
ATOM     13  C   UNL     1      45.981   3.053   7.473  0.00  0.00    +0.000 A 
ATOM     14  N   UNL     1      46.087   4.377   7.704  0.00  0.00    +0.000 NA
ATOM     15  C   UNL     1      45.657   4.815   8.911  0.00  0.00    +0.000 A 
ENDBRANCH   7  10
ENDBRANCH   5   7
BRANCH   1  17
ATOM     16  O   UNL     1      47.780   2.993  15.239  0.00  0.00    +0.000 OA
ATOM     17  C   UNL     1      47.291   4.112  15.290  0.00  0.00    +0.000 C 
BRANCH  17  18
ATOM     18  O   UNL     1      47.104   4.779  16.447  0.00  0.00    +0.000 OA
ATOM     19  H   UNL     1      47.369   4.315  17.262  0.00  0.00    +0.000 HD
ENDBRANCH  17  18
ENDBRANCH   1  17
TORSDOF 4
ENDMDL
MODEL 3
REMARK VINA RESULT:    -6.983      3.320      5.806
REMARK INTER + INTRA:          -8.440
REMARK INTER:                  -8.346
REMARK INTRA:                  -0.094
REMARK UNBOUND:                -0.028
REMARK  Name = 
REMARK  4 active torsions:
REMARK  status: ('A' for Active; 'I' for Inactive)
REMARK    1  A    between atoms: C_2  and  O_3
REMARK    2  A    between atoms: C_2  and  C_4
REMARK    3  A    between atoms: C_8  and  C_9
REMARK    4  A    between atoms: C_9  and  C_10
REMARK                            x       y       z     vdW  Elec       q    Type
REMARK                         _______ _______ _______ _____ _____    ______ ____
ROOT
ATOM      1  C   UNL     1      47.193   5.741  13.268  0.00  0.00    +0.000 A 
ATOM      2  C   UNL     1      47.227   4.757  14.236  0.00  0.00    +0.000 A 
ATOM      3  N   UNL     1      46.457   3.660  14.152  0.00  0.00    +0.000 NA
ATOM      4  N   UNL     1      45.605   3.517  13.086  0.00  0.00    +0.000 NA
ATOM      5  C   UNL     1      45.528   4.454  12.110  0.00  0.00    +0.000 A 
ATOM      6  C   UNL     1      46.345   5.580  12.173  0.00  0.00    +0.000 A 
ENDROOT
BRANCH   5   7
ATOM      7  C   UNL     1      44.430   4.313  11.055  0.00  0.00    +0.000 C 
ATOM      8  C   UNL     1      43.370   5.407  10.997  0.00  0.00    +0.000 C 
ATOM      9  C   UNL     1      42.992   4.040  11.473  0.00  0.00    +0.000 C 
BRANCH   7  10
ATOM     10  C   UNL     1      44.954   3.733   9.748  0.00  0.00    +0.000 A 
ATOM     11  C   UNL     1      45.558   4.542   8.775  0.00  0.00    +0.000 A 
ATOM     12  C   UNL     1      46.226   3.976   7.694  0.00  0.00    +0.000 A 
ATOM     13  C   UNL     1      46.267   2.597   7.601  0.00  0.00    +0.000 A 
ATOM     14  N   UNL     1      45.663   1.770   8.479  0.00  0.00    +0.000 NA
ATOM     15  C   UNL     1      45.021   2.358   9.516  0.00  0.00    +0.000 A 
ENDBRANCH   7  10
ENDBRANCH   5   7
BRANCH   1  17
ATOM     16  O   UNL     1      47.661   8.004  13.750  0.00  0.00    +0.000 OA
ATOM     17  C   UNL     1      48.081   6.900  13.437  0.00  0.00    +0.000 C 
BRANCH  17  18
ATOM     18  O   UNL     1      49.383   6.650  13.196  0.00  0.00    +0.000 OA
ATOM     19  H   UNL     1      49.997   6.797  13.938  0.00  0.00    +0.000 HD
ENDBRANCH  17  18
ENDBRANCH   1  17
TORSDOF 4
ENDMDL
MODEL 4
REMARK VINA RESULT:    -6.971      2.003      2.524
REMARK INTER + INTRA:          -8.426
REMARK INTER:                  -8.260
REMARK INTRA:                  -0.165
REMARK UNBOUND:                -0.028
REMARK  Name = 
REMARK  4 active torsions:
REMARK  status: ('A' for Active; 'I' for Inactive)
REMARK    1  A    between atoms: C_2  and  O_3
REMARK    2  A    between atoms: C_2  and  C_4
REMARK    3  A    between atoms: C_8  and  C_9
REMARK    4  A    between atoms: C_9  and  C_10
REMARK                            x       y       z     vdW  Elec       q    Type
REMARK                         _______ _______ _______ _____ _____    ______ ____
ROOT
ATOM      1  C   UNL     1      45.442   3.417   8.371  0.00  0.00    +0.000 A 
ATOM      2  C   UNL     1      44.939   2.151   8.594  0.00  0.00    +0.000 A 
ATOM      3  N   UNL     1      44.109   1.894   9.618  0.00  0.00    +0.000 NA
ATOM      4  N   UNL     1      43.761   2.910  10.473  0.00  0.00    +0.000 NA
ATOM      5  C   UNL     1      44.229   4.171  10.303  0.00  0.00    +0.000 A 
ATOM      6  C   UNL     1      45.065   4.452   9.226  0.00  0.00    +0.000 A 
ENDROOT
BRANCH   5   7
ATOM      7  C   UNL     1      43.944   5.202  11.395  0.00  0.00    +0.000 C 
ATOM      8  C   UNL     1      42.520   5.278  11.932  0.00  0.00    +0.000 C 
ATOM      9  C   UNL     1      43.057   6.404  11.107  0.00  0.00    +0.000 C 
BRANCH   7  10
ATOM     10  C   UNL     1      45.103   5.343  12.373  0.00  0.00    +0.000 A 
ATOM     11  C   UNL     1      45.678   4.226  12.997  0.00  0.00    +0.000 A 
ATOM     12  C   UNL     1      46.867   4.343  13.710  0.00  0.00    +0.000 A 
ATOM     13  C   UNL     1      47.457   5.591  13.795  0.00  0.00    +0.000 A 
ATOM     14  N   UNL     1      46.925   6.708  13.258  0.00  0.00    +0.000 NA
ATOM     15  C   UNL     1      45.767   6.555  12.573  0.00  0.00    +0.000 A 
ENDBRANCH   7  10
ENDBRANCH   5   7
BRANCH   1  17
ATOM     16  O   UNL     1      46.333   2.847   6.260  0.00  0.00    +0.000 OA
ATOM     17  C   UNL     1      46.332   3.607   7.217  0.00  0.00    +0.000 C 
BRANCH  17  18
ATOM     18  O   UNL     1      47.160   4.667   7.314  0.00  0.00    +0.000 OA
ATOM     19  H   UNL     1      47.805   4.779   6.592  0.00  0.00    +0.000 HD
ENDBRANCH  17  18
ENDBRANCH   1  17
TORSDOF 4
ENDMDL
MODEL 5
REMARK VINA RESULT:    -6.431      1.478      1.772
REMARK INTER + INTRA:          -7.775
REMARK INTER:                  -7.882
REMARK INTRA:                   0.106
REMARK UNBOUND:                -0.028
REMARK  Name = 
REMARK  4 active torsions:
REMARK  status: ('A' for Active; 'I' for Inactive)
REMARK    1  A    between atoms: C_2  and  O_3
REMARK    2  A    between atoms: C_2  and  C_4
REMARK    3  A    between atoms: C_8  and  C_9
REMARK    4  A    between atoms: C_9  and  C_10
REMARK                            x       y       z     vdW  Elec       q    Type
REMARK                         _______ _______ _______ _____ _____    ______ ____
ROOT
ATOM      1  C   UNL     1      46.363   2.372   8.089  0.00  0.00    +0.000 A 
ATOM      2  C   UNL     1      46.575   3.448   7.250  0.00  0.00    +0.000 A 
ATOM      3  N   UNL     1      46.234   4.697   7.607  0.00  0.00    +0.000 NA
ATOM      4  N   UNL     1      45.648   4.909   8.829  0.00  0.00    +0.000 NA
ATOM      5  C   UNL     1      45.413   3.889   9.690  0.00  0.00    +0.000 A 
ATOM      6  C   UNL     1      45.792   2.596   9.341  0.00  0.00    +0.000 A 
ENDROOT
BRANCH   5   7
ATOM      7  C   UNL     1      44.596   4.177  10.950  0.00  0.00    +0.000 C 
ATOM      8  C   UNL     1      44.012   2.983  11.696  0.00  0.00    +0.000 C 
ATOM      9  C   UNL     1      43.097   3.918  10.972  0.00  0.00    +0.000 C 
BRANCH   7  10
ATOM     10  C   UNL     1      45.168   5.334  11.758  0.00  0.00    +0.000 A 
ATOM     11  C   UNL     1      46.409   5.238  12.404  0.00  0.00    +0.000 A 
ATOM     12  C   UNL     1      47.018   6.364  12.948  0.00  0.00    +0.000 A 
ATOM     13  C   UNL     1      46.360   7.577  12.844  0.00  0.00    +0.000 A 
ATOM     14  N   UNL     1      45.144   7.721  12.278  0.00  0.00    +0.000 NA
ATOM     15  C   UNL     1      44.583   6.603  11.762  0.00  0.00    +0.000 A 
ENDBRANCH   7  10
ENDBRANCH   5   7
BRANCH   1  17
ATOM     16  O   UNL     1      46.296   0.012   8.058  0.00  0.00    +0.000 OA
ATOM     17  C   UNL     1      46.781   1.044   7.618  0.00  0.00    +0.000 C 
BRANCH  17  18
ATOM     18  O   UNL     1      47.756   1.059   6.687  0.00  0.00    +0.000 OA
ATOM     19  H   UNL     1      48.574   1.532   6.925  0.00  0.00    +0.000 HD
ENDBRANCH  17  18
ENDBRANCH   1  17
TORSDOF 4
ENDMDL
MODEL 6
REMARK VINA RESULT:    -6.215      4.874      7.165
REMARK INTER + INTRA:          -7.515
REMARK INTER:                  -7.460
REMARK INTRA:                  -0.055
REMARK UNBOUND:                -0.028
REMARK  Name = 
REMARK  4 active torsions:
REMARK  status: ('A' for Active; 'I' for Inactive)
REMARK    1  A    between atoms: C_2  and  O_3
REMARK    2  A    between atoms: C_2  and  C_4
REMARK    3  A    between atoms: C_8  and  C_9
REMARK    4  A    between atoms: C_9  and  C_10
REMARK                            x       y       z     vdW  Elec       q    Type
REMARK                         _______ _______ _______ _____ _____    ______ ____
ROOT
ATOM      1  C   UNL     1      47.547   4.402  16.730  0.00  0.00    +0.000 A 
ATOM      2  C   UNL     1      47.903   3.106  16.411  0.00  0.00    +0.000 A 
ATOM      3  N   UNL     1      47.873   2.659  15.145  0.00  0.00    +0.000 NA
ATOM      4  N   UNL     1      47.466   3.505  14.143  0.00  0.00    +0.000 NA
ATOM      5  C   UNL     1      47.103   4.785  14.401  0.00  0.00    +0.000 A 
ATOM      6  C   UNL     1      47.161   5.266  15.706  0.00  0.00    +0.000 A 
ENDROOT
BRANCH   5   7
ATOM      7  C   UNL     1      46.491   5.606  13.265  0.00  0.00    +0.000 C 
ATOM      8  C   UNL     1      47.450   6.256  12.275  0.00  0.00    +0.000 C 
ATOM      9  C   UNL     1      46.674   7.116  13.221  0.00  0.00    +0.000 C 
BRANCH   7  10
ATOM     10  C   UNL     1      45.201   4.992  12.737  0.00  0.00    +0.000 A 
ATOM     11  C   UNL     1      43.952   5.578  12.985  0.00  0.00    +0.000 A 
ATOM     12  C   UNL     1      42.813   5.136  12.318  0.00  0.00    +0.000 A 
ATOM     13  C   UNL     1      42.948   4.098  11.414  0.00  0.00    +0.000 A 
ATOM     14  N   UNL     1      44.114   3.465  11.171  0.00  0.00    +0.000 NA
ATOM     15  C   UNL     1      45.198   3.921  11.840  0.00  0.00    +0.000 A 
ENDBRANCH   7  10
ENDBRANCH   5   7
BRANCH   1  17
ATOM     16  O   UNL     1      48.658   4.720  18.789  0.00  0.00    +0.000 OA
ATOM     17  C   UNL     1      47.625   4.805  18.140  0.00  0.00    +0.000 C 
BRANCH  17  18
ATOM     18  O   UNL     1      46.464   5.250  18.663  0.00  0.00    +0.000 OA
ATOM     19  H   UNL     1      45.649   4.849  18.309  0.00  0.00    +0.000 HD
ENDBRANCH  17  18
ENDBRANCH   1  17
TORSDOF 4
ENDMDL
MODEL 7
REMARK VINA RESULT:    -5.676      2.765      4.242
REMARK INTER + INTRA:          -6.865
REMARK INTER:                  -7.151
REMARK INTRA:                   0.286
REMARK UNBOUND:                -0.028
REMARK  Name = 
REMARK  4 active torsions:
REMARK  status: ('A' for Active; 'I' for Inactive)
REMARK    1  A    between atoms: C_2  and  O_3
REMARK    2  A    between atoms: C_2  and  C_4
REMARK    3  A    between atoms: C_8  and  C_9
REMARK    4  A    between atoms: C_9  and  C_10
REMARK                            x       y       z     vdW  Elec       q    Type
REMARK                         _______ _______ _______ _____ _____    ______ ____
ROOT
ATOM      1  C   UNL     1      44.500   4.645  10.589  0.00  0.00    +0.000 A 
ATOM      2  C   UNL     1      43.360   4.765  11.358  0.00  0.00    +0.000 A 
ATOM      3  N   UNL     1      43.342   5.501  12.481  0.00  0.00    +0.000 NA
ATOM      4  N   UNL     1      44.487   6.140  12.884  0.00  0.00    +0.000 NA
ATOM      5  C   UNL     1      45.636   6.054  12.169  0.00  0.00    +0.000 A 
ATOM      6  C   UNL     1      45.655   5.318  10.987  0.00  0.00    +0.000 A 
ENDROOT
BRANCH   5   7
ATOM      7  C   UNL     1      46.911   6.640  12.775  0.00  0.00    +0.000 C 
ATOM      8  C   UNL     1      47.023   8.160  12.835  0.00  0.00    +0.000 C 
ATOM      9  C   UNL     1      47.903   7.393  11.900  0.00  0.00    +0.000 C 
BRANCH   7  10
ATOM     10  C   UNL     1      47.420   5.823  13.954  0.00  0.00    +0.000 A 
ATOM     11  C   UNL     1      48.244   6.387  14.939  0.00  0.00    +0.000 A 
ATOM     12  C   UNL     1      48.519   5.699  16.116  0.00  0.00    +0.000 A 
ATOM     13  C   UNL     1      47.967   4.442  16.282  0.00  0.00    +0.000 A 
ATOM     14  N   UNL     1      47.208   3.830  15.350  0.00  0.00    +0.000 NA
ATOM     15  C   UNL     1      46.964   4.529  14.217  0.00  0.00    +0.000 A 
ENDBRANCH   7  10
ENDBRANCH   5   7
BRANCH   1  17
ATOM     16  O   UNL     1      45.025   2.774   9.249  0.00  0.00    +0.000 OA
ATOM     17  C   UNL     1      44.421   3.830   9.369  0.00  0.00    +0.000 C 
BRANCH  17  18
ATOM     18  O   UNL     1      43.655   4.353   8.391  0.00  0.00    +0.000 OA
ATOM     19  H   UNL     1      43.895   4.113   7.478  0.00  0.00    +0.000 HD
ENDBRANCH  17  18
ENDBRANCH   1  17
TORSDOF 4
ENDMDL
MODEL 8
REMARK VINA RESULT:    -5.286      4.412      7.035
REMARK INTER + INTRA:          -6.396
REMARK INTER:                  -6.347
REMARK INTRA:                  -0.049
REMARK UNBOUND:                -0.028
REMARK  Name = 
REMARK  4 active torsions:
REMARK  status: ('A' for Active; 'I' for Inactive)
REMARK    1  A    between atoms: C_2  and  O_3
REMARK    2  A    between atoms: C_2  and  C_4
REMARK    3  A    between atoms: C_8  and  C_9
REMARK    4  A    between atoms: C_9  and  C_10
REMARK                            x       y       z     vdW  Elec       q    Type
REMARK                         _______ _______ _______ _____ _____    ______ ____
ROOT
ATOM      1  C   UNL     1      46.619   4.708  13.809  0.00  0.00    +0.000 A 
ATOM      2  C   UNL     1      47.348   5.816  13.427  0.00  0.00    +0.000 A 
ATOM      3  N   UNL     1      48.318   6.323  14.204  0.00  0.00    +0.000 NA
ATOM      4  N   UNL     1      48.585   5.736  15.414  0.00  0.00    +0.000 NA
ATOM      5  C   UNL     1      47.898   4.648  15.841  0.00  0.00    +0.000 A 
ATOM      6  C   UNL     1      46.912   4.097  15.028  0.00  0.00    +0.000 A 
ENDROOT
BRANCH   5   7
ATOM      7  C   UNL     1      48.128   4.162  17.273  0.00  0.00    +0.000 C 
ATOM      8  C   UNL     1      48.978   2.911  17.461  0.00  0.00    +0.000 C 
ATOM      9  C   UNL     1      47.512   2.856  17.751  0.00  0.00    +0.000 C 
BRANCH   7  10
ATOM     10  C   UNL     1      48.297   5.315  18.254  0.00  0.00    +0.000 A 
ATOM     11  C   UNL     1      47.203   5.870  18.933  0.00  0.00    +0.000 A 
ATOM     12  C   UNL     1      47.395   6.763  19.982  0.00  0.00    +0.000 A 
ATOM     13  C   UNL     1      48.692   7.096  20.327  0.00  0.00    +0.000 A 
ATOM     14  N   UNL     1      49.780   6.632  19.679  0.00  0.00    +0.000 NA
ATOM     15  C   UNL     1      49.554   5.767  18.663  0.00  0.00    +0.000 A 
ENDBRANCH   7  10
ENDBRANCH   5   7
BRANCH   1  17
ATOM     16  O   UNL     1      44.793   4.963  12.335  0.00  0.00    +0.000 OA
ATOM     17  C   UNL     1      45.586   4.215  12.887  0.00  0.00    +0.000 C 
BRANCH  17  18
ATOM     18  O   UNL     1      45.571   2.877  12.722  0.00  0.00    +0.000 OA
ATOM     19  H   UNL     1      45.252   2.551  11.861  0.00  0.00    +0.000 HD
ENDBRANCH  17  18
ENDBRANCH   1  17
TORSDOF 4
ENDMDL
MODEL 9
REMARK VINA RESULT:    -5.243      4.793      7.309
REMARK INTER + INTRA:          -6.344
REMARK INTER:                  -6.668
REMARK INTRA:                   0.323
REMARK UNBOUND:                -0.028
REMARK  Name = 
REMARK  4 active torsions:
REMARK  status: ('A' for Active; 'I' for Inactive)
REMARK    1  A    between atoms: C_2  and  O_3
REMARK    2  A    between atoms: C_2  and  C_4
REMARK    3  A    between atoms: C_8  and  C_9
REMARK    4  A    between atoms: C_9  and  C_10
REMARK                            x       y       z     vdW  Elec       q    Type
REMARK                         _______ _______ _______ _____ _____    ______ ____
ROOT
ATOM      1  C   UNL     1      48.042   4.529  16.769  0.00  0.00    +0.000 A 
ATOM      2  C   UNL     1      49.287   5.034  17.087  0.00  0.00    +0.000 A 
ATOM      3  N   UNL     1      49.884   5.966  16.326  0.00  0.00    +0.000 NA
ATOM      4  N   UNL     1      49.249   6.419  15.197  0.00  0.00    +0.000 NA
ATOM      5  C   UNL     1      48.028   5.955  14.836  0.00  0.00    +0.000 A 
ATOM      6  C   UNL     1      47.388   5.012  15.636  0.00  0.00    +0.000 A 
ENDROOT
BRANCH   5   7
ATOM      7  C   UNL     1      47.468   6.371  13.475  0.00  0.00    +0.000 C 
ATOM      8  C   UNL     1      48.468   6.807  12.410  0.00  0.00    +0.000 C 
ATOM      9  C   UNL     1      47.552   7.819  13.019  0.00  0.00    +0.000 C 
BRANCH   7  10
ATOM     10  C   UNL     1      46.278   5.519  13.054  0.00  0.00    +0.000 A 
ATOM     11  C   UNL     1      46.409   4.146  12.801  0.00  0.00    +0.000 A 
ATOM     12  C   UNL     1      45.286   3.342  12.635  0.00  0.00    +0.000 A 
ATOM     13  C   UNL     1      44.040   3.937  12.717  0.00  0.00    +0.000 A 
ATOM     14  N   UNL     1      43.854   5.259  12.910  0.00  0.00    +0.000 NA
ATOM     15  C   UNL     1      44.970   6.009  13.065  0.00  0.00    +0.000 A 
ENDBRANCH   7  10
ENDBRANCH   5   7
BRANCH   1  17
ATOM     16  O   UNL     1      46.455   2.891  17.380  0.00  0.00    +0.000 OA
ATOM     17  C   UNL     1      47.461   3.523  17.669  0.00  0.00    +0.000 C 
BRANCH  17  18
ATOM     18  O   UNL     1      48.109   3.375  18.841  0.00  0.00    +0.000 OA
ATOM     19  H   UNL     1      47.755   3.877  19.598  0.00  0.00    +0.000 HD
ENDBRANCH  17  18
ENDBRANCH   1  17
TORSDOF 4
ENDMDL
