MODEL 1
REMARK VINA RESULT:    -8.644      0.000      0.000
REMARK INTER + INTRA:         -12.767
REMARK INTER:                 -11.928
REMARK INTRA:                  -0.839
REMARK UNBOUND:                -0.839
REMARK  Name = 
REMARK  7 active torsions:
REMARK  status: ('A' for Active; 'I' for Inactive)
REMARK    1  A    between atoms: N_1  and  C_2
REMARK    2  A    between atoms: C_2  and  C_3
REMARK    3  A    between atoms: C_2  and  C_24
REMARK    4  A    between atoms: C_3  and  C_4
REMARK    5  A    between atoms: C_7  and  C_8
REMARK    6  A    between atoms: C_8  and  N_9
REMARK    7  A    between atoms: C_10  and  C_12
REMARK                            x       y       z     vdW  Elec       q    Type
REMARK                         _______ _______ _______ _____ _____    ______ ____
ROOT
ATOM      1  C   UNL     1      45.048   7.414  11.626  0.00  0.00    +0.000 A 
ATOM      2  C   UNL     1      46.164   6.706  11.164  0.00  0.00    +0.000 A 
ATOM      3  C   UNL     1      47.415   6.882  11.759  0.00  0.00    +0.000 A 
ATOM      4  C   UNL     1      47.577   7.775  12.825  0.00  0.00    +0.000 A 
ATOM      5  C   UNL     1      46.470   8.519  13.255  0.00  0.00    +0.000 A 
ATOM      6  C   UNL     1      45.214   8.332  12.670  0.00  0.00    +0.000 A 
ENDROOT
BRANCH   1   7
ATOM      7  C   UNL     1      43.687   7.184  11.007  0.00  0.00    +0.000 C 
BRANCH   7   8
ATOM      8  C   UNL     1      43.019   5.844  11.393  0.00  0.00    +0.000 C 
BRANCH   8   9
ATOM      9  C   UNL     1      43.912   4.676  10.906  0.00  0.00    +0.000 C 
ATOM     10  O   UNL     1      44.418   3.867  11.681  0.00  0.00    +0.000 OA
ATOM     11  N   UNL     1      44.119   4.689   9.541  0.00  0.00    +0.000 N 
ATOM     12  C   UNL     1      44.902   3.753   8.873  0.00  0.00    +0.000 A 
ATOM     13  C   UNL     1      44.800   2.394   9.154  0.00  0.00    +0.000 A 
ATOM     14  C   UNL     1      45.623   1.506   8.470  0.00  0.00    +0.000 A 
ATOM     15  C   UNL     1      46.548   2.006   7.563  0.00  0.00    +0.000 A 
ATOM     16  C   UNL     1      46.563   3.373   7.334  0.00  0.00    +0.000 A 
ATOM     17  N   UNL     1      45.727   4.250   7.932  0.00  0.00    +0.000 NA
ATOM     18  H   UNL     1      44.002   5.578   9.070  0.00  0.00    +0.000 HD
ENDBRANCH   8   9
BRANCH   8  19
ATOM     19  N   UNL     1      42.785   5.683  12.848  0.00  0.00    +0.000 NA
ATOM     20  H   UNL     1      43.563   6.110  13.353  0.00  0.00    +0.000 HD
ATOM     21  H   UNL     1      42.822   4.688  13.076  0.00  0.00    +0.000 HD
ENDBRANCH   8  19
ENDBRANCH   7   8
ENDBRANCH   1   7
BRANCH   4  22
ATOM     22  C   UNL     1      48.925   7.965  13.470  0.00  0.00    +0.000 C 
BRANCH  22  23
ATOM     23  N   UNL     1      49.104   7.064  14.579  0.00  0.00    +0.000 N 
ATOM     24  C   UNL     1      48.891   7.474  15.868  0.00  0.00    +0.000 C 
ATOM     25  O   UNL     1      48.489   8.604  16.133  0.00  0.00    +0.000 OA
ATOM     26  H   UNL     1      49.632   6.215  14.401  0.00  0.00    +0.000 HD
BRANCH  24  27
ATOM     27  C   UNL     1      49.113   6.476  16.922  0.00  0.00    +0.000 A 
ATOM     28  C   UNL     1      50.012   6.747  17.945  0.00  0.00    +0.000 A 
ATOM     29  S   UNL     1      50.110   5.510  19.115  0.00  0.00    +0.000 S 
ATOM     30  C   UNL     1      48.994   4.543  18.269  0.00  0.00    +0.000 A 
ATOM     31  N   UNL     1      48.648   3.312  18.725  0.00  0.00    +0.000 NA
ATOM     32  C   UNL     1      47.810   2.676  17.978  0.00  0.00    +0.000 A 
ATOM     33  N   UNL     1      47.281   3.167  16.809  0.00  0.00    +0.000 N 
ATOM     34  C   UNL     1      47.589   4.413  16.316  0.00  0.00    +0.000 A 
ATOM     35  O   UNL     1      47.082   4.831  15.288  0.00  0.00    +0.000 OA
ATOM     36  C   UNL     1      48.535   5.166  17.118  0.00  0.00    +0.000 A 
ATOM     37  H   UNL     1      46.628   2.620  16.270  0.00  0.00    +0.000 HD
ENDBRANCH  24  27
ENDBRANCH  22  23
ENDBRANCH   4  22
TORSDOF 7
ENDMDL
MODEL 2
REMARK VINA RESULT:    -8.528      2.736      3.337
REMARK INTER + INTRA:         -12.607
REMARK INTER:                 -11.722
REMARK INTRA:                  -0.886
REMARK UNBOUND:                -0.839
REMARK  Name = 
REMARK  7 active torsions:
REMARK  status: ('A' for Active; 'I' for Inactive)
REMARK    1  A    between atoms: N_1  and  C_2
REMARK    2  A    between atoms: C_2  and  C_3
REMARK    3  A    between atoms: C_2  and  C_24
REMARK    4  A    between atoms: C_3  and  C_4
REMARK    5  A    between atoms: C_7  and  C_8
REMARK    6  A    between atoms: C_8  and  N_9
REMARK    7  A    between atoms: C_10  and  C_12
REMARK                            x       y       z     vdW  Elec       q    Type
REMARK                         _______ _______ _______ _____ _____    ______ ____
ROOT
ATOM      1  C   UNL     1      45.769   4.622  12.722  0.00  0.00    +0.000 A 
ATOM      2  C   UNL     1      45.303   5.792  12.109  0.00  0.00    +0.000 A 
ATOM      3  C   UNL     1      45.874   7.030  12.410  0.00  0.00    +0.000 A 
ATOM      4  C   UNL     1      46.920   7.125  13.335  0.00  0.00    +0.000 A 
ATOM      5  C   UNL     1      47.354   5.961  13.984  0.00  0.00    +0.000 A 
ATOM      6  C   UNL     1      46.792   4.719  13.672  0.00  0.00    +0.000 A 
ENDROOT
BRANCH   1   7
ATOM      7  C   UNL     1      45.176   3.279  12.356  0.00  0.00    +0.000 C 
BRANCH   7   8
ATOM      8  C   UNL     1      43.938   3.349  11.432  0.00  0.00    +0.000 C 
BRANCH   8   9
ATOM      9  C   UNL     1      44.409   3.368   9.957  0.00  0.00    +0.000 C 
ATOM     10  O   UNL     1      43.825   4.015   9.089  0.00  0.00    +0.000 OA
ATOM     11  N   UNL     1      45.492   2.544   9.726  0.00  0.00    +0.000 N 
ATOM     12  C   UNL     1      46.081   2.381   8.477  0.00  0.00    +0.000 A 
ATOM     13  C   UNL     1      46.345   3.472   7.654  0.00  0.00    +0.000 A 
ATOM     14  C   UNL     1      46.915   3.245   6.406  0.00  0.00    +0.000 A 
ATOM     15  C   UNL     1      47.162   1.939   6.004  0.00  0.00    +0.000 A 
ATOM     16  C   UNL     1      46.885   0.918   6.900  0.00  0.00    +0.000 A 
ATOM     17  N   UNL     1      46.397   1.114   8.144  0.00  0.00    +0.000 NA
ATOM     18  H   UNL     1      45.636   1.787  10.382  0.00  0.00    +0.000 HD
ENDBRANCH   8   9
BRANCH   8  19
ATOM     19  N   UNL     1      42.989   2.223  11.610  0.00  0.00    +0.000 NA
ATOM     20  H   UNL     1      42.916   2.011  12.606  0.00  0.00    +0.000 HD
ATOM     21  H   UNL     1      43.389   1.389  11.178  0.00  0.00    +0.000 HD
ENDBRANCH   8  19
ENDBRANCH   7   8
ENDBRANCH   1   7
BRANCH   4  22
ATOM     22  C   UNL     1      47.540   8.459  13.661  0.00  0.00    +0.000 C 
BRANCH  22  23
ATOM     23  N   UNL     1      47.342   8.801  15.046  0.00  0.00    +0.000 N 
ATOM     24  C   UNL     1      48.403   8.941  15.900  0.00  0.00    +0.000 C 
ATOM     25  O   UNL     1      49.566   8.837  15.516  0.00  0.00    +0.000 OA
ATOM     26  H   UNL     1      46.407   8.678  15.421  0.00  0.00    +0.000 HD
BRANCH  24  27
ATOM     27  C   UNL     1      48.087   9.282  17.293  0.00  0.00    +0.000 A 
ATOM     28  C   UNL     1      47.926  10.613  17.654  0.00  0.00    +0.000 A 
ATOM     29  S   UNL     1      47.509  10.831  19.293  0.00  0.00    +0.000 S 
ATOM     30  C   UNL     1      47.582   9.158  19.593  0.00  0.00    +0.000 A 
ATOM     31  N   UNL     1      47.351   8.659  20.836  0.00  0.00    +0.000 NA
ATOM     32  C   UNL     1      47.460   7.377  20.931  0.00  0.00    +0.000 A 
ATOM     33  N   UNL     1      47.776   6.543  19.886  0.00  0.00    +0.000 N 
ATOM     34  C   UNL     1      48.002   7.000  18.609  0.00  0.00    +0.000 A 
ATOM     35  O   UNL     1      48.256   6.230  17.696  0.00  0.00    +0.000 OA
ATOM     36  C   UNL     1      47.899   8.439  18.451  0.00  0.00    +0.000 A 
ATOM     37  H   UNL     1      47.845   5.548  20.026  0.00  0.00    +0.000 HD
ENDBRANCH  24  27
ENDBRANCH  22  23
ENDBRANCH   4  22
TORSDOF 7
ENDMDL
MODEL 3
REMARK VINA RESULT:    -8.460      1.932      2.326
REMARK INTER + INTRA:         -12.513
REMARK INTER:                 -12.014
REMARK INTRA:                  -0.500
REMARK UNBOUND:                -0.839
REMARK  Name = 
REMARK  7 active torsions:
REMARK  status: ('A' for Active; 'I' for Inactive)
REMARK    1  A    between atoms: N_1  and  C_2
REMARK    2  A    between atoms: C_2  and  C_3
REMARK    3  A    between atoms: C_2  and  C_24
REMARK    4  A    between atoms: C_3  and  C_4
REMARK    5  A    between atoms: C_7  and  C_8
REMARK    6  A    between atoms: C_8  and  N_9
REMARK    7  A    between atoms: C_10  and  C_12
REMARK                            x       y       z     vdW  Elec       q    Type
REMARK                         _______ _______ _______ _____ _____    ______ ____
ROOT
ATOM      1  C   UNL     1      44.924   5.712  11.676  0.00  0.00    +0.000 A 
ATOM      2  C   UNL     1      45.084   5.286  13.000  0.00  0.00    +0.000 A 
ATOM      3  C   UNL     1      46.245   5.594  13.712  0.00  0.00    +0.000 A 
ATOM      4  C   UNL     1      47.274   6.330  13.112  0.00  0.00    +0.000 A 
ATOM      5  C   UNL     1      47.134   6.714  11.772  0.00  0.00    +0.000 A 
ATOM      6  C   UNL     1      45.966   6.419  11.063  0.00  0.00    +0.000 A 
ENDROOT
BRANCH   1   7
ATOM      7  C   UNL     1      43.644   5.415  10.927  0.00  0.00    +0.000 C 
BRANCH   7   8
ATOM      8  C   UNL     1      43.357   3.911  10.709  0.00  0.00    +0.000 C 
BRANCH   8   9
ATOM      9  C   UNL     1      44.599   3.246  10.067  0.00  0.00    +0.000 C 
ATOM     10  O   UNL     1      45.482   2.715  10.738  0.00  0.00    +0.000 OA
ATOM     11  N   UNL     1      44.629   3.375   8.693  0.00  0.00    +0.000 N 
ATOM     12  C   UNL     1      45.655   2.876   7.896  0.00  0.00    +0.000 A 
ATOM     13  C   UNL     1      46.168   1.598   8.095  0.00  0.00    +0.000 A 
ATOM     14  C   UNL     1      47.208   1.161   7.282  0.00  0.00    +0.000 A 
ATOM     15  C   UNL     1      47.729   2.027   6.329  0.00  0.00    +0.000 A 
ATOM     16  C   UNL     1      47.140   3.274   6.191  0.00  0.00    +0.000 A 
ATOM     17  N   UNL     1      46.084   3.698   6.919  0.00  0.00    +0.000 NA
ATOM     18  H   UNL     1      44.096   4.138   8.295  0.00  0.00    +0.000 HD
ENDBRANCH   8   9
BRANCH   8  19
ATOM     19  N   UNL     1      43.018   3.175  11.952  0.00  0.00    +0.000 NA
ATOM     20  H   UNL     1      42.382   2.413  11.717  0.00  0.00    +0.000 HD
ATOM     21  H   UNL     1      42.489   3.798  12.564  0.00  0.00    +0.000 HD
ENDBRANCH   8  19
ENDBRANCH   7   8
ENDBRANCH   1   7
BRANCH   4  22
ATOM     22  C   UNL     1      48.527   6.665  13.878  0.00  0.00    +0.000 C 
BRANCH  22  23
ATOM     23  N   UNL     1      48.245   6.866  15.276  0.00  0.00    +0.000 N 
ATOM     24  C   UNL     1      49.191   6.615  16.234  0.00  0.00    +0.000 C 
ATOM     25  O   UNL     1      50.332   6.263  15.944  0.00  0.00    +0.000 OA
ATOM     26  H   UNL     1      47.268   6.944  15.541  0.00  0.00    +0.000 HD
BRANCH  24  27
ATOM     27  C   UNL     1      48.794   6.845  17.629  0.00  0.00    +0.000 A 
ATOM     28  C   UNL     1      48.478   8.130  18.049  0.00  0.00    +0.000 A 
ATOM     29  S   UNL     1      47.985   8.215  19.679  0.00  0.00    +0.000 S 
ATOM     30  C   UNL     1      48.227   6.545  19.898  0.00  0.00    +0.000 A 
ATOM     31  N   UNL     1      48.010   5.958  21.104  0.00  0.00    +0.000 NA
ATOM     32  C   UNL     1      48.253   4.691  21.138  0.00  0.00    +0.000 A 
ATOM     33  N   UNL     1      48.692   3.953  20.066  0.00  0.00    +0.000 N 
ATOM     34  C   UNL     1      48.910   4.499  18.824  0.00  0.00    +0.000 A 
ATOM     35  O   UNL     1      49.276   3.811  17.884  0.00  0.00    +0.000 OA
ATOM     36  C   UNL     1      48.659   5.926  18.734  0.00  0.00    +0.000 A 
ATOM     37  H   UNL     1      48.863   2.964  20.159  0.00  0.00    +0.000 HD
ENDBRANCH  24  27
ENDBRANCH  22  23
ENDBRANCH   4  22
TORSDOF 7
ENDMDL
MODEL 4
REMARK VINA RESULT:    -8.112      2.039      2.686
REMARK INTER + INTRA:         -12.033
REMARK INTER:                 -11.101
REMARK INTRA:                  -0.933
REMARK UNBOUND:                -0.839
REMARK  Name = 
REMARK  7 active torsions:
REMARK  status: ('A' for Active; 'I' for Inactive)
REMARK    1  A    between atoms: N_1  and  C_2
REMARK    2  A    between atoms: C_2  and  C_3
REMARK    3  A    between atoms: C_2  and  C_24
REMARK    4  A    between atoms: C_3  and  C_4
REMARK    5  A    between atoms: C_7  and  C_8
REMARK    6  A    between atoms: C_8  and  N_9
REMARK    7  A    between atoms: C_10  and  C_12
REMARK                            x       y       z     vdW  Elec       q    Type
REMARK                         _______ _______ _______ _____ _____    ______ ____
ROOT
ATOM      1  C   UNL     1      45.969   7.609  12.152  0.00  0.00    +0.000 A 
ATOM      2  C   UNL     1      46.016   8.606  13.135  0.00  0.00    +0.000 A 
ATOM      3  C   UNL     1      47.168   8.798  13.901  0.00  0.00    +0.000 A 
ATOM      4  C   UNL     1      48.296   7.992  13.704  0.00  0.00    +0.000 A 
ATOM      5  C   UNL     1      48.232   6.964  12.753  0.00  0.00    +0.000 A 
ATOM      6  C   UNL     1      47.084   6.781  11.976  0.00  0.00    +0.000 A 
ENDROOT
BRANCH   1   7
ATOM      7  C   UNL     1      44.734   7.438  11.295  0.00  0.00    +0.000 C 
BRANCH   7   8
ATOM      8  C   UNL     1      43.901   6.173  11.607  0.00  0.00    +0.000 C 
BRANCH   8   9
ATOM      9  C   UNL     1      44.620   4.936  11.015  0.00  0.00    +0.000 C 
ATOM     10  O   UNL     1      45.091   4.047  11.722  0.00  0.00    +0.000 OA
ATOM     11  N   UNL     1      44.726   4.981   9.639  0.00  0.00    +0.000 N 
ATOM     12  C   UNL     1      45.347   3.993   8.883  0.00  0.00    +0.000 A 
ATOM     13  C   UNL     1      45.117   2.643   9.128  0.00  0.00    +0.000 A 
ATOM     14  C   UNL     1      45.783   1.699   8.354  0.00  0.00    +0.000 A 
ATOM     15  C   UNL     1      46.688   2.132   7.393  0.00  0.00    +0.000 A 
ATOM     16  C   UNL     1      46.837   3.497   7.207  0.00  0.00    +0.000 A 
ATOM     17  N   UNL     1      46.150   4.435   7.896  0.00  0.00    +0.000 NA
ATOM     18  H   UNL     1      44.672   5.895   9.207  0.00  0.00    +0.000 HD
ENDBRANCH   8   9
BRANCH   8  19
ATOM     19  N   UNL     1      43.676   5.940  13.054  0.00  0.00    +0.000 NA
ATOM     20  H   UNL     1      44.214   6.628  13.583  0.00  0.00    +0.000 HD
ATOM     21  H   UNL     1      44.071   5.031  13.302  0.00  0.00    +0.000 HD
ENDBRANCH   8  19
ENDBRANCH   7   8
ENDBRANCH   1   7
BRANCH   4  22
ATOM     22  C   UNL     1      49.541   8.197  14.526  0.00  0.00    +0.000 C 
BRANCH  22  23
ATOM     23  N   UNL     1      49.945   6.976  15.173  0.00  0.00    +0.000 N 
ATOM     24  C   UNL     1      49.489   6.650  16.423  0.00  0.00    +0.000 C 
ATOM     25  O   UNL     1      48.677   7.352  17.022  0.00  0.00    +0.000 OA
ATOM     26  H   UNL     1      50.762   6.504  14.797  0.00  0.00    +0.000 HD
BRANCH  24  27
ATOM     27  C   UNL     1      49.972   5.386  16.992  0.00  0.00    +0.000 A 
ATOM     28  C   UNL     1      49.060   4.401  17.348  0.00  0.00    +0.000 A 
ATOM     29  S   UNL     1      49.787   2.978  17.941  0.00  0.00    +0.000 S 
ATOM     30  C   UNL     1      51.345   3.645  17.795  0.00  0.00    +0.000 A 
ATOM     31  N   UNL     1      52.446   2.942  18.169  0.00  0.00    +0.000 NA
ATOM     32  C   UNL     1      53.563   3.573  18.027  0.00  0.00    +0.000 A 
ATOM     33  N   UNL     1      53.678   4.852  17.537  0.00  0.00    +0.000 N 
ATOM     34  C   UNL     1      52.595   5.595  17.132  0.00  0.00    +0.000 A 
ATOM     35  O   UNL     1      52.733   6.720  16.677  0.00  0.00    +0.000 OA
ATOM     36  C   UNL     1      51.313   4.932  17.279  0.00  0.00    +0.000 A 
ATOM     37  H   UNL     1      54.581   5.289  17.450  0.00  0.00    +0.000 HD
ENDBRANCH  24  27
ENDBRANCH  22  23
ENDBRANCH   4  22
TORSDOF 7
ENDMDL
MODEL 5
REMARK VINA RESULT:    -7.915      2.262      2.669
REMARK INTER + INTRA:         -11.761
REMARK INTER:                 -10.672
REMARK INTRA:                  -1.090
REMARK UNBOUND:                -0.839
REMARK  Name = 
REMARK  7 active torsions:
REMARK  status: ('A' for Active; 'I' for Inactive)
REMARK    1  A    between atoms: N_1  and  C_2
REMARK    2  A    between atoms: C_2  and  C_3
REMARK    3  A    between atoms: C_2  and  C_24
REMARK    4  A    between atoms: C_3  and  C_4
REMARK    5  A    between atoms: C_7  and  C_8
REMARK    6  A    between atoms: C_8  and  N_9
REMARK    7  A    between atoms: C_10  and  C_12
REMARK                            x       y       z     vdW  Elec       q    Type
REMARK                         _______ _______ _______ _____ _____    ______ ____
ROOT
ATOM      1  C   UNL     1      45.484   5.928  13.030  0.00  0.00    +0.000 A 
ATOM      2  C   UNL     1      45.601   7.235  12.541  0.00  0.00    +0.000 A 
ATOM      3  C   UNL     1      46.816   7.918  12.615  0.00  0.00    +0.000 A 
ATOM      4  C   UNL     1      47.940   7.310  13.187  0.00  0.00    +0.000 A 
ATOM      5  C   UNL     1      47.810   6.020  13.720  0.00  0.00    +0.000 A 
ATOM      6  C   UNL     1      46.597   5.331  13.632  0.00  0.00    +0.000 A 
ENDROOT
BRANCH   1   7
ATOM      7  C   UNL     1      44.176   5.179  12.903  0.00  0.00    +0.000 C 
BRANCH   7   8
ATOM      8  C   UNL     1      43.703   4.945  11.450  0.00  0.00    +0.000 C 
BRANCH   8   9
ATOM      9  C   UNL     1      44.643   3.920  10.771  0.00  0.00    +0.000 C 
ATOM     10  O   UNL     1      45.265   3.074  11.409  0.00  0.00    +0.000 OA
ATOM     11  N   UNL     1      44.749   4.107   9.407  0.00  0.00    +0.000 N 
ATOM     12  C   UNL     1      45.549   3.322   8.583  0.00  0.00    +0.000 A 
ATOM     13  C   UNL     1      45.572   1.936   8.705  0.00  0.00    +0.000 A 
ATOM     14  C   UNL     1      46.408   1.205   7.868  0.00  0.00    +0.000 A 
ATOM     15  C   UNL     1      47.224   1.882   6.971  0.00  0.00    +0.000 A 
ATOM     16  C   UNL     1      47.118   3.262   6.907  0.00  0.00    +0.000 A 
ATOM     17  N   UNL     1      46.264   3.992   7.658  0.00  0.00    +0.000 NA
ATOM     18  H   UNL     1      44.530   5.030   9.055  0.00  0.00    +0.000 HD
ENDBRANCH   8   9
BRANCH   8  19
ATOM     19  N   UNL     1      42.309   4.450  11.342  0.00  0.00    +0.000 NA
ATOM     20  H   UNL     1      41.679   5.253  11.302  0.00  0.00    +0.000 HD
ATOM     21  H   UNL     1      42.071   3.956  12.204  0.00  0.00    +0.000 HD
ENDBRANCH   8  19
ENDBRANCH   7   8
ENDBRANCH   1   7
BRANCH   4  22
ATOM     22  C   UNL     1      49.253   8.043  13.268  0.00  0.00    +0.000 C 
BRANCH  22  23
ATOM     23  N   UNL     1      50.192   7.338  14.102  0.00  0.00    +0.000 N 
ATOM     24  C   UNL     1      51.129   8.011  14.841  0.00  0.00    +0.000 C 
ATOM     25  O   UNL     1      51.176   9.239  14.868  0.00  0.00    +0.000 OA
ATOM     26  H   UNL     1      50.308   6.345  13.928  0.00  0.00    +0.000 HD
BRANCH  24  27
ATOM     27  C   UNL     1      52.043   7.194  15.649  0.00  0.00    +0.000 A 
ATOM     28  C   UNL     1      53.415   7.327  15.477  0.00  0.00    +0.000 A 
ATOM     29  S   UNL     1      54.333   6.348  16.529  0.00  0.00    +0.000 S 
ATOM     30  C   UNL     1      52.931   5.671  17.215  0.00  0.00    +0.000 A 
ATOM     31  N   UNL     1      53.014   4.720  18.182  0.00  0.00    +0.000 NA
ATOM     32  C   UNL     1      51.877   4.276  18.600  0.00  0.00    +0.000 A 
ATOM     33  N   UNL     1      50.656   4.704  18.138  0.00  0.00    +0.000 N 
ATOM     34  C   UNL     1      50.523   5.675  17.173  0.00  0.00    +0.000 A 
ATOM     35  O   UNL     1      49.422   6.051  16.801  0.00  0.00    +0.000 OA
ATOM     36  C   UNL     1      51.775   6.202  16.663  0.00  0.00    +0.000 A 
ATOM     37  H   UNL     1      49.802   4.317  18.507  0.00  0.00    +0.000 HD
ENDBRANCH  24  27
ENDBRANCH  22  23
ENDBRANCH   4  22
TORSDOF 7
ENDMDL
MODEL 6
REMARK VINA RESULT:    -7.909      2.447      3.224
REMARK INTER + INTRA:         -11.754
REMARK INTER:                 -10.725
REMARK INTRA:                  -1.028
REMARK UNBOUND:                -0.839
REMARK  Name = 
REMARK  7 active torsions:
REMARK  status: ('A' for Active; 'I' for Inactive)
REMARK    1  A    between atoms: N_1  and  C_2
REMARK    2  A    between atoms: C_2  and  C_3
REMARK    3  A    between atoms: C_2  and  C_24
REMARK    4  A    between atoms: C_3  and  C_4
REMARK    5  A    between atoms: C_7  and  C_8
REMARK    6  A    between atoms: C_8  and  N_9
REMARK    7  A    between atoms: C_10  and  C_12
REMARK                            x       y       z     vdW  Elec       q    Type
REMARK                         _______ _______ _______ _____ _____    ______ ____
ROOT
ATOM      1  C   UNL     1      45.710   4.651  12.805  0.00  0.00    +0.000 A 
ATOM      2  C   UNL     1      44.951   5.810  12.604  0.00  0.00    +0.000 A 
ATOM      3  C   UNL     1      45.497   7.071  12.852  0.00  0.00    +0.000 A 
ATOM      4  C   UNL     1      46.812   7.199  13.313  0.00  0.00    +0.000 A 
ATOM      5  C   UNL     1      47.556   6.037  13.559  0.00  0.00    +0.000 A 
ATOM      6  C   UNL     1      47.015   4.775  13.297  0.00  0.00    +0.000 A 
ENDROOT
BRANCH   1   7
ATOM      7  C   UNL     1      45.127   3.291  12.490  0.00  0.00    +0.000 C 
BRANCH   7   8
ATOM      8  C   UNL     1      43.896   3.316  11.555  0.00  0.00    +0.000 C 
BRANCH   8   9
ATOM      9  C   UNL     1      44.378   3.375  10.085  0.00  0.00    +0.000 C 
ATOM     10  O   UNL     1      43.817   4.064   9.236  0.00  0.00    +0.000 OA
ATOM     11  N   UNL     1      45.444   2.534   9.834  0.00  0.00    +0.000 N 
ATOM     12  C   UNL     1      46.039   2.400   8.583  0.00  0.00    +0.000 A 
ATOM     13  C   UNL     1      46.334   3.512   7.801  0.00  0.00    +0.000 A 
ATOM     14  C   UNL     1      46.909   3.315   6.550  0.00  0.00    +0.000 A 
ATOM     15  C   UNL     1      47.129   2.018   6.105  0.00  0.00    +0.000 A 
ATOM     16  C   UNL     1      46.821   0.974   6.962  0.00  0.00    +0.000 A 
ATOM     17  N   UNL     1      46.327   1.139   8.209  0.00  0.00    +0.000 NA
ATOM     18  H   UNL     1      45.565   1.751  10.463  0.00  0.00    +0.000 HD
ENDBRANCH   8   9
BRANCH   8  19
ATOM     19  N   UNL     1      42.997   2.146  11.710  0.00  0.00    +0.000 NA
ATOM     20  H   UNL     1      42.312   2.355  12.438  0.00  0.00    +0.000 HD
ATOM     21  H   UNL     1      43.544   1.360  12.064  0.00  0.00    +0.000 HD
ENDBRANCH   8  19
ENDBRANCH   7   8
ENDBRANCH   1   7
BRANCH   4  22
ATOM     22  C   UNL     1      47.405   8.558  13.579  0.00  0.00    +0.000 C 
BRANCH  22  23
ATOM     23  N   UNL     1      48.681   8.449  14.237  0.00  0.00    +0.000 N 
ATOM     24  C   UNL     1      48.856   8.887  15.523  0.00  0.00    +0.000 C 
ATOM     25  O   UNL     1      47.926   9.338  16.189  0.00  0.00    +0.000 OA
ATOM     26  H   UNL     1      49.491   8.287  13.647  0.00  0.00    +0.000 HD
BRANCH  24  27
ATOM     27  C   UNL     1      50.201   8.737  16.094  0.00  0.00    +0.000 A 
ATOM     28  C   UNL     1      51.014   9.854  16.232  0.00  0.00    +0.000 A 
ATOM     29  S   UNL     1      52.519   9.517  16.960  0.00  0.00    +0.000 S 
ATOM     30  C   UNL     1      52.160   7.858  17.068  0.00  0.00    +0.000 A 
ATOM     31  N   UNL     1      53.058   6.978  17.583  0.00  0.00    +0.000 NA
ATOM     32  C   UNL     1      52.669   5.749  17.586  0.00  0.00    +0.000 A 
ATOM     33  N   UNL     1      51.450   5.317  17.121  0.00  0.00    +0.000 N 
ATOM     34  C   UNL     1      50.503   6.170  16.607  0.00  0.00    +0.000 A 
ATOM     35  O   UNL     1      49.419   5.758  16.225  0.00  0.00    +0.000 OA
ATOM     36  C   UNL     1      50.897   7.567  16.574  0.00  0.00    +0.000 A 
ATOM     37  H   UNL     1      51.205   4.340  17.152  0.00  0.00    +0.000 HD
ENDBRANCH  24  27
ENDBRANCH  22  23
ENDBRANCH   4  22
TORSDOF 7
ENDMDL
MODEL 7
REMARK VINA RESULT:    -7.566      2.440      3.245
REMARK INTER + INTRA:         -11.280
REMARK INTER:                 -10.427
REMARK INTRA:                  -0.853
REMARK UNBOUND:                -0.839
REMARK  Name = 
REMARK  7 active torsions:
REMARK  status: ('A' for Active; 'I' for Inactive)
REMARK    1  A    between atoms: N_1  and  C_2
REMARK    2  A    between atoms: C_2  and  C_3
REMARK    3  A    between atoms: C_2  and  C_24
REMARK    4  A    between atoms: C_3  and  C_4
REMARK    5  A    between atoms: C_7  and  C_8
REMARK    6  A    between atoms: C_8  and  N_9
REMARK    7  A    between atoms: C_10  and  C_12
REMARK                            x       y       z     vdW  Elec       q    Type
REMARK                         _______ _______ _______ _____ _____    ______ ____
ROOT
ATOM      1  C   UNL     1      47.696   7.815  13.414  0.00  0.00    +0.000 A 
ATOM      2  C   UNL     1      47.742   8.999  14.160  0.00  0.00    +0.000 A 
ATOM      3  C   UNL     1      48.274   9.007  15.451  0.00  0.00    +0.000 A 
ATOM      4  C   UNL     1      48.765   7.829  16.026  0.00  0.00    +0.000 A 
ATOM      5  C   UNL     1      48.675   6.635  15.297  0.00  0.00    +0.000 A 
ATOM      6  C   UNL     1      48.156   6.630  13.999  0.00  0.00    +0.000 A 
ENDROOT
BRANCH   1   7
ATOM      7  C   UNL     1      47.161   7.824  11.999  0.00  0.00    +0.000 C 
BRANCH   7   8
ATOM      8  C   UNL     1      45.704   7.326  11.855  0.00  0.00    +0.000 C 
BRANCH   8   9
ATOM      9  C   UNL     1      45.715   5.888  11.282  0.00  0.00    +0.000 C 
ATOM     10  O   UNL     1      45.889   4.899  11.991  0.00  0.00    +0.000 OA
ATOM     11  N   UNL     1      45.575   5.854   9.909  0.00  0.00    +0.000 N 
ATOM     12  C   UNL     1      45.574   4.679   9.165  0.00  0.00    +0.000 A 
ATOM     13  C   UNL     1      44.846   3.565   9.574  0.00  0.00    +0.000 A 
ATOM     14  C   UNL     1      44.901   2.410   8.801  0.00  0.00    +0.000 A 
ATOM     15  C   UNL     1      45.711   2.391   7.673  0.00  0.00    +0.000 A 
ATOM     16  C   UNL     1      46.382   3.555   7.333  0.00  0.00    +0.000 A 
ATOM     17  N   UNL     1      46.292   4.711   8.026  0.00  0.00    +0.000 NA
ATOM     18  H   UNL     1      45.832   6.693   9.404  0.00  0.00    +0.000 HD
ENDBRANCH   8   9
BRANCH   8  19
ATOM     19  N   UNL     1      44.940   7.322  13.127  0.00  0.00    +0.000 NA
ATOM     20  H   UNL     1      45.407   7.941  13.791  0.00  0.00    +0.000 HD
ATOM     21  H   UNL     1      44.995   6.387  13.536  0.00  0.00    +0.000 HD
ENDBRANCH   8  19
ENDBRANCH   7   8
ENDBRANCH   1   7
BRANCH   4  22
ATOM     22  C   UNL     1      49.341   7.834  17.418  0.00  0.00    +0.000 C 
BRANCH  22  23
ATOM     23  N   UNL     1      50.354   6.821  17.566  0.00  0.00    +0.000 N 
ATOM     24  C   UNL     1      50.260   5.861  18.537  0.00  0.00    +0.000 C 
ATOM     25  O   UNL     1      49.288   5.786  19.286  0.00  0.00    +0.000 OA
ATOM     26  H   UNL     1      51.246   6.993  17.113  0.00  0.00    +0.000 HD
BRANCH  24  27
ATOM     27  C   UNL     1      51.354   4.883  18.606  0.00  0.00    +0.000 A 
ATOM     28  C   UNL     1      52.540   5.225  19.240  0.00  0.00    +0.000 A 
ATOM     29  S   UNL     1      53.684   3.961  19.280  0.00  0.00    +0.000 S 
ATOM     30  C   UNL     1      52.655   2.927  18.403  0.00  0.00    +0.000 A 
ATOM     31  N   UNL     1      53.046   1.670  18.067  0.00  0.00    +0.000 NA
ATOM     32  C   UNL     1      52.180   1.000  17.385  0.00  0.00    +0.000 A 
ATOM     33  N   UNL     1      50.947   1.477  17.010  0.00  0.00    +0.000 N 
ATOM     34  C   UNL     1      50.502   2.734  17.341  0.00  0.00    +0.000 A 
ATOM     35  O   UNL     1      49.390   3.119  17.014  0.00  0.00    +0.000 OA
ATOM     36  C   UNL     1      51.444   3.532  18.103  0.00  0.00    +0.000 A 
ATOM     37  H   UNL     1      50.315   0.901  16.477  0.00  0.00    +0.000 HD
ENDBRANCH  24  27
ENDBRANCH  22  23
ENDBRANCH   4  22
TORSDOF 7
ENDMDL
MODEL 8
REMARK VINA RESULT:    -7.261      2.906      8.108
REMARK INTER + INTRA:         -10.859
REMARK INTER:                  -9.738
REMARK INTRA:                  -1.121
REMARK UNBOUND:                -0.839
REMARK  Name = 
REMARK  7 active torsions:
REMARK  status: ('A' for Active; 'I' for Inactive)
REMARK    1  A    between atoms: N_1  and  C_2
REMARK    2  A    between atoms: C_2  and  C_3
REMARK    3  A    between atoms: C_2  and  C_24
REMARK    4  A    between atoms: C_3  and  C_4
REMARK    5  A    between atoms: C_7  and  C_8
REMARK    6  A    between atoms: C_8  and  N_9
REMARK    7  A    between atoms: C_10  and  C_12
REMARK                            x       y       z     vdW  Elec       q    Type
REMARK                         _______ _______ _______ _____ _____    ______ ____
ROOT
ATOM      1  C   UNL     1      49.515   8.201  15.736  0.00  0.00    +0.000 A 
ATOM      2  C   UNL     1      50.131   7.484  14.702  0.00  0.00    +0.000 A 
ATOM      3  C   UNL     1      49.541   7.408  13.439  0.00  0.00    +0.000 A 
ATOM      4  C   UNL     1      48.319   8.041  13.184  0.00  0.00    +0.000 A 
ATOM      5  C   UNL     1      47.679   8.717  14.232  0.00  0.00    +0.000 A 
ATOM      6  C   UNL     1      48.277   8.807  15.493  0.00  0.00    +0.000 A 
ENDROOT
BRANCH   1   7
ATOM      7  C   UNL     1      50.182   8.318  17.088  0.00  0.00    +0.000 C 
BRANCH   7   8
ATOM      8  C   UNL     1      49.331   7.813  18.276  0.00  0.00    +0.000 C 
BRANCH   8   9
ATOM      9  C   UNL     1      49.292   6.265  18.248  0.00  0.00    +0.000 C 
ATOM     10  O   UNL     1      48.380   5.620  18.761  0.00  0.00    +0.000 OA
ATOM     11  N   UNL     1      50.407   5.709  17.652  0.00  0.00    +0.000 N 
ATOM     12  C   UNL     1      50.608   4.339  17.526  0.00  0.00    +0.000 A 
ATOM     13  C   UNL     1      49.584   3.493  17.109  0.00  0.00    +0.000 A 
ATOM     14  C   UNL     1      49.837   2.129  17.023  0.00  0.00    +0.000 A 
ATOM     15  C   UNL     1      51.087   1.649  17.396  0.00  0.00    +0.000 A 
ATOM     16  C   UNL     1      52.050   2.569  17.779  0.00  0.00    +0.000 A 
ATOM     17  N   UNL     1      51.853   3.906  17.805  0.00  0.00    +0.000 NA
ATOM     18  H   UNL     1      51.243   6.279  17.628  0.00  0.00    +0.000 HD
ENDBRANCH   8   9
BRANCH   8  19
ATOM     19  N   UNL     1      49.828   8.249  19.604  0.00  0.00    +0.000 NA
ATOM     20  H   UNL     1      50.388   7.496  20.005  0.00  0.00    +0.000 HD
ATOM     21  H   UNL     1      49.029   8.362  20.229  0.00  0.00    +0.000 HD
ENDBRANCH   8  19
ENDBRANCH   7   8
ENDBRANCH   1   7
BRANCH   4  22
ATOM     22  C   UNL     1      47.681   7.962  11.822  0.00  0.00    +0.000 C 
BRANCH  22  23
ATOM     23  N   UNL     1      46.978   6.717  11.648  0.00  0.00    +0.000 N 
ATOM     24  C   UNL     1      45.618   6.643  11.798  0.00  0.00    +0.000 C 
ATOM     25  O   UNL     1      44.935   7.637  12.032  0.00  0.00    +0.000 OA
ATOM     26  H   UNL     1      47.533   5.868  11.671  0.00  0.00    +0.000 HD
BRANCH  24  27
ATOM     27  C   UNL     1      45.005   5.322  11.608  0.00  0.00    +0.000 A 
ATOM     28  C   UNL     1      44.326   4.724  12.661  0.00  0.00    +0.000 A 
ATOM     29  S   UNL     1      43.628   3.222  12.259  0.00  0.00    +0.000 S 
ATOM     30  C   UNL     1      44.253   3.291  10.678  0.00  0.00    +0.000 A 
ATOM     31  N   UNL     1      44.041   2.279   9.796  0.00  0.00    +0.000 NA
ATOM     32  C   UNL     1      44.588   2.448   8.640  0.00  0.00    +0.000 A 
ATOM     33  N   UNL     1      45.329   3.548   8.282  0.00  0.00    +0.000 N 
ATOM     34  C   UNL     1      45.556   4.603   9.134  0.00  0.00    +0.000 A 
ATOM     35  O   UNL     1      46.198   5.578   8.777  0.00  0.00    +0.000 OA
ATOM     36  C   UNL     1      44.968   4.457  10.452  0.00  0.00    +0.000 A 
ATOM     37  H   UNL     1      45.730   3.620   7.360  0.00  0.00    +0.000 HD
ENDBRANCH  24  27
ENDBRANCH  22  23
ENDBRANCH   4  22
TORSDOF 7
ENDMDL
MODEL 9
REMARK VINA RESULT:    -7.144      2.785      8.022
REMARK INTER + INTRA:         -10.698
REMARK INTER:                  -9.545
REMARK INTRA:                  -1.153
REMARK UNBOUND:                -0.839
REMARK  Name = 
REMARK  7 active torsions:
REMARK  status: ('A' for Active; 'I' for Inactive)
REMARK    1  A    between atoms: N_1  and  C_2
REMARK    2  A    between atoms: C_2  and  C_3
REMARK    3  A    between atoms: C_2  and  C_24
REMARK    4  A    between atoms: C_3  and  C_4
REMARK    5  A    between atoms: C_7  and  C_8
REMARK    6  A    between atoms: C_8  and  N_9
REMARK    7  A    between atoms: C_10  and  C_12
REMARK                            x       y       z     vdW  Elec       q    Type
REMARK                         _______ _______ _______ _____ _____    ______ ____
ROOT
ATOM      1  C   UNL     1      50.138   8.519  13.952  0.00  0.00    +0.000 A 
ATOM      2  C   UNL     1      49.107   9.425  14.230  0.00  0.00    +0.000 A 
ATOM      3  C   UNL     1      47.888   9.347  13.554  0.00  0.00    +0.000 A 
ATOM      4  C   UNL     1      47.677   8.365  12.579  0.00  0.00    +0.000 A 
ATOM      5  C   UNL     1      48.726   7.489  12.266  0.00  0.00    +0.000 A 
ATOM      6  C   UNL     1      49.941   7.558  12.954  0.00  0.00    +0.000 A 
ENDROOT
BRANCH   1   7
ATOM      7  C   UNL     1      51.439   8.581  14.722  0.00  0.00    +0.000 C 
BRANCH   7   8
ATOM      8  C   UNL     1      51.302   8.339  16.243  0.00  0.00    +0.000 C 
BRANCH   8   9
ATOM      9  C   UNL     1      50.949   6.851  16.488  0.00  0.00    +0.000 C 
ATOM     10  O   UNL     1      51.809   5.976  16.573  0.00  0.00    +0.000 OA
ATOM     11  N   UNL     1      49.588   6.620  16.534  0.00  0.00    +0.000 N 
ATOM     12  C   UNL     1      49.028   5.361  16.724  0.00  0.00    +0.000 A 
ATOM     13  C   UNL     1      49.519   4.491  17.693  0.00  0.00    +0.000 A 
ATOM     14  C   UNL     1      48.933   3.237  17.823  0.00  0.00    +0.000 A 
ATOM     15  C   UNL     1      47.909   2.877  16.956  0.00  0.00    +0.000 A 
ATOM     16  C   UNL     1      47.473   3.818  16.036  0.00  0.00    +0.000 A 
ATOM     17  N   UNL     1      47.977   5.068  15.935  0.00  0.00    +0.000 NA
ATOM     18  H   UNL     1      48.995   7.299  16.073  0.00  0.00    +0.000 HD
ENDBRANCH   8   9
BRANCH   8  19
ATOM     19  N   UNL     1      52.522   8.668  17.019  0.00  0.00    +0.000 NA
ATOM     20  H   UNL     1      53.330   8.267  16.542  0.00  0.00    +0.000 HD
ATOM     21  H   UNL     1      52.471   8.194  17.922  0.00  0.00    +0.000 HD
ENDBRANCH   8  19
ENDBRANCH   7   8
ENDBRANCH   1   7
BRANCH   4  22
ATOM     22  C   UNL     1      46.363   8.277  11.848  0.00  0.00    +0.000 C 
BRANCH  22  23
ATOM     23  N   UNL     1      45.990   6.907  11.611  0.00  0.00    +0.000 N 
ATOM     24  C   UNL     1      44.684   6.553  11.398  0.00  0.00    +0.000 C 
ATOM     25  O   UNL     1      43.785   7.389  11.346  0.00  0.00    +0.000 OA
ATOM     26  H   UNL     1      46.669   6.195  11.861  0.00  0.00    +0.000 HD
BRANCH  24  27
ATOM     27  C   UNL     1      44.414   5.127  11.177  0.00  0.00    +0.000 A 
ATOM     28  C   UNL     1      43.656   4.422  12.101  0.00  0.00    +0.000 A 
ATOM     29  S   UNL     1      43.390   2.794  11.668  0.00  0.00    +0.000 S 
ATOM     30  C   UNL     1      44.324   2.958  10.255  0.00  0.00    +0.000 A 
ATOM     31  N   UNL     1      44.528   1.904   9.424  0.00  0.00    +0.000 NA
ATOM     32  C   UNL     1      45.272   2.159   8.401  0.00  0.00    +0.000 A 
ATOM     33  N   UNL     1      45.831   3.384   8.132  0.00  0.00    +0.000 N 
ATOM     34  C   UNL     1      45.641   4.484   8.935  0.00  0.00    +0.000 A 
ATOM     35  O   UNL     1      46.131   5.566   8.654  0.00  0.00    +0.000 OA
ATOM     36  C   UNL     1      44.815   4.247  10.105  0.00  0.00    +0.000 A 
ATOM     37  H   UNL     1      46.404   3.519   7.314  0.00  0.00    +0.000 HD
ENDBRANCH  24  27
ENDBRANCH  22  23
ENDBRANCH   4  22
TORSDOF 7
ENDMDL
