MODEL 1
REMARK VINA RESULT:    -8.500      0.000      0.000
REMARK INTER + INTRA:         -13.708
REMARK INTER:                 -12.723
REMARK INTRA:                  -0.985
REMARK UNBOUND:                -0.985
REMARK  Name = 
REMARK  9 active torsions:
REMARK  status: ('A' for Active; 'I' for Inactive)
REMARK    1  A    between atoms: N_1  and  C_2
REMARK    2  A    between atoms: C_2  and  C_3
REMARK    3  A    between atoms: C_3  and  C_4
REMARK    4  A    between atoms: C_4  and  N_5
REMARK    5  A    between atoms: C_4  and  C_18
REMARK    6  A    between atoms: C_6  and  C_8
REMARK    7  A    between atoms: C_21  and  O_22
REMARK    8  A    between atoms: O_22  and  C_23
REMARK    9  A    between atoms: C_23  and  C_24
REMARK                            x       y       z     vdW  Elec       q    Type
REMARK                         _______ _______ _______ _____ _____    ______ ____
ROOT
ATOM      1  C   UNL     1      46.655   7.875  12.853  0.00  0.00    +0.000 C 
ENDROOT
BRANCH   1   2
ATOM      2  C   UNL     1      46.002   6.744  12.071  0.00  0.00    +0.000 A 
ATOM      3  C   UNL     1      45.005   5.933  12.632  0.00  0.00    +0.000 A 
ATOM      4  C   UNL     1      44.411   4.919  11.871  0.00  0.00    +0.000 A 
ATOM      5  C   UNL     1      44.797   4.720  10.544  0.00  0.00    +0.000 A 
ATOM      6  C   UNL     1      45.834   5.478  10.007  0.00  0.00    +0.000 A 
ATOM      7  C   UNL     1      46.417   6.489  10.755  0.00  0.00    +0.000 A 
BRANCH   5   8
ATOM      8  O   UNL     1      44.100   3.780   9.831  0.00  0.00    +0.000 OA
BRANCH   8   9
ATOM      9  C   UNL     1      44.741   2.494   9.785  0.00  0.00    +0.000 C 
BRANCH   9  10
ATOM     10  C   UNL     1      45.573   2.333   8.539  0.00  0.00    +0.000 A 
ATOM     11  C   UNL     1      45.588   3.314   7.560  0.00  0.00    +0.000 A 
ATOM     12  C   UNL     1      46.385   3.129   6.434  0.00  0.00    +0.000 A 
ATOM     13  C   UNL     1      47.128   1.959   6.314  0.00  0.00    +0.000 A 
ATOM     14  C   UNL     1      47.035   1.016   7.320  0.00  0.00    +0.000 A 
ATOM     15  N   UNL     1      46.275   1.175   8.422  0.00  0.00    +0.000 NA
ENDBRANCH   9  10
ENDBRANCH   8   9
ENDBRANCH   5   8
ENDBRANCH   1   2
BRANCH   1  16
ATOM     16  N   UNL     1      47.148   7.309  14.109  0.00  0.00    +0.000 N 
ATOM     17  C   UNL     1      48.389   6.729  14.243  0.00  0.00    +0.000 C 
ATOM     18  O   UNL     1      49.183   6.632  13.323  0.00  0.00    +0.000 OA
ATOM     19  H   UNL     1      46.458   7.082  14.810  0.00  0.00    +0.000 HD
BRANCH  17  20
ATOM     20  C   UNL     1      48.706   6.286  15.602  0.00  0.00    +0.000 A 
ATOM     21  C   UNL     1      49.610   6.933  16.431  0.00  0.00    +0.000 A 
ATOM     22  S   UNL     1      49.881   6.108  17.904  0.00  0.00    +0.000 S 
ATOM     23  C   UNL     1      48.808   4.860  17.469  0.00  0.00    +0.000 A 
ATOM     24  N   UNL     1      48.600   3.793  18.284  0.00  0.00    +0.000 NA
ATOM     25  C   UNL     1      47.779   2.917  17.808  0.00  0.00    +0.000 A 
ATOM     26  N   UNL     1      47.134   3.020  16.602  0.00  0.00    +0.000 N 
ATOM     27  C   UNL     1      47.230   4.128  15.793  0.00  0.00    +0.000 A 
ATOM     28  O   UNL     1      46.476   4.275  14.837  0.00  0.00    +0.000 OA
ATOM     29  C   UNL     1      48.218   5.094  16.241  0.00  0.00    +0.000 A 
ATOM     30  H   UNL     1      46.451   2.333  16.319  0.00  0.00    +0.000 HD
ENDBRANCH  17  20
ENDBRANCH   1  16
BRANCH   1  31
ATOM     31  C   UNL     1      45.649   9.033  13.073  0.00  0.00    +0.000 C 
BRANCH  31  32
ATOM     32  C   UNL     1      45.403   9.844  11.799  0.00  0.00    +0.000 C 
BRANCH  32  33
ATOM     33  N   UNL     1      44.904  11.176  12.127  0.00  0.00    +0.000 NA
ATOM     34  H   UNL     1      45.494  11.588  12.848  0.00  0.00    +0.000 HD
ATOM     35  H   UNL     1      43.970  11.100  12.531  0.00  0.00    +0.000 HD
ENDBRANCH  32  33
ENDBRANCH  31  32
ENDBRANCH   1  31
TORSDOF 9
ENDMDL
MODEL 2
REMARK VINA RESULT:    -8.246      1.875      2.558
REMARK INTER + INTRA:         -13.328
REMARK INTER:                 -11.624
REMARK INTRA:                  -1.704
REMARK UNBOUND:                -0.985
REMARK  Name = 
REMARK  9 active torsions:
REMARK  status: ('A' for Active; 'I' for Inactive)
REMARK    1  A    between atoms: N_1  and  C_2
REMARK    2  A    between atoms: C_2  and  C_3
REMARK    3  A    between atoms: C_3  and  C_4
REMARK    4  A    between atoms: C_4  and  N_5
REMARK    5  A    between atoms: C_4  and  C_18
REMARK    6  A    between atoms: C_6  and  C_8
REMARK    7  A    between atoms: C_21  and  O_22
REMARK    8  A    between atoms: O_22  and  C_23
REMARK    9  A    between atoms: C_23  and  C_24
REMARK                            x       y       z     vdW  Elec       q    Type
REMARK                         _______ _______ _______ _____ _____    ______ ____
ROOT
ATOM      1  C   UNL     1      47.400   6.855  13.363  0.00  0.00    +0.000 C 
ENDROOT
BRANCH   1   2
ATOM      2  C   UNL     1      46.486   6.011  12.485  0.00  0.00    +0.000 A 
ATOM      3  C   UNL     1      46.034   6.461  11.236  0.00  0.00    +0.000 A 
ATOM      4  C   UNL     1      45.215   5.644  10.448  0.00  0.00    +0.000 A 
ATOM      5  C   UNL     1      44.856   4.370  10.894  0.00  0.00    +0.000 A 
ATOM      6  C   UNL     1      45.246   3.949  12.162  0.00  0.00    +0.000 A 
ATOM      7  C   UNL     1      46.066   4.752  12.941  0.00  0.00    +0.000 A 
BRANCH   5   8
ATOM      8  O   UNL     1      44.141   3.589  10.025  0.00  0.00    +0.000 OA
BRANCH   8   9
ATOM      9  C   UNL     1      44.725   2.296   9.790  0.00  0.00    +0.000 C 
BRANCH   9  10
ATOM     10  C   UNL     1      45.573   2.289   8.545  0.00  0.00    +0.000 A 
ATOM     11  C   UNL     1      45.562   3.363   7.669  0.00  0.00    +0.000 A 
ATOM     12  C   UNL     1      46.375   3.318   6.539  0.00  0.00    +0.000 A 
ATOM     13  C   UNL     1      47.158   2.191   6.312  0.00  0.00    +0.000 A 
ATOM     14  C   UNL     1      47.089   1.149   7.217  0.00  0.00    +0.000 A 
ATOM     15  N   UNL     1      46.314   1.172   8.321  0.00  0.00    +0.000 NA
ENDBRANCH   9  10
ENDBRANCH   8   9
ENDBRANCH   5   8
ENDBRANCH   1   2
BRANCH   1  16
ATOM     16  N   UNL     1      47.510   6.177  14.655  0.00  0.00    +0.000 N 
ATOM     17  C   UNL     1      48.667   6.148  15.399  0.00  0.00    +0.000 C 
ATOM     18  O   UNL     1      49.704   6.683  15.042  0.00  0.00    +0.000 OA
ATOM     19  H   UNL     1      46.813   5.477  14.865  0.00  0.00    +0.000 HD
BRANCH  17  20
ATOM     20  C   UNL     1      48.540   5.471  16.691  0.00  0.00    +0.000 A 
ATOM     21  C   UNL     1      48.555   4.093  16.842  0.00  0.00    +0.000 A 
ATOM     22  S   UNL     1      48.246   3.589  18.446  0.00  0.00    +0.000 S 
ATOM     23  C   UNL     1      48.071   5.197  18.979  0.00  0.00    +0.000 A 
ATOM     24  N   UNL     1      47.756   5.482  20.269  0.00  0.00    +0.000 NA
ATOM     25  C   UNL     1      47.633   6.744  20.516  0.00  0.00    +0.000 A 
ATOM     26  N   UNL     1      47.815   7.744  19.597  0.00  0.00    +0.000 N 
ATOM     27  C   UNL     1      48.237   7.511  18.309  0.00  0.00    +0.000 A 
ATOM     28  O   UNL     1      48.595   8.436  17.588  0.00  0.00    +0.000 OA
ATOM     29  C   UNL     1      48.293   6.103  17.959  0.00  0.00    +0.000 A 
ATOM     30  H   UNL     1      47.771   8.715  19.871  0.00  0.00    +0.000 HD
ENDBRANCH  17  20
ENDBRANCH   1  16
BRANCH   1  31
ATOM     31  C   UNL     1      46.849   8.297  13.489  0.00  0.00    +0.000 C 
BRANCH  31  32
ATOM     32  C   UNL     1      47.962   9.341  13.592  0.00  0.00    +0.000 C 
BRANCH  32  33
ATOM     33  N   UNL     1      48.290   9.607  14.989  0.00  0.00    +0.000 NA
ATOM     34  H   UNL     1      48.662  10.552  15.073  0.00  0.00    +0.000 HD
ATOM     35  H   UNL     1      49.035   8.979  15.291  0.00  0.00    +0.000 HD
ENDBRANCH  32  33
ENDBRANCH  31  32
ENDBRANCH   1  31
TORSDOF 9
ENDMDL
MODEL 3
REMARK VINA RESULT:    -8.176      2.114      2.702
REMARK INTER + INTRA:         -13.224
REMARK INTER:                 -11.612
REMARK INTRA:                  -1.612
REMARK UNBOUND:                -0.985
REMARK  Name = 
REMARK  9 active torsions:
REMARK  status: ('A' for Active; 'I' for Inactive)
REMARK    1  A    between atoms: N_1  and  C_2
REMARK    2  A    between atoms: C_2  and  C_3
REMARK    3  A    between atoms: C_3  and  C_4
REMARK    4  A    between atoms: C_4  and  N_5
REMARK    5  A    between atoms: C_4  and  C_18
REMARK    6  A    between atoms: C_6  and  C_8
REMARK    7  A    between atoms: C_21  and  O_22
REMARK    8  A    between atoms: O_22  and  C_23
REMARK    9  A    between atoms: C_23  and  C_24
REMARK                            x       y       z     vdW  Elec       q    Type
REMARK                         _______ _______ _______ _____ _____    ______ ____
ROOT
ATOM      1  C   UNL     1      48.371   6.948  13.439  0.00  0.00    +0.000 C 
ENDROOT
BRANCH   1   2
ATOM      2  C   UNL     1      47.224   6.193  12.782  0.00  0.00    +0.000 A 
ATOM      3  C   UNL     1      46.572   6.681  11.639  0.00  0.00    +0.000 A 
ATOM      4  C   UNL     1      45.539   5.943  11.050  0.00  0.00    +0.000 A 
ATOM      5  C   UNL     1      45.162   4.710  11.587  0.00  0.00    +0.000 A 
ATOM      6  C   UNL     1      45.760   4.257  12.759  0.00  0.00    +0.000 A 
ATOM      7  C   UNL     1      46.791   4.980  13.339  0.00  0.00    +0.000 A 
BRANCH   5   8
ATOM      8  O   UNL     1      44.216   3.998  10.896  0.00  0.00    +0.000 OA
BRANCH   8   9
ATOM      9  C   UNL     1      44.170   4.304   9.492  0.00  0.00    +0.000 C 
BRANCH   9  10
ATOM     10  C   UNL     1      45.134   3.453   8.707  0.00  0.00    +0.000 A 
ATOM     11  C   UNL     1      45.274   2.100   8.977  0.00  0.00    +0.000 A 
ATOM     12  C   UNL     1      46.165   1.351   8.214  0.00  0.00    +0.000 A 
ATOM     13  C   UNL     1      46.902   1.982   7.217  0.00  0.00    +0.000 A 
ATOM     14  C   UNL     1      46.727   3.340   7.031  0.00  0.00    +0.000 A 
ATOM     15  N   UNL     1      45.866   4.086   7.753  0.00  0.00    +0.000 NA
ENDBRANCH   9  10
ENDBRANCH   8   9
ENDBRANCH   5   8
ENDBRANCH   1   2
BRANCH   1  16
ATOM     16  N   UNL     1      48.136   6.925  14.884  0.00  0.00    +0.000 N 
ATOM     17  C   UNL     1      49.141   6.778  15.812  0.00  0.00    +0.000 C 
ATOM     18  O   UNL     1      50.316   6.649  15.510  0.00  0.00    +0.000 OA
ATOM     19  H   UNL     1      47.196   6.723  15.190  0.00  0.00    +0.000 HD
BRANCH  17  20
ATOM     20  C   UNL     1      48.694   6.848  17.205  0.00  0.00    +0.000 A 
ATOM     21  C   UNL     1      48.279   8.018  17.822  0.00  0.00    +0.000 A 
ATOM     22  S   UNL     1      47.949   7.819  19.488  0.00  0.00    +0.000 S 
ATOM     23  C   UNL     1      48.363   6.168  19.432  0.00  0.00    +0.000 A 
ATOM     24  N   UNL     1      48.337   5.396  20.549  0.00  0.00    +0.000 NA
ATOM     25  C   UNL     1      48.700   4.172  20.354  0.00  0.00    +0.000 A 
ATOM     26  N   UNL     1      49.069   3.647  19.142  0.00  0.00    +0.000 N 
ATOM     27  C   UNL     1      49.010   4.359  17.967  0.00  0.00    +0.000 A 
ATOM     28  O   UNL     1      49.137   3.797  16.885  0.00  0.00    +0.000 OA
ATOM     29  C   UNL     1      48.702   5.766  18.152  0.00  0.00    +0.000 A 
ATOM     30  H   UNL     1      49.276   2.663  19.044  0.00  0.00    +0.000 HD
ENDBRANCH  17  20
ENDBRANCH   1  16
BRANCH   1  31
ATOM     31  C   UNL     1      48.468   8.386  12.872  0.00  0.00    +0.000 C 
BRANCH  31  32
ATOM     32  C   UNL     1      49.842   8.686  12.269  0.00  0.00    +0.000 C 
BRANCH  32  33
ATOM     33  N   UNL     1      50.851   7.787  12.822  0.00  0.00    +0.000 NA
ATOM     34  H   UNL     1      51.738   7.947  12.348  0.00  0.00    +0.000 HD
ATOM     35  H   UNL     1      50.592   6.820  12.627  0.00  0.00    +0.000 HD
ENDBRANCH  32  33
ENDBRANCH  31  32
ENDBRANCH   1  31
TORSDOF 9
ENDMDL
MODEL 4
REMARK VINA RESULT:    -7.851      2.459      4.803
REMARK INTER + INTRA:         -12.738
REMARK INTER:                 -11.295
REMARK INTRA:                  -1.443
REMARK UNBOUND:                -0.985
REMARK  Name = 
REMARK  9 active torsions:
REMARK  status: ('A' for Active; 'I' for Inactive)
REMARK    1  A    between atoms: N_1  and  C_2
REMARK    2  A    between atoms: C_2  and  C_3
REMARK    3  A    between atoms: C_3  and  C_4
REMARK    4  A    between atoms: C_4  and  N_5
REMARK    5  A    between atoms: C_4  and  C_18
REMARK    6  A    between atoms: C_6  and  C_8
REMARK    7  A    between atoms: C_21  and  O_22
REMARK    8  A    between atoms: O_22  and  C_23
REMARK    9  A    between atoms: C_23  and  C_24
REMARK                            x       y       z     vdW  Elec       q    Type
REMARK                         _______ _______ _______ _____ _____    ______ ____
ROOT
ATOM      1  C   UNL     1      47.094   5.396  14.466  0.00  0.00    +0.000 C 
ENDROOT
BRANCH   1   2
ATOM      2  C   UNL     1      46.302   4.976  13.236  0.00  0.00    +0.000 A 
ATOM      3  C   UNL     1      46.065   5.856  12.169  0.00  0.00    +0.000 A 
ATOM      4  C   UNL     1      45.353   5.422  11.045  0.00  0.00    +0.000 A 
ATOM      5  C   UNL     1      44.889   4.107  10.971  0.00  0.00    +0.000 A 
ATOM      6  C   UNL     1      45.063   3.254  12.057  0.00  0.00    +0.000 A 
ATOM      7  C   UNL     1      45.776   3.677  13.168  0.00  0.00    +0.000 A 
BRANCH   5   8
ATOM      8  O   UNL     1      44.293   3.727   9.798  0.00  0.00    +0.000 OA
BRANCH   8   9
ATOM      9  C   UNL     1      44.564   2.365   9.424  0.00  0.00    +0.000 C 
BRANCH   9  10
ATOM     10  C   UNL     1      45.608   2.284   8.341  0.00  0.00    +0.000 A 
ATOM     11  C   UNL     1      45.849   3.361   7.501  0.00  0.00    +0.000 A 
ATOM     12  C   UNL     1      46.834   3.245   6.525  0.00  0.00    +0.000 A 
ATOM     13  C   UNL     1      47.535   2.049   6.408  0.00  0.00    +0.000 A 
ATOM     14  C   UNL     1      47.214   1.012   7.263  0.00  0.00    +0.000 A 
ATOM     15  N   UNL     1      46.268   1.103   8.219  0.00  0.00    +0.000 NA
ENDBRANCH   9  10
ENDBRANCH   8   9
ENDBRANCH   5   8
ENDBRANCH   1   2
BRANCH   1  16
ATOM     16  N   UNL     1      48.215   6.216  14.004  0.00  0.00    +0.000 N 
ATOM     17  C   UNL     1      48.732   7.267  14.725  0.00  0.00    +0.000 C 
ATOM     18  O   UNL     1      48.297   7.610  15.812  0.00  0.00    +0.000 OA
ATOM     19  H   UNL     1      48.421   6.193  13.016  0.00  0.00    +0.000 HD
BRANCH  17  20
ATOM     20  C   UNL     1      49.894   7.911  14.108  0.00  0.00    +0.000 A 
ATOM     21  C   UNL     1      51.186   7.801  14.598  0.00  0.00    +0.000 A 
ATOM     22  S   UNL     1      52.311   8.774  13.755  0.00  0.00    +0.000 S 
ATOM     23  C   UNL     1      51.100   9.378  12.720  0.00  0.00    +0.000 A 
ATOM     24  N   UNL     1      51.384  10.303  11.767  0.00  0.00    +0.000 NA
ATOM     25  C   UNL     1      50.359  10.682  11.078  0.00  0.00    +0.000 A 
ATOM     26  N   UNL     1      49.084  10.209  11.243  0.00  0.00    +0.000 N 
ATOM     27  C   UNL     1      48.767   9.198  12.121  0.00  0.00    +0.000 A 
ATOM     28  O   UNL     1      47.668   8.656  12.085  0.00  0.00    +0.000 OA
ATOM     29  C   UNL     1      49.868   8.809  12.986  0.00  0.00    +0.000 A 
ATOM     30  H   UNL     1      48.339  10.497  10.625  0.00  0.00    +0.000 HD
ENDBRANCH  17  20
ENDBRANCH   1  16
BRANCH   1  31
ATOM     31  C   UNL     1      47.554   4.150  15.265  0.00  0.00    +0.000 C 
BRANCH  31  32
ATOM     32  C   UNL     1      47.407   4.339  16.776  0.00  0.00    +0.000 C 
BRANCH  32  33
ATOM     33  N   UNL     1      46.664   3.227  17.361  0.00  0.00    +0.000 NA
ATOM     34  H   UNL     1      46.385   2.583  16.622  0.00  0.00    +0.000 HD
ATOM     35  H   UNL     1      45.800   3.575  17.778  0.00  0.00    +0.000 HD
ENDBRANCH  32  33
ENDBRANCH  31  32
ENDBRANCH   1  31
TORSDOF 9
ENDMDL
MODEL 5
REMARK VINA RESULT:    -7.813      2.651      4.375
REMARK INTER + INTRA:         -12.681
REMARK INTER:                 -10.995
REMARK INTRA:                  -1.686
REMARK UNBOUND:                -0.985
REMARK  Name = 
REMARK  9 active torsions:
REMARK  status: ('A' for Active; 'I' for Inactive)
REMARK    1  A    between atoms: N_1  and  C_2
REMARK    2  A    between atoms: C_2  and  C_3
REMARK    3  A    between atoms: C_3  and  C_4
REMARK    4  A    between atoms: C_4  and  N_5
REMARK    5  A    between atoms: C_4  and  C_18
REMARK    6  A    between atoms: C_6  and  C_8
REMARK    7  A    between atoms: C_21  and  O_22
REMARK    8  A    between atoms: O_22  and  C_23
REMARK    9  A    between atoms: C_23  and  C_24
REMARK                            x       y       z     vdW  Elec       q    Type
REMARK                         _______ _______ _______ _____ _____    ______ ____
ROOT
ATOM      1  C   UNL     1      46.824   5.512  14.056  0.00  0.00    +0.000 C 
ENDROOT
BRANCH   1   2
ATOM      2  C   UNL     1      46.051   4.984  12.855  0.00  0.00    +0.000 A 
ATOM      3  C   UNL     1      45.830   5.766  11.712  0.00  0.00    +0.000 A 
ATOM      4  C   UNL     1      45.135   5.234  10.619  0.00  0.00    +0.000 A 
ATOM      5  C   UNL     1      44.672   3.917  10.655  0.00  0.00    +0.000 A 
ATOM      6  C   UNL     1      44.829   3.163  11.814  0.00  0.00    +0.000 A 
ATOM      7  C   UNL     1      45.526   3.684  12.894  0.00  0.00    +0.000 A 
BRANCH   5   8
ATOM      8  O   UNL     1      44.094   3.434   9.510  0.00  0.00    +0.000 OA
BRANCH   8   9
ATOM      9  C   UNL     1      44.528   2.109   9.157  0.00  0.00    +0.000 C 
BRANCH   9  10
ATOM     10  C   UNL     1      45.658   2.143   8.161  0.00  0.00    +0.000 A 
ATOM     11  C   UNL     1      45.860   3.248   7.348  0.00  0.00    +0.000 A 
ATOM     12  C   UNL     1      46.927   3.240   6.455  0.00  0.00    +0.000 A 
ATOM     13  C   UNL     1      47.748   2.119   6.389  0.00  0.00    +0.000 A 
ATOM     14  C   UNL     1      47.462   1.046   7.211  0.00  0.00    +0.000 A 
ATOM     15  N   UNL     1      46.438   1.033   8.089  0.00  0.00    +0.000 NA
ENDBRANCH   9  10
ENDBRANCH   8   9
ENDBRANCH   5   8
ENDBRANCH   1   2
BRANCH   1  16
ATOM     16  N   UNL     1      47.984   6.241  13.541  0.00  0.00    +0.000 N 
ATOM     17  C   UNL     1      48.040   7.613  13.456  0.00  0.00    +0.000 C 
ATOM     18  O   UNL     1      47.124   8.341  13.799  0.00  0.00    +0.000 OA
ATOM     19  H   UNL     1      48.635   5.719  12.972  0.00  0.00    +0.000 HD
BRANCH  17  20
ATOM     20  C   UNL     1      49.319   8.138  12.973  0.00  0.00    +0.000 A 
ATOM     21  C   UNL     1      49.511   8.642  11.696  0.00  0.00    +0.000 A 
ATOM     22  S   UNL     1      51.139   9.051  11.372  0.00  0.00    +0.000 S 
ATOM     23  C   UNL     1      51.634   8.555  12.924  0.00  0.00    +0.000 A 
ATOM     24  N   UNL     1      52.938   8.604  13.298  0.00  0.00    +0.000 NA
ATOM     25  C   UNL     1      53.161   8.171  14.495  0.00  0.00    +0.000 A 
ATOM     26  N   UNL     1      52.198   7.713  15.355  0.00  0.00    +0.000 N 
ATOM     27  C   UNL     1      50.854   7.743  15.061  0.00  0.00    +0.000 A 
ATOM     28  O   UNL     1      50.016   7.530  15.931  0.00  0.00    +0.000 OA
ATOM     29  C   UNL     1      50.565   8.128  13.691  0.00  0.00    +0.000 A 
ATOM     30  H   UNL     1      52.430   7.453  16.303  0.00  0.00    +0.000 HD
ENDBRANCH  17  20
ENDBRANCH   1  16
BRANCH   1  31
ATOM     31  C   UNL     1      47.219   4.349  14.999  0.00  0.00    +0.000 C 
BRANCH  31  32
ATOM     32  C   UNL     1      47.666   4.840  16.378  0.00  0.00    +0.000 C 
BRANCH  32  33
ATOM     33  N   UNL     1      49.122   4.919  16.447  0.00  0.00    +0.000 NA
ATOM     34  H   UNL     1      49.522   4.464  15.628  0.00  0.00    +0.000 HD
ATOM     35  H   UNL     1      49.454   4.394  17.257  0.00  0.00    +0.000 HD
ENDBRANCH  32  33
ENDBRANCH  31  32
ENDBRANCH   1  31
TORSDOF 9
ENDMDL
MODEL 6
REMARK VINA RESULT:    -7.207      3.374      7.663
REMARK INTER + INTRA:         -11.773
REMARK INTER:                 -10.019
REMARK INTRA:                  -1.754
REMARK UNBOUND:                -0.985
REMARK  Name = 
REMARK  9 active torsions:
REMARK  status: ('A' for Active; 'I' for Inactive)
REMARK    1  A    between atoms: N_1  and  C_2
REMARK    2  A    between atoms: C_2  and  C_3
REMARK    3  A    between atoms: C_3  and  C_4
REMARK    4  A    between atoms: C_4  and  N_5
REMARK    5  A    between atoms: C_4  and  C_18
REMARK    6  A    between atoms: C_6  and  C_8
REMARK    7  A    between atoms: C_21  and  O_22
REMARK    8  A    between atoms: O_22  and  C_23
REMARK    9  A    between atoms: C_23  and  C_24
REMARK                            x       y       z     vdW  Elec       q    Type
REMARK                         _______ _______ _______ _____ _____    ______ ____
ROOT
ATOM      1  C   UNL     1      48.049   7.308  13.129  0.00  0.00    +0.000 C 
ENDROOT
BRANCH   1   2
ATOM      2  C   UNL     1      48.397   6.632  14.448  0.00  0.00    +0.000 A 
ATOM      3  C   UNL     1      47.634   5.574  14.964  0.00  0.00    +0.000 A 
ATOM      4  C   UNL     1      48.003   4.963  16.168  0.00  0.00    +0.000 A 
ATOM      5  C   UNL     1      49.141   5.392  16.854  0.00  0.00    +0.000 A 
ATOM      6  C   UNL     1      49.859   6.486  16.380  0.00  0.00    +0.000 A 
ATOM      7  C   UNL     1      49.503   7.087  15.182  0.00  0.00    +0.000 A 
BRANCH   5   8
ATOM      8  O   UNL     1      49.497   4.679  17.969  0.00  0.00    +0.000 OA
BRANCH   8   9
ATOM      9  C   UNL     1      49.518   3.256  17.764  0.00  0.00    +0.000 C 
BRANCH   9  10
ATOM     10  C   UNL     1      50.925   2.718  17.749  0.00  0.00    +0.000 A 
ATOM     11  C   UNL     1      52.005   3.538  18.037  0.00  0.00    +0.000 A 
ATOM     12  C   UNL     1      53.285   2.993  18.027  0.00  0.00    +0.000 A 
ATOM     13  C   UNL     1      53.447   1.648  17.711  0.00  0.00    +0.000 A 
ATOM     14  C   UNL     1      52.323   0.905  17.406  0.00  0.00    +0.000 A 
ATOM     15  N   UNL     1      51.072   1.409  17.414  0.00  0.00    +0.000 NA
ENDBRANCH   9  10
ENDBRANCH   8   9
ENDBRANCH   5   8
ENDBRANCH   1   2
BRANCH   1  16
ATOM     16  N   UNL     1      47.344   6.324  12.307  0.00  0.00    +0.000 N 
ATOM     17  C   UNL     1      46.154   6.585  11.668  0.00  0.00    +0.000 C 
ATOM     18  O   UNL     1      45.582   7.660  11.734  0.00  0.00    +0.000 OA
ATOM     19  H   UNL     1      47.584   5.354  12.449  0.00  0.00    +0.000 HD
BRANCH  17  20
ATOM     20  C   UNL     1      45.654   5.481  10.845  0.00  0.00    +0.000 A 
ATOM     21  C   UNL     1      45.752   5.445   9.463  0.00  0.00    +0.000 A 
ATOM     22  S   UNL     1      44.957   4.102   8.767  0.00  0.00    +0.000 S 
ATOM     23  C   UNL     1      44.449   3.538  10.292  0.00  0.00    +0.000 A 
ATOM     24  N   UNL     1      43.679   2.426  10.412  0.00  0.00    +0.000 NA
ATOM     25  C   UNL     1      43.354   2.139  11.629  0.00  0.00    +0.000 A 
ATOM     26  N   UNL     1      43.743   2.850  12.734  0.00  0.00    +0.000 N 
ATOM     27  C   UNL     1      44.607   3.919  12.672  0.00  0.00    +0.000 A 
ATOM     28  O   UNL     1      45.099   4.389  13.692  0.00  0.00    +0.000 OA
ATOM     29  C   UNL     1      44.920   4.338  11.317  0.00  0.00    +0.000 A 
ATOM     30  H   UNL     1      43.511   2.533  13.664  0.00  0.00    +0.000 HD
ENDBRANCH  17  20
ENDBRANCH   1  16
BRANCH   1  31
ATOM     31  C   UNL     1      49.329   7.851  12.445  0.00  0.00    +0.000 C 
BRANCH  31  32
ATOM     32  C   UNL     1      49.087   9.175  11.718  0.00  0.00    +0.000 C 
BRANCH  32  33
ATOM     33  N   UNL     1      47.770   9.710  12.052  0.00  0.00    +0.000 NA
ATOM     34  H   UNL     1      47.327   9.105  12.742  0.00  0.00    +0.000 HD
ATOM     35  H   UNL     1      47.172   9.687  11.225  0.00  0.00    +0.000 HD
ENDBRANCH  32  33
ENDBRANCH  31  32
ENDBRANCH   1  31
TORSDOF 9
ENDMDL
MODEL 7
REMARK VINA RESULT:    -6.731      3.112      8.025
REMARK INTER + INTRA:         -11.061
REMARK INTER:                  -9.494
REMARK INTRA:                  -1.566
REMARK UNBOUND:                -0.985
REMARK  Name = 
REMARK  9 active torsions:
REMARK  status: ('A' for Active; 'I' for Inactive)
REMARK    1  A    between atoms: N_1  and  C_2
REMARK    2  A    between atoms: C_2  and  C_3
REMARK    3  A    between atoms: C_3  and  C_4
REMARK    4  A    between atoms: C_4  and  N_5
REMARK    5  A    between atoms: C_4  and  C_18
REMARK    6  A    between atoms: C_6  and  C_8
REMARK    7  A    between atoms: C_21  and  O_22
REMARK    8  A    between atoms: O_22  and  C_23
REMARK    9  A    between atoms: C_23  and  C_24
REMARK                            x       y       z     vdW  Elec       q    Type
REMARK                         _______ _______ _______ _____ _____    ______ ____
ROOT
ATOM      1  C   UNL     1      47.873   7.180  13.055  0.00  0.00    +0.000 C 
ENDROOT
BRANCH   1   2
ATOM      2  C   UNL     1      48.524   6.792  14.375  0.00  0.00    +0.000 A 
ATOM      3  C   UNL     1      47.947   5.852  15.240  0.00  0.00    +0.000 A 
ATOM      4  C   UNL     1      48.591   5.504  16.433  0.00  0.00    +0.000 A 
ATOM      5  C   UNL     1      49.821   6.079  16.760  0.00  0.00    +0.000 A 
ATOM      6  C   UNL     1      50.363   7.062  15.938  0.00  0.00    +0.000 A 
ATOM      7  C   UNL     1      49.731   7.402  14.750  0.00  0.00    +0.000 A 
BRANCH   5   8
ATOM      8  O   UNL     1      50.441   5.613  17.890  0.00  0.00    +0.000 OA
BRANCH   8   9
ATOM      9  C   UNL     1      50.032   4.288  18.271  0.00  0.00    +0.000 C 
BRANCH   9  10
ATOM     10  C   UNL     1      51.143   3.288  18.077  0.00  0.00    +0.000 A 
ATOM     11  C   UNL     1      52.451   3.600  18.414  0.00  0.00    +0.000 A 
ATOM     12  C   UNL     1      53.440   2.638  18.232  0.00  0.00    +0.000 A 
ATOM     13  C   UNL     1      53.092   1.400  17.701  0.00  0.00    +0.000 A 
ATOM     14  C   UNL     1      51.772   1.178  17.362  0.00  0.00    +0.000 A 
ATOM     15  N   UNL     1      50.795   2.092  17.534  0.00  0.00    +0.000 NA
ENDBRANCH   9  10
ENDBRANCH   8   9
ENDBRANCH   5   8
ENDBRANCH   1   2
BRANCH   1  16
ATOM     16  N   UNL     1      46.914   6.127  12.716  0.00  0.00    +0.000 N 
ATOM     17  C   UNL     1      45.716   6.369  12.085  0.00  0.00    +0.000 C 
ATOM     18  O   UNL     1      45.346   7.484  11.757  0.00  0.00    +0.000 OA
ATOM     19  H   UNL     1      47.004   5.252  13.211  0.00  0.00    +0.000 HD
BRANCH  17  20
ATOM     20  C   UNL     1      44.939   5.165  11.781  0.00  0.00    +0.000 A 
ATOM     21  C   UNL     1      44.125   4.522  12.701  0.00  0.00    +0.000 A 
ATOM     22  S   UNL     1      43.455   3.067  12.104  0.00  0.00    +0.000 S 
ATOM     23  C   UNL     1      44.243   3.250  10.606  0.00  0.00    +0.000 A 
ATOM     24  N   UNL     1      44.126   2.315   9.628  0.00  0.00    +0.000 NA
ATOM     25  C   UNL     1      44.801   2.581   8.559  0.00  0.00    +0.000 A 
ATOM     26  N   UNL     1      45.566   3.703   8.373  0.00  0.00    +0.000 N 
ATOM     27  C   UNL     1      45.631   4.726   9.291  0.00  0.00    +0.000 A 
ATOM     28  O   UNL     1      46.146   5.800   8.998  0.00  0.00    +0.000 OA
ATOM     29  C   UNL     1      44.967   4.427  10.547  0.00  0.00    +0.000 A 
ATOM     30  H   UNL     1      46.014   3.885   7.487  0.00  0.00    +0.000 HD
ENDBRANCH  17  20
ENDBRANCH   1  16
BRANCH   1  31
ATOM     31  C   UNL     1      48.949   7.386  11.960  0.00  0.00    +0.000 C 
BRANCH  31  32
ATOM     32  C   UNL     1      48.943   8.807  11.394  0.00  0.00    +0.000 C 
BRANCH  32  33
ATOM     33  N   UNL     1      47.816   9.567  11.927  0.00  0.00    +0.000 NA
ATOM     34  H   UNL     1      46.946   9.163  11.583  0.00  0.00    +0.000 HD
ATOM     35  H   UNL     1      47.848  10.522  11.570  0.00  0.00    +0.000 HD
ENDBRANCH  32  33
ENDBRANCH  31  32
ENDBRANCH   1  31
TORSDOF 9
ENDMDL
MODEL 8
REMARK VINA RESULT:    -6.654      3.281      8.482
REMARK INTER + INTRA:         -10.946
REMARK INTER:                  -9.452
REMARK INTRA:                  -1.494
REMARK UNBOUND:                -0.985
REMARK  Name = 
REMARK  9 active torsions:
REMARK  status: ('A' for Active; 'I' for Inactive)
REMARK    1  A    between atoms: N_1  and  C_2
REMARK    2  A    between atoms: C_2  and  C_3
REMARK    3  A    between atoms: C_3  and  C_4
REMARK    4  A    between atoms: C_4  and  N_5
REMARK    5  A    between atoms: C_4  and  C_18
REMARK    6  A    between atoms: C_6  and  C_8
REMARK    7  A    between atoms: C_21  and  O_22
REMARK    8  A    between atoms: O_22  and  C_23
REMARK    9  A    between atoms: C_23  and  C_24
REMARK                            x       y       z     vdW  Elec       q    Type
REMARK                         _______ _______ _______ _____ _____    ______ ____
ROOT
ATOM      1  C   UNL     1      44.792   4.615  11.602  0.00  0.00    +0.000 C 
ENDROOT
BRANCH   1   2
ATOM      2  C   UNL     1      45.885   4.930  12.614  0.00  0.00    +0.000 A 
ATOM      3  C   UNL     1      46.664   6.093  12.528  0.00  0.00    +0.000 A 
ATOM      4  C   UNL     1      47.642   6.357  13.494  0.00  0.00    +0.000 A 
ATOM      5  C   UNL     1      47.836   5.474  14.558  0.00  0.00    +0.000 A 
ATOM      6  C   UNL     1      47.112   4.286  14.607  0.00  0.00    +0.000 A 
ATOM      7  C   UNL     1      46.136   4.026  13.657  0.00  0.00    +0.000 A 
BRANCH   5   8
ATOM      8  O   UNL     1      48.737   5.851  15.519  0.00  0.00    +0.000 OA
BRANCH   8   9
ATOM      9  C   UNL     1      48.526   5.218  16.792  0.00  0.00    +0.000 C 
BRANCH   9  10
ATOM     10  C   UNL     1      49.642   4.264  17.129  0.00  0.00    +0.000 A 
ATOM     11  C   UNL     1      49.448   2.892  17.079  0.00  0.00    +0.000 A 
ATOM     12  C   UNL     1      50.514   2.051  17.383  0.00  0.00    +0.000 A 
ATOM     13  C   UNL     1      51.736   2.608  17.745  0.00  0.00    +0.000 A 
ATOM     14  C   UNL     1      51.840   3.984  17.801  0.00  0.00    +0.000 A 
ATOM     15  N   UNL     1      50.823   4.820  17.506  0.00  0.00    +0.000 NA
ENDBRANCH   9  10
ENDBRANCH   8   9
ENDBRANCH   5   8
ENDBRANCH   1   2
BRANCH   1  16
ATOM     16  N   UNL     1      45.363   3.696  10.616  0.00  0.00    +0.000 N 
ATOM     17  C   UNL     1      44.610   2.803   9.888  0.00  0.00    +0.000 C 
ATOM     18  O   UNL     1      43.401   2.697  10.006  0.00  0.00    +0.000 OA
ATOM     19  H   UNL     1      46.354   3.514  10.682  0.00  0.00    +0.000 HD
BRANCH  17  20
ATOM     20  C   UNL     1      45.373   2.024   8.910  0.00  0.00    +0.000 A 
ATOM     21  C   UNL     1      45.336   0.641   8.830  0.00  0.00    +0.000 A 
ATOM     22  S   UNL     1      46.435   0.003   7.687  0.00  0.00    +0.000 S 
ATOM     23  C   UNL     1      47.000   1.557   7.277  0.00  0.00    +0.000 A 
ATOM     24  N   UNL     1      47.994   1.729   6.367  0.00  0.00    +0.000 NA
ATOM     25  C   UNL     1      48.330   2.962   6.180  0.00  0.00    +0.000 A 
ATOM     26  N   UNL     1      47.753   4.036   6.805  0.00  0.00    +0.000 N 
ATOM     27  C   UNL     1      46.675   3.921   7.652  0.00  0.00    +0.000 A 
ATOM     28  O   UNL     1      46.054   4.913   8.018  0.00  0.00    +0.000 OA
ATOM     29  C   UNL     1      46.326   2.547   7.968  0.00  0.00    +0.000 A 
ATOM     30  H   UNL     1      48.016   4.981   6.563  0.00  0.00    +0.000 HD
ENDBRANCH  17  20
ENDBRANCH   1  16
BRANCH   1  31
ATOM     31  C   UNL     1      44.254   5.919  10.963  0.00  0.00    +0.000 C 
BRANCH  31  32
ATOM     32  C   UNL     1      42.804   6.208  11.356  0.00  0.00    +0.000 C 
BRANCH  32  33
ATOM     33  N   UNL     1      42.214   5.051  12.023  0.00  0.00    +0.000 NA
ATOM     34  H   UNL     1      41.355   5.337  12.492  0.00  0.00    +0.000 HD
ATOM     35  H   UNL     1      42.843   4.721  12.755  0.00  0.00    +0.000 HD
ENDBRANCH  32  33
ENDBRANCH  31  32
ENDBRANCH   1  31
TORSDOF 9
ENDMDL
MODEL 9
REMARK VINA RESULT:    -6.432      3.426      8.754
REMARK INTER + INTRA:         -10.613
REMARK INTER:                  -9.657
REMARK INTRA:                  -0.957
REMARK UNBOUND:                -0.985
REMARK  Name = 
REMARK  9 active torsions:
REMARK  status: ('A' for Active; 'I' for Inactive)
REMARK    1  A    between atoms: N_1  and  C_2
REMARK    2  A    between atoms: C_2  and  C_3
REMARK    3  A    between atoms: C_3  and  C_4
REMARK    4  A    between atoms: C_4  and  N_5
REMARK    5  A    between atoms: C_4  and  C_18
REMARK    6  A    between atoms: C_6  and  C_8
REMARK    7  A    between atoms: C_21  and  O_22
REMARK    8  A    between atoms: O_22  and  C_23
REMARK    9  A    between atoms: C_23  and  C_24
REMARK                            x       y       z     vdW  Elec       q    Type
REMARK                         _______ _______ _______ _____ _____    ______ ____
ROOT
ATOM      1  C   UNL     1      44.724   4.548  11.527  0.00  0.00    +0.000 C 
ENDROOT
BRANCH   1   2
ATOM      2  C   UNL     1      45.855   5.362  12.140  0.00  0.00    +0.000 A 
ATOM      3  C   UNL     1      46.430   6.454  11.475  0.00  0.00    +0.000 A 
ATOM      4  C   UNL     1      47.451   7.192  12.085  0.00  0.00    +0.000 A 
ATOM      5  C   UNL     1      47.893   6.854  13.366  0.00  0.00    +0.000 A 
ATOM      6  C   UNL     1      47.372   5.730  13.999  0.00  0.00    +0.000 A 
ATOM      7  C   UNL     1      46.353   5.003  13.402  0.00  0.00    +0.000 A 
BRANCH   5   8
ATOM      8  O   UNL     1      48.820   7.684  13.939  0.00  0.00    +0.000 OA
BRANCH   8   9
ATOM      9  C   UNL     1      49.481   7.114  15.082  0.00  0.00    +0.000 C 
BRANCH   9  10
ATOM     10  C   UNL     1      48.868   7.593  16.372  0.00  0.00    +0.000 A 
ATOM     11  C   UNL     1      48.642   6.716  17.423  0.00  0.00    +0.000 A 
ATOM     12  C   UNL     1      48.089   7.209  18.601  0.00  0.00    +0.000 A 
ATOM     13  C   UNL     1      47.763   8.558  18.686  0.00  0.00    +0.000 A 
ATOM     14  C   UNL     1      47.991   9.360  17.584  0.00  0.00    +0.000 A 
ATOM     15  N   UNL     1      48.531   8.907  16.433  0.00  0.00    +0.000 NA
ENDBRANCH   9  10
ENDBRANCH   8   9
ENDBRANCH   5   8
ENDBRANCH   1   2
BRANCH   1  16
ATOM     16  N   UNL     1      45.317   3.667  10.520  0.00  0.00    +0.000 N 
ATOM     17  C   UNL     1      44.620   2.662   9.889  0.00  0.00    +0.000 C 
ATOM     18  O   UNL     1      43.448   2.415  10.118  0.00  0.00    +0.000 OA
ATOM     19  H   UNL     1      46.324   3.609  10.501  0.00  0.00    +0.000 HD
BRANCH  17  20
ATOM     20  C   UNL     1      45.387   1.944   8.868  0.00  0.00    +0.000 A 
ATOM     21  C   UNL     1      45.403   0.563   8.748  0.00  0.00    +0.000 A 
ATOM     22  S   UNL     1      46.495   0.004   7.557  0.00  0.00    +0.000 S 
ATOM     23  C   UNL     1      46.984   1.590   7.178  0.00  0.00    +0.000 A 
ATOM     24  N   UNL     1      47.944   1.829   6.248  0.00  0.00    +0.000 NA
ATOM     25  C   UNL     1      48.225   3.080   6.088  0.00  0.00    +0.000 A 
ATOM     26  N   UNL     1      47.623   4.111   6.760  0.00  0.00    +0.000 N 
ATOM     27  C   UNL     1      46.575   3.927   7.632  0.00  0.00    +0.000 A 
ATOM     28  O   UNL     1      45.925   4.882   8.043  0.00  0.00    +0.000 OA
ATOM     29  C   UNL     1      46.290   2.532   7.916  0.00  0.00    +0.000 A 
ATOM     30  H   UNL     1      47.840   5.072   6.539  0.00  0.00    +0.000 HD
ENDBRANCH  17  20
ENDBRANCH   1  16
BRANCH   1  31
ATOM     31  C   UNL     1      43.640   5.486  10.938  0.00  0.00    +0.000 C 
BRANCH  31  32
ATOM     32  C   UNL     1      42.350   5.476  11.760  0.00  0.00    +0.000 C 
BRANCH  32  33
ATOM     33  N   UNL     1      42.652   5.437  13.188  0.00  0.00    +0.000 NA
ATOM     34  H   UNL     1      42.132   4.675  13.620  0.00  0.00    +0.000 HD
ATOM     35  H   UNL     1      42.321   6.295  13.630  0.00  0.00    +0.000 HD
ENDBRANCH  32  33
ENDBRANCH  31  32
ENDBRANCH   1  31
TORSDOF 9
ENDMDL
