MODEL 1
REMARK VINA RESULT:    -8.157      0.000      0.000
REMARK INTER + INTRA:         -12.469
REMARK INTER:                 -11.495
REMARK INTRA:                  -0.974
REMARK UNBOUND:                -0.974
REMARK  Name = 
REMARK  7 active torsions:
REMARK  status: ('A' for Active; 'I' for Inactive)
REMARK    1  A    between atoms: C_2  and  C_20
REMARK    2  A    between atoms: N_3  and  C_4
REMARK    3  A    between atoms: C_4  and  C_5
REMARK    4  A    between atoms: C_8  and  C_9
REMARK    5  A    between atoms: C_9  and  N_10
REMARK    6  A    between atoms: N_10  and  C_11
REMARK    7  A    between atoms: C_11  and  C_12
REMARK                            x       y       z     vdW  Elec       q    Type
REMARK                         _______ _______ _______ _____ _____    ______ ____
ROOT
ATOM      1  C   UNL     1      47.983   6.394  13.849  0.00  0.00    +0.000 C 
ENDROOT
BRANCH   1   2
ATOM      2  C   UNL     1      46.576   6.179  13.250  0.00  0.00    +0.000 C 
ATOM      3  C   UNL     1      45.956   4.821  13.645  0.00  0.00    +0.000 C 
ATOM      4  C   UNL     1      44.649   4.522  12.895  0.00  0.00    +0.000 C 
ATOM      5  C   UNL     1      44.826   4.634  11.372  0.00  0.00    +0.000 C 
ATOM      6  C   UNL     1      45.384   6.023  11.017  0.00  0.00    +0.000 C 
ATOM      7  C   UNL     1      46.694   6.297  11.727  0.00  0.00    +0.000 C 
BRANCH   5   8
ATOM      8  C   UNL     1      43.510   4.372  10.615  0.00  0.00    +0.000 C 
BRANCH   8   9
ATOM      9  N   UNL     1      43.815   3.744   9.334  0.00  0.00    +0.000 NA
ATOM     10  H   UNL     1      44.356   4.368   8.734  0.00  0.00    +0.000 HD
BRANCH   9  11
ATOM     11  C   UNL     1      44.555   2.482   9.472  0.00  0.00    +0.000 C 
BRANCH  11  12
ATOM     12  C   UNL     1      45.649   2.337   8.429  0.00  0.00    +0.000 A 
ATOM     13  N   UNL     1      45.990   3.436   7.716  0.00  0.00    +0.000 NA
ATOM     14  C   UNL     1      46.941   3.270   6.777  0.00  0.00    +0.000 A 
ATOM     15  C   UNL     1      47.555   2.065   6.521  0.00  0.00    +0.000 A 
ATOM     16  C   UNL     1      47.152   1.009   7.308  0.00  0.00    +0.000 A 
ATOM     17  N   UNL     1      46.217   1.118   8.266  0.00  0.00    +0.000 NA
ENDBRANCH  11  12
ENDBRANCH   9  11
ENDBRANCH   8   9
ENDBRANCH   5   8
ENDBRANCH   1   2
BRANCH   1  20
ATOM     18  O   UNL     1      50.288   6.638  15.536  0.00  0.00    +0.000 OA
ATOM     19  C   UNL     1      49.161   6.612  16.016  0.00  0.00    +0.000 C 
ATOM     20  N   UNL     1      48.014   6.451  15.286  0.00  0.00    +0.000 N 
ATOM     21  H   UNL     1      47.171   6.180  15.787  0.00  0.00    +0.000 HD
BRANCH  19  22
ATOM     22  C   UNL     1      48.913   6.884  17.431  0.00  0.00    +0.000 A 
ATOM     23  C   UNL     1      49.015   8.155  17.987  0.00  0.00    +0.000 A 
ATOM     24  S   UNL     1      49.178   8.109  19.686  0.00  0.00    +0.000 S 
ATOM     25  C   UNL     1      48.970   6.418  19.708  0.00  0.00    +0.000 A 
ATOM     26  N   UNL     1      49.103   5.699  20.852  0.00  0.00    +0.000 NA
ATOM     27  C   UNL     1      48.816   4.445  20.718  0.00  0.00    +0.000 A 
ATOM     28  N   UNL     1      48.361   3.860  19.562  0.00  0.00    +0.000 N 
ATOM     29  C   UNL     1      48.202   4.553  18.380  0.00  0.00    +0.000 A 
ATOM     30  O   UNL     1      47.643   4.054  17.409  0.00  0.00    +0.000 OA
ATOM     31  C   UNL     1      48.648   5.927  18.460  0.00  0.00    +0.000 A 
ATOM     32  H   UNL     1      48.038   2.904  19.562  0.00  0.00    +0.000 HD
ENDBRANCH  19  22
ENDBRANCH   1  20
TORSDOF 7
ENDMDL
MODEL 2
REMARK VINA RESULT:    -7.928      1.921      2.214
REMARK INTER + INTRA:         -12.146
REMARK INTER:                 -11.176
REMARK INTRA:                  -0.969
REMARK UNBOUND:                -0.974
REMARK  Name = 
REMARK  7 active torsions:
REMARK  status: ('A' for Active; 'I' for Inactive)
REMARK    1  A    between atoms: C_2  and  C_20
REMARK    2  A    between atoms: N_3  and  C_4
REMARK    3  A    between atoms: C_4  and  C_5
REMARK    4  A    between atoms: C_8  and  C_9
REMARK    5  A    between atoms: C_9  and  N_10
REMARK    6  A    between atoms: N_10  and  C_11
REMARK    7  A    between atoms: C_11  and  C_12
REMARK                            x       y       z     vdW  Elec       q    Type
REMARK                         _______ _______ _______ _____ _____    ______ ____
ROOT
ATOM      1  C   UNL     1      47.903   7.243  13.753  0.00  0.00    +0.000 C 
ENDROOT
BRANCH   1   2
ATOM      2  C   UNL     1      47.246   6.228  12.792  0.00  0.00    +0.000 C 
ATOM      3  C   UNL     1      46.349   6.900  11.730  0.00  0.00    +0.000 C 
ATOM      4  C   UNL     1      45.545   5.887  10.901  0.00  0.00    +0.000 C 
ATOM      5  C   UNL     1      44.735   4.934  11.794  0.00  0.00    +0.000 C 
ATOM      6  C   UNL     1      45.674   4.238  12.793  0.00  0.00    +0.000 C 
ATOM      7  C   UNL     1      46.436   5.240  13.636  0.00  0.00    +0.000 C 
BRANCH   5   8
ATOM      8  C   UNL     1      43.954   3.892  10.971  0.00  0.00    +0.000 C 
BRANCH   8   9
ATOM      9  N   UNL     1      44.827   2.757  10.691  0.00  0.00    +0.000 NA
ATOM     10  H   UNL     1      44.777   2.057  11.433  0.00  0.00    +0.000 HD
BRANCH   9  11
ATOM     11  C   UNL     1      44.522   2.096   9.414  0.00  0.00    +0.000 C 
BRANCH  11  12
ATOM     12  C   UNL     1      45.662   2.210   8.418  0.00  0.00    +0.000 A 
ATOM     13  N   UNL     1      45.888   3.420   7.855  0.00  0.00    +0.000 NA
ATOM     14  C   UNL     1      46.886   3.485   6.953  0.00  0.00    +0.000 A 
ATOM     15  C   UNL     1      47.655   2.402   6.590  0.00  0.00    +0.000 A 
ATOM     16  C   UNL     1      47.359   1.219   7.230  0.00  0.00    +0.000 A 
ATOM     17  N   UNL     1      46.385   1.098   8.145  0.00  0.00    +0.000 NA
ENDBRANCH  11  12
ENDBRANCH   9  11
ENDBRANCH   8   9
ENDBRANCH   5   8
ENDBRANCH   1   2
BRANCH   1  20
ATOM     18  O   UNL     1      48.472   8.069  16.438  0.00  0.00    +0.000 OA
ATOM     19  C   UNL     1      49.037   7.099  15.949  0.00  0.00    +0.000 C 
ATOM     20  N   UNL     1      48.857   6.667  14.663  0.00  0.00    +0.000 N 
ATOM     21  H   UNL     1      49.553   6.033  14.276  0.00  0.00    +0.000 HD
BRANCH  19  22
ATOM     22  C   UNL     1      49.880   6.208  16.745  0.00  0.00    +0.000 A 
ATOM     23  C   UNL     1      51.118   6.589  17.252  0.00  0.00    +0.000 A 
ATOM     24  S   UNL     1      52.083   5.249  17.683  0.00  0.00    +0.000 S 
ATOM     25  C   UNL     1      50.816   4.164  17.337  0.00  0.00    +0.000 A 
ATOM     26  N   UNL     1      50.996   2.819  17.389  0.00  0.00    +0.000 NA
ATOM     27  C   UNL     1      49.912   2.139  17.196  0.00  0.00    +0.000 A 
ATOM     28  N   UNL     1      48.664   2.680  17.012  0.00  0.00    +0.000 N 
ATOM     29  C   UNL     1      48.434   4.040  16.961  0.00  0.00    +0.000 A 
ATOM     30  O   UNL     1      47.298   4.502  16.960  0.00  0.00    +0.000 OA
ATOM     31  C   UNL     1      49.646   4.827  17.032  0.00  0.00    +0.000 A 
ATOM     32  H   UNL     1      47.845   2.091  16.993  0.00  0.00    +0.000 HD
ENDBRANCH  19  22
ENDBRANCH   1  20
TORSDOF 7
ENDMDL
MODEL 3
REMARK VINA RESULT:    -7.306      1.453      2.013
REMARK INTER + INTRA:         -11.270
REMARK INTER:                 -10.373
REMARK INTRA:                  -0.897
REMARK UNBOUND:                -0.974
REMARK  Name = 
REMARK  7 active torsions:
REMARK  status: ('A' for Active; 'I' for Inactive)
REMARK    1  A    between atoms: C_2  and  C_20
REMARK    2  A    between atoms: N_3  and  C_4
REMARK    3  A    between atoms: C_4  and  C_5
REMARK    4  A    between atoms: C_8  and  C_9
REMARK    5  A    between atoms: C_9  and  N_10
REMARK    6  A    between atoms: N_10  and  C_11
REMARK    7  A    between atoms: C_11  and  C_12
REMARK                            x       y       z     vdW  Elec       q    Type
REMARK                         _______ _______ _______ _____ _____    ______ ____
ROOT
ATOM      1  C   UNL     1      48.237   6.919  13.365  0.00  0.00    +0.000 C 
ENDROOT
BRANCH   1   2
ATOM      2  C   UNL     1      46.798   6.465  13.040  0.00  0.00    +0.000 C 
ATOM      3  C   UNL     1      46.509   5.016  13.488  0.00  0.00    +0.000 C 
ATOM      4  C   UNL     1      45.151   4.498  12.993  0.00  0.00    +0.000 C 
ATOM      5  C   UNL     1      45.001   4.652  11.471  0.00  0.00    +0.000 C 
ATOM      6  C   UNL     1      45.233   6.120  11.074  0.00  0.00    +0.000 C 
ATOM      7  C   UNL     1      46.591   6.615  11.530  0.00  0.00    +0.000 C 
BRANCH   5   8
ATOM      8  C   UNL     1      43.626   4.169  10.971  0.00  0.00    +0.000 C 
BRANCH   8   9
ATOM      9  N   UNL     1      43.783   3.575   9.647  0.00  0.00    +0.000 NA
ATOM     10  H   UNL     1      44.214   4.230   8.994  0.00  0.00    +0.000 HD
BRANCH   9  11
ATOM     11  C   UNL     1      44.584   2.343   9.659  0.00  0.00    +0.000 C 
BRANCH  11  12
ATOM     12  C   UNL     1      45.603   2.306   8.534  0.00  0.00    +0.000 A 
ATOM     13  N   UNL     1      46.208   1.124   8.272  0.00  0.00    +0.000 NA
ATOM     14  C   UNL     1      47.129   1.127   7.289  0.00  0.00    +0.000 A 
ATOM     15  C   UNL     1      47.469   2.251   6.569  0.00  0.00    +0.000 A 
ATOM     16  C   UNL     1      46.788   3.401   6.899  0.00  0.00    +0.000 A 
ATOM     17  N   UNL     1      45.853   3.454   7.860  0.00  0.00    +0.000 NA
ENDBRANCH  11  12
ENDBRANCH   9  11
ENDBRANCH   8   9
ENDBRANCH   5   8
ENDBRANCH   1   2
BRANCH   1  20
ATOM     18  O   UNL     1      50.081   8.213  15.140  0.00  0.00    +0.000 OA
ATOM     19  C   UNL     1      49.600   7.122  15.422  0.00  0.00    +0.000 C 
ATOM     20  N   UNL     1      48.751   6.418  14.612  0.00  0.00    +0.000 N 
ATOM     21  H   UNL     1      48.622   5.428  14.810  0.00  0.00    +0.000 HD
BRANCH  19  22
ATOM     22  C   UNL     1      49.786   6.509  16.737  0.00  0.00    +0.000 A 
ATOM     23  C   UNL     1      50.696   5.484  16.973  0.00  0.00    +0.000 A 
ATOM     24  S   UNL     1      50.355   4.631  18.412  0.00  0.00    +0.000 S 
ATOM     25  C   UNL     1      49.090   5.703  18.803  0.00  0.00    +0.000 A 
ATOM     26  N   UNL     1      48.287   5.494  19.877  0.00  0.00    +0.000 NA
ATOM     27  C   UNL     1      47.441   6.449  20.093  0.00  0.00    +0.000 A 
ATOM     28  N   UNL     1      47.365   7.612  19.366  0.00  0.00    +0.000 N 
ATOM     29  C   UNL     1      48.167   7.871  18.274  0.00  0.00    +0.000 A 
ATOM     30  O   UNL     1      48.197   8.975  17.743  0.00  0.00    +0.000 OA
ATOM     31  C   UNL     1      49.026   6.762  17.922  0.00  0.00    +0.000 A 
ATOM     32  H   UNL     1      46.767   8.368  19.666  0.00  0.00    +0.000 HD
ENDBRANCH  19  22
ENDBRANCH   1  20
TORSDOF 7
ENDMDL
MODEL 4
REMARK VINA RESULT:    -7.294      1.692      2.704
REMARK INTER + INTRA:         -11.253
REMARK INTER:                 -10.361
REMARK INTRA:                  -0.892
REMARK UNBOUND:                -0.974
REMARK  Name = 
REMARK  7 active torsions:
REMARK  status: ('A' for Active; 'I' for Inactive)
REMARK    1  A    between atoms: C_2  and  C_20
REMARK    2  A    between atoms: N_3  and  C_4
REMARK    3  A    between atoms: C_4  and  C_5
REMARK    4  A    between atoms: C_8  and  C_9
REMARK    5  A    between atoms: C_9  and  N_10
REMARK    6  A    between atoms: N_10  and  C_11
REMARK    7  A    between atoms: C_11  and  C_12
REMARK                            x       y       z     vdW  Elec       q    Type
REMARK                         _______ _______ _______ _____ _____    ______ ____
ROOT
ATOM      1  C   UNL     1      47.987   7.283  13.535  0.00  0.00    +0.000 C 
ENDROOT
BRANCH   1   2
ATOM      2  C   UNL     1      47.227   6.176  12.773  0.00  0.00    +0.000 C 
ATOM      3  C   UNL     1      46.525   6.696  11.500  0.00  0.00    +0.000 C 
ATOM      4  C   UNL     1      45.612   5.646  10.851  0.00  0.00    +0.000 C 
ATOM      5  C   UNL     1      44.597   5.073  11.854  0.00  0.00    +0.000 C 
ATOM      6  C   UNL     1      45.341   4.508  13.076  0.00  0.00    +0.000 C 
ATOM      7  C   UNL     1      46.210   5.559  13.737  0.00  0.00    +0.000 C 
BRANCH   5   8
ATOM      8  C   UNL     1      43.702   3.992  11.219  0.00  0.00    +0.000 C 
BRANCH   8   9
ATOM      9  N   UNL     1      44.103   3.797   9.830  0.00  0.00    +0.000 NA
ATOM     10  H   UNL     1      44.875   4.415   9.576  0.00  0.00    +0.000 HD
BRANCH   9  11
ATOM     11  C   UNL     1      44.504   2.415   9.534  0.00  0.00    +0.000 C 
BRANCH  11  12
ATOM     12  C   UNL     1      45.589   2.342   8.476  0.00  0.00    +0.000 A 
ATOM     13  N   UNL     1      45.864   3.469   7.777  0.00  0.00    +0.000 NA
ATOM     14  C   UNL     1      46.810   3.367   6.823  0.00  0.00    +0.000 A 
ATOM     15  C   UNL     1      47.481   2.199   6.540  0.00  0.00    +0.000 A 
ATOM     16  C   UNL     1      47.144   1.112   7.315  0.00  0.00    +0.000 A 
ATOM     17  N   UNL     1      46.218   1.157   8.286  0.00  0.00    +0.000 NA
ENDBRANCH  11  12
ENDBRANCH   9  11
ENDBRANCH   8   9
ENDBRANCH   5   8
ENDBRANCH   1   2
BRANCH   1  20
ATOM     18  O   UNL     1      50.064   6.415  15.312  0.00  0.00    +0.000 OA
ATOM     19  C   UNL     1      48.980   6.784  15.748  0.00  0.00    +0.000 C 
ATOM     20  N   UNL     1      47.923   7.169  14.968  0.00  0.00    +0.000 N 
ATOM     21  H   UNL     1      47.004   7.201  15.402  0.00  0.00    +0.000 HD
BRANCH  19  22
ATOM     22  C   UNL     1      48.745   6.980  17.178  0.00  0.00    +0.000 A 
ATOM     23  C   UNL     1      48.739   5.933  18.094  0.00  0.00    +0.000 A 
ATOM     24  S   UNL     1      47.956   6.352  19.552  0.00  0.00    +0.000 S 
ATOM     25  C   UNL     1      47.748   7.961  19.034  0.00  0.00    +0.000 A 
ATOM     26  N   UNL     1      47.044   8.860  19.769  0.00  0.00    +0.000 NA
ATOM     27  C   UNL     1      47.064  10.060  19.287  0.00  0.00    +0.000 A 
ATOM     28  N   UNL     1      47.767  10.450  18.173  0.00  0.00    +0.000 N 
ATOM     29  C   UNL     1      48.503   9.574  17.403  0.00  0.00    +0.000 A 
ATOM     30  O   UNL     1      49.251   9.967  16.514  0.00  0.00    +0.000 OA
ATOM     31  C   UNL     1      48.386   8.198  17.835  0.00  0.00    +0.000 A 
ATOM     32  H   UNL     1      47.840  11.426  17.926  0.00  0.00    +0.000 HD
ENDBRANCH  19  22
ENDBRANCH   1  20
TORSDOF 7
ENDMDL
MODEL 5
REMARK VINA RESULT:    -7.215      3.434      8.527
REMARK INTER + INTRA:         -11.141
REMARK INTER:                  -9.676
REMARK INTRA:                  -1.465
REMARK UNBOUND:                -0.974
REMARK  Name = 
REMARK  7 active torsions:
REMARK  status: ('A' for Active; 'I' for Inactive)
REMARK    1  A    between atoms: C_2  and  C_20
REMARK    2  A    between atoms: N_3  and  C_4
REMARK    3  A    between atoms: C_4  and  C_5
REMARK    4  A    between atoms: C_8  and  C_9
REMARK    5  A    between atoms: C_9  and  N_10
REMARK    6  A    between atoms: N_10  and  C_11
REMARK    7  A    between atoms: C_11  and  C_12
REMARK                            x       y       z     vdW  Elec       q    Type
REMARK                         _______ _______ _______ _____ _____    ______ ____
ROOT
ATOM      1  C   UNL     1      48.195   8.221  12.060  0.00  0.00    +0.000 C 
ENDROOT
BRANCH   1   2
ATOM      2  C   UNL     1      48.770   8.175  13.493  0.00  0.00    +0.000 C 
ATOM      3  C   UNL     1      48.707   6.767  14.121  0.00  0.00    +0.000 C 
ATOM      4  C   UNL     1      49.094   6.759  15.608  0.00  0.00    +0.000 C 
ATOM      5  C   UNL     1      48.268   7.770  16.418  0.00  0.00    +0.000 C 
ATOM      6  C   UNL     1      48.410   9.170  15.798  0.00  0.00    +0.000 C 
ATOM      7  C   UNL     1      47.988   9.182  14.342  0.00  0.00    +0.000 C 
BRANCH   5   8
ATOM      8  C   UNL     1      48.676   7.794  17.904  0.00  0.00    +0.000 C 
BRANCH   8   9
ATOM      9  N   UNL     1      47.534   7.393  18.718  0.00  0.00    +0.000 NA
ATOM     10  H   UNL     1      46.702   7.246  18.145  0.00  0.00    +0.000 HD
BRANCH   9  11
ATOM     11  C   UNL     1      47.780   6.171  19.495  0.00  0.00    +0.000 C 
BRANCH  11  12
ATOM     12  C   UNL     1      47.982   4.955  18.610  0.00  0.00    +0.000 A 
ATOM     13  N   UNL     1      49.186   4.336  18.654  0.00  0.00    +0.000 NA
ATOM     14  C   UNL     1      49.347   3.279  17.836  0.00  0.00    +0.000 A 
ATOM     15  C   UNL     1      48.368   2.822  16.982  0.00  0.00    +0.000 A 
ATOM     16  C   UNL     1      47.174   3.506  17.020  0.00  0.00    +0.000 A 
ATOM     17  N   UNL     1      46.953   4.559  17.823  0.00  0.00    +0.000 NA
ENDBRANCH  11  12
ENDBRANCH   9  11
ENDBRANCH   8   9
ENDBRANCH   5   8
ENDBRANCH   1   2
BRANCH   1  20
ATOM     18  O   UNL     1      45.376   7.743  11.850  0.00  0.00    +0.000 OA
ATOM     19  C   UNL     1      46.183   6.879  11.531  0.00  0.00    +0.000 C 
ATOM     20  N   UNL     1      47.541   7.010  11.644  0.00  0.00    +0.000 N 
ATOM     21  H   UNL     1      48.101   6.161  11.606  0.00  0.00    +0.000 HD
BRANCH  19  22
ATOM     22  C   UNL     1      45.774   5.645  10.861  0.00  0.00    +0.000 A 
ATOM     23  C   UNL     1      45.890   5.454   9.488  0.00  0.00    +0.000 A 
ATOM     24  S   UNL     1      44.900   4.183   8.924  0.00  0.00    +0.000 S 
ATOM     25  C   UNL     1      44.423   3.786  10.510  0.00  0.00    +0.000 A 
ATOM     26  N   UNL     1      43.484   2.838  10.755  0.00  0.00    +0.000 NA
ATOM     27  C   UNL     1      43.308   2.586  12.012  0.00  0.00    +0.000 A 
ATOM     28  N   UNL     1      44.023   3.157  13.037  0.00  0.00    +0.000 N 
ATOM     29  C   UNL     1      44.993   4.116  12.834  0.00  0.00    +0.000 A 
ATOM     30  O   UNL     1      45.729   4.492  13.739  0.00  0.00    +0.000 OA
ATOM     31  C   UNL     1      45.114   4.522  11.450  0.00  0.00    +0.000 A 
ATOM     32  H   UNL     1      43.921   2.823  13.983  0.00  0.00    +0.000 HD
ENDBRANCH  19  22
ENDBRANCH   1  20
TORSDOF 7
ENDMDL
MODEL 6
REMARK VINA RESULT:    -7.124      1.736      2.236
REMARK INTER + INTRA:         -11.014
REMARK INTER:                 -10.161
REMARK INTRA:                  -0.853
REMARK UNBOUND:                -0.974
REMARK  Name = 
REMARK  7 active torsions:
REMARK  status: ('A' for Active; 'I' for Inactive)
REMARK    1  A    between atoms: C_2  and  C_20
REMARK    2  A    between atoms: N_3  and  C_4
REMARK    3  A    between atoms: C_4  and  C_5
REMARK    4  A    between atoms: C_8  and  C_9
REMARK    5  A    between atoms: C_9  and  N_10
REMARK    6  A    between atoms: N_10  and  C_11
REMARK    7  A    between atoms: C_11  and  C_12
REMARK                            x       y       z     vdW  Elec       q    Type
REMARK                         _______ _______ _______ _____ _____    ______ ____
ROOT
ATOM      1  C   UNL     1      47.687   4.606  14.709  0.00  0.00    +0.000 C 
ENDROOT
BRANCH   1   2
ATOM      2  C   UNL     1      46.317   4.577  13.998  0.00  0.00    +0.000 C 
ATOM      3  C   UNL     1      46.135   3.340  13.092  0.00  0.00    +0.000 C 
ATOM      4  C   UNL     1      44.861   3.408  12.238  0.00  0.00    +0.000 C 
ATOM      5  C   UNL     1      44.786   4.711  11.426  0.00  0.00    +0.000 C 
ATOM      6  C   UNL     1      44.906   5.918  12.372  0.00  0.00    +0.000 C 
ATOM      7  C   UNL     1      46.184   5.868  13.184  0.00  0.00    +0.000 C 
BRANCH   5   8
ATOM      8  C   UNL     1      43.492   4.803  10.594  0.00  0.00    +0.000 C 
BRANCH   8   9
ATOM      9  N   UNL     1      43.790   4.451   9.210  0.00  0.00    +0.000 NA
ATOM     10  H   UNL     1      43.165   4.931   8.562  0.00  0.00    +0.000 HD
BRANCH   9  11
ATOM     11  C   UNL     1      45.175   4.754   8.824  0.00  0.00    +0.000 C 
BRANCH  11  12
ATOM     12  C   UNL     1      45.841   3.593   8.106  0.00  0.00    +0.000 A 
ATOM     13  N   UNL     1      45.725   2.362   8.657  0.00  0.00    +0.000 NA
ATOM     14  C   UNL     1      46.352   1.357   8.015  0.00  0.00    +0.000 A 
ATOM     15  C   UNL     1      47.084   1.531   6.862  0.00  0.00    +0.000 A 
ATOM     16  C   UNL     1      47.130   2.816   6.371  0.00  0.00    +0.000 A 
ATOM     17  N   UNL     1      46.516   3.854   6.961  0.00  0.00    +0.000 NA
ENDBRANCH  11  12
ENDBRANCH   9  11
ENDBRANCH   8   9
ENDBRANCH   5   8
ENDBRANCH   1   2
BRANCH   1  20
ATOM     18  O   UNL     1      47.610   3.135  17.168  0.00  0.00    +0.000 OA
ATOM     19  C   UNL     1      47.660   4.359  17.172  0.00  0.00    +0.000 C 
ATOM     20  N   UNL     1      47.653   5.136  16.045  0.00  0.00    +0.000 N 
ATOM     21  H   UNL     1      47.431   6.124  16.155  0.00  0.00    +0.000 HD
BRANCH  19  22
ATOM     22  C   UNL     1      47.866   5.124  18.401  0.00  0.00    +0.000 A 
ATOM     23  C   UNL     1      46.832   5.755  19.084  0.00  0.00    +0.000 A 
ATOM     24  S   UNL     1      47.398   6.961  20.150  0.00  0.00    +0.000 S 
ATOM     25  C   UNL     1      49.020   6.556  19.823  0.00  0.00    +0.000 A 
ATOM     26  N   UNL     1      50.051   7.278  20.332  0.00  0.00    +0.000 NA
ATOM     27  C   UNL     1      51.217   6.783  20.070  0.00  0.00    +0.000 A 
ATOM     28  N   UNL     1      51.440   5.608  19.395  0.00  0.00    +0.000 N 
ATOM     29  C   UNL     1      50.423   4.838  18.870  0.00  0.00    +0.000 A 
ATOM     30  O   UNL     1      50.630   3.717  18.417  0.00  0.00    +0.000 OA
ATOM     31  C   UNL     1      49.116   5.437  19.023  0.00  0.00    +0.000 A 
ATOM     32  H   UNL     1      52.368   5.217  19.336  0.00  0.00    +0.000 HD
ENDBRANCH  19  22
ENDBRANCH   1  20
TORSDOF 7
ENDMDL
MODEL 7
REMARK VINA RESULT:    -6.838      2.921      4.016
REMARK INTER + INTRA:         -10.610
REMARK INTER:                  -9.610
REMARK INTRA:                  -1.001
REMARK UNBOUND:                -0.974
REMARK  Name = 
REMARK  7 active torsions:
REMARK  status: ('A' for Active; 'I' for Inactive)
REMARK    1  A    between atoms: C_2  and  C_20
REMARK    2  A    between atoms: N_3  and  C_4
REMARK    3  A    between atoms: C_4  and  C_5
REMARK    4  A    between atoms: C_8  and  C_9
REMARK    5  A    between atoms: C_9  and  N_10
REMARK    6  A    between atoms: N_10  and  C_11
REMARK    7  A    between atoms: C_11  and  C_12
REMARK                            x       y       z     vdW  Elec       q    Type
REMARK                         _______ _______ _______ _____ _____    ______ ____
ROOT
ATOM      1  C   UNL     1      47.223   7.835  12.860  0.00  0.00    +0.000 C 
ENDROOT
BRANCH   1   2
ATOM      2  C   UNL     1      46.623   6.587  12.177  0.00  0.00    +0.000 C 
ATOM      3  C   UNL     1      45.276   6.874  11.478  0.00  0.00    +0.000 C 
ATOM      4  C   UNL     1      44.585   5.600  10.970  0.00  0.00    +0.000 C 
ATOM      5  C   UNL     1      44.424   4.554  12.084  0.00  0.00    +0.000 C 
ATOM      6  C   UNL     1      45.796   4.249  12.709  0.00  0.00    +0.000 C 
ATOM      7  C   UNL     1      46.457   5.503  13.246  0.00  0.00    +0.000 C 
BRANCH   5   8
ATOM      8  C   UNL     1      43.764   3.258  11.573  0.00  0.00    +0.000 C 
BRANCH   8   9
ATOM      9  N   UNL     1      44.758   2.472  10.850  0.00  0.00    +0.000 NA
ATOM     10  H   UNL     1      44.952   1.590  11.325  0.00  0.00    +0.000 HD
BRANCH   9  11
ATOM     11  C   UNL     1      44.362   2.173   9.467  0.00  0.00    +0.000 C 
BRANCH  11  12
ATOM     12  C   UNL     1      45.536   2.218   8.507  0.00  0.00    +0.000 A 
ATOM     13  N   UNL     1      45.854   3.414   7.957  0.00  0.00    +0.000 NA
ATOM     14  C   UNL     1      46.881   3.418   7.085  0.00  0.00    +0.000 A 
ATOM     15  C   UNL     1      47.591   2.291   6.740  0.00  0.00    +0.000 A 
ATOM     16  C   UNL     1      47.204   1.126   7.365  0.00  0.00    +0.000 A 
ATOM     17  N   UNL     1      46.196   1.064   8.250  0.00  0.00    +0.000 NA
ENDBRANCH  11  12
ENDBRANCH   9  11
ENDBRANCH   8   9
ENDBRANCH   5   8
ENDBRANCH   1   2
BRANCH   1  20
ATOM     18  O   UNL     1      48.124   8.728  15.431  0.00  0.00    +0.000 OA
ATOM     19  C   UNL     1      48.848   8.048  14.715  0.00  0.00    +0.000 C 
ATOM     20  N   UNL     1      48.514   7.621  13.459  0.00  0.00    +0.000 N 
ATOM     21  H   UNL     1      49.266   7.298  12.854  0.00  0.00    +0.000 HD
BRANCH  19  22
ATOM     22  C   UNL     1      50.120   7.503  15.191  0.00  0.00    +0.000 A 
ATOM     23  C   UNL     1      50.208   6.586  16.233  0.00  0.00    +0.000 A 
ATOM     24  S   UNL     1      51.776   6.516  16.905  0.00  0.00    +0.000 S 
ATOM     25  C   UNL     1      52.380   7.590  15.729  0.00  0.00    +0.000 A 
ATOM     26  N   UNL     1      53.655   8.053  15.776  0.00  0.00    +0.000 NA
ATOM     27  C   UNL     1      53.986   8.780  14.757  0.00  0.00    +0.000 A 
ATOM     28  N   UNL     1      53.177   9.037  13.677  0.00  0.00    +0.000 N 
ATOM     29  C   UNL     1      51.879   8.579  13.583  0.00  0.00    +0.000 A 
ATOM     30  O   UNL     1      51.233   8.680  12.547  0.00  0.00    +0.000 OA
ATOM     31  C   UNL     1      51.432   7.882  14.770  0.00  0.00    +0.000 A 
ATOM     32  H   UNL     1      53.542   9.506  12.862  0.00  0.00    +0.000 HD
ENDBRANCH  19  22
ENDBRANCH   1  20
TORSDOF 7
ENDMDL
MODEL 8
REMARK VINA RESULT:    -6.650      3.432      4.897
REMARK INTER + INTRA:         -10.345
REMARK INTER:                  -9.441
REMARK INTRA:                  -0.904
REMARK UNBOUND:                -0.974
REMARK  Name = 
REMARK  7 active torsions:
REMARK  status: ('A' for Active; 'I' for Inactive)
REMARK    1  A    between atoms: C_2  and  C_20
REMARK    2  A    between atoms: N_3  and  C_4
REMARK    3  A    between atoms: C_4  and  C_5
REMARK    4  A    between atoms: C_8  and  C_9
REMARK    5  A    between atoms: C_9  and  N_10
REMARK    6  A    between atoms: N_10  and  C_11
REMARK    7  A    between atoms: C_11  and  C_12
REMARK                            x       y       z     vdW  Elec       q    Type
REMARK                         _______ _______ _______ _____ _____    ______ ____
ROOT
ATOM      1  C   UNL     1      47.578   5.645  14.544  0.00  0.00    +0.000 C 
ENDROOT
BRANCH   1   2
ATOM      2  C   UNL     1      46.302   5.016  13.945  0.00  0.00    +0.000 C 
ATOM      3  C   UNL     1      46.581   3.711  13.170  0.00  0.00    +0.000 C 
ATOM      4  C   UNL     1      45.350   3.192  12.412  0.00  0.00    +0.000 C 
ATOM      5  C   UNL     1      44.748   4.268  11.494  0.00  0.00    +0.000 C 
ATOM      6  C   UNL     1      44.425   5.528  12.317  0.00  0.00    +0.000 C 
ATOM      7  C   UNL     1      45.652   6.059  13.031  0.00  0.00    +0.000 C 
BRANCH   5   8
ATOM      8  C   UNL     1      43.491   3.767  10.759  0.00  0.00    +0.000 C 
BRANCH   8   9
ATOM      9  N   UNL     1      43.892   3.140   9.504  0.00  0.00    +0.000 NA
ATOM     10  H   UNL     1      43.081   2.886   8.939  0.00  0.00    +0.000 HD
BRANCH   9  11
ATOM     11  C   UNL     1      44.772   3.991   8.690  0.00  0.00    +0.000 C 
BRANCH  11  12
ATOM     12  C   UNL     1      45.747   3.181   7.855  0.00  0.00    +0.000 A 
ATOM     13  N   UNL     1      46.055   1.934   8.280  0.00  0.00    +0.000 NA
ATOM     14  C   UNL     1      46.947   1.250   7.536  0.00  0.00    +0.000 A 
ATOM     15  C   UNL     1      47.540   1.758   6.402  0.00  0.00    +0.000 A 
ATOM     16  C   UNL     1      47.150   3.029   6.042  0.00  0.00    +0.000 A 
ATOM     17  N   UNL     1      46.258   3.752   6.738  0.00  0.00    +0.000 NA
ENDBRANCH  11  12
ENDBRANCH   9  11
ENDBRANCH   8   9
ENDBRANCH   5   8
ENDBRANCH   1   2
BRANCH   1  20
ATOM     18  O   UNL     1      48.674   8.059  15.635  0.00  0.00    +0.000 OA
ATOM     19  C   UNL     1      48.621   7.887  14.424  0.00  0.00    +0.000 C 
ATOM     20  N   UNL     1      48.073   6.787  13.822  0.00  0.00    +0.000 N 
ATOM     21  H   UNL     1      47.841   6.856  12.834  0.00  0.00    +0.000 HD
BRANCH  19  22
ATOM     22  C   UNL     1      49.269   8.799  13.481  0.00  0.00    +0.000 A 
ATOM     23  C   UNL     1      48.571   9.757  12.753  0.00  0.00    +0.000 A 
ATOM     24  S   UNL     1      49.452  10.311  11.399  0.00  0.00    +0.000 S 
ATOM     25  C   UNL     1      50.815   9.396  11.851  0.00  0.00    +0.000 A 
ATOM     26  N   UNL     1      51.917   9.323  11.062  0.00  0.00    +0.000 NA
ATOM     27  C   UNL     1      52.899   8.669  11.593  0.00  0.00    +0.000 A 
ATOM     28  N   UNL     1      52.897   8.133  12.857  0.00  0.00    +0.000 N 
ATOM     29  C   UNL     1      51.804   8.192  13.697  0.00  0.00    +0.000 A 
ATOM     30  O   UNL     1      51.875   7.854  14.873  0.00  0.00    +0.000 OA
ATOM     31  C   UNL     1      50.641   8.793  13.079  0.00  0.00    +0.000 A 
ATOM     32  H   UNL     1      53.740   7.747  13.254  0.00  0.00    +0.000 HD
ENDBRANCH  19  22
ENDBRANCH   1  20
TORSDOF 7
ENDMDL
MODEL 9
REMARK VINA RESULT:    -6.638      3.489      5.441
REMARK INTER + INTRA:         -10.328
REMARK INTER:                  -9.206
REMARK INTRA:                  -1.122
REMARK UNBOUND:                -0.974
REMARK  Name = 
REMARK  7 active torsions:
REMARK  status: ('A' for Active; 'I' for Inactive)
REMARK    1  A    between atoms: C_2  and  C_20
REMARK    2  A    between atoms: N_3  and  C_4
REMARK    3  A    between atoms: C_4  and  C_5
REMARK    4  A    between atoms: C_8  and  C_9
REMARK    5  A    between atoms: C_9  and  N_10
REMARK    6  A    between atoms: N_10  and  C_11
REMARK    7  A    between atoms: C_11  and  C_12
REMARK                            x       y       z     vdW  Elec       q    Type
REMARK                         _______ _______ _______ _____ _____    ______ ____
ROOT
ATOM      1  C   UNL     1      47.427   5.729  14.706  0.00  0.00    +0.000 C 
ENDROOT
BRANCH   1   2
ATOM      2  C   UNL     1      46.289   4.820  14.193  0.00  0.00    +0.000 C 
ATOM      3  C   UNL     1      46.801   3.645  13.332  0.00  0.00    +0.000 C 
ATOM      4  C   UNL     1      45.664   2.857  12.662  0.00  0.00    +0.000 C 
ATOM      5  C   UNL     1      44.731   3.775  11.857  0.00  0.00    +0.000 C 
ATOM      6  C   UNL     1      44.193   4.893  12.767  0.00  0.00    +0.000 C 
ATOM      7  C   UNL     1      45.317   5.693  13.394  0.00  0.00    +0.000 C 
BRANCH   5   8
ATOM      8  C   UNL     1      43.567   2.998  11.212  0.00  0.00    +0.000 C 
BRANCH   8   9
ATOM      9  N   UNL     1      44.018   2.430   9.946  0.00  0.00    +0.000 NA
ATOM     10  H   UNL     1      43.234   2.076   9.397  0.00  0.00    +0.000 HD
BRANCH   9  11
ATOM     11  C   UNL     1      44.766   3.386   9.119  0.00  0.00    +0.000 C 
BRANCH  11  12
ATOM     12  C   UNL     1      45.772   2.702   8.211  0.00  0.00    +0.000 A 
ATOM     13  N   UNL     1      45.978   1.376   8.386  0.00  0.00    +0.000 NA
ATOM     14  C   UNL     1      46.899   0.802   7.588  0.00  0.00    +0.000 A 
ATOM     15  C   UNL     1      47.617   1.491   6.637  0.00  0.00    +0.000 A 
ATOM     16  C   UNL     1      47.325   2.832   6.523  0.00  0.00    +0.000 A 
ATOM     17  N   UNL     1      46.410   3.455   7.283  0.00  0.00    +0.000 NA
ENDBRANCH  11  12
ENDBRANCH   9  11
ENDBRANCH   8   9
ENDBRANCH   5   8
ENDBRANCH   1   2
BRANCH   1  20
ATOM     18  O   UNL     1      49.328   7.837  15.111  0.00  0.00    +0.000 OA
ATOM     19  C   UNL     1      48.898   7.587  13.991  0.00  0.00    +0.000 C 
ATOM     20  N   UNL     1      47.957   6.631  13.719  0.00  0.00    +0.000 N 
ATOM     21  H   UNL     1      47.481   6.680  12.821  0.00  0.00    +0.000 HD
BRANCH  19  22
ATOM     22  C   UNL     1      49.454   8.209  12.790  0.00  0.00    +0.000 A 
ATOM     23  C   UNL     1      50.748   7.965  12.340  0.00  0.00    +0.000 A 
ATOM     24  S   UNL     1      51.296   9.167  11.259  0.00  0.00    +0.000 S 
ATOM     25  C   UNL     1      49.777   9.938  11.269  0.00  0.00    +0.000 A 
ATOM     26  N   UNL     1      49.572  11.115  10.626  0.00  0.00    +0.000 NA
ATOM     27  C   UNL     1      48.342  11.516  10.647  0.00  0.00    +0.000 A 
ATOM     28  N   UNL     1      47.296  10.820  11.204  0.00  0.00    +0.000 N 
ATOM     29  C   UNL     1      47.457   9.616  11.857  0.00  0.00    +0.000 A 
ATOM     30  O   UNL     1      46.497   8.935  12.202  0.00  0.00    +0.000 OA
ATOM     31  C   UNL     1      48.841   9.211  11.974  0.00  0.00    +0.000 A 
ATOM     32  H   UNL     1      46.345  11.130  11.074  0.00  0.00    +0.000 HD
ENDBRANCH  19  22
ENDBRANCH   1  20
TORSDOF 7
ENDMDL
