MODEL 1
REMARK VINA RESULT:    -8.777      0.000      0.000
REMARK INTER + INTRA:         -12.726
REMARK INTER:                 -11.855
REMARK INTRA:                  -0.871
REMARK UNBOUND:                -0.871
REMARK  Name = 
REMARK  7 active torsions:
REMARK  status: ('A' for Active; 'I' for Inactive)
REMARK    1  A    between atoms: C_1  and  C_2
REMARK    2  A    between atoms: C_2  and  C_3
REMARK    3  A    between atoms: C_2  and  C_24
REMARK    4  A    between atoms: C_3  and  N_4
REMARK    5  A    between atoms: C_7  and  C_8
REMARK    6  A    between atoms: C_8  and  N_9
REMARK    7  A    between atoms: C_10  and  C_12
REMARK                            x       y       z     vdW  Elec       q    Type
REMARK                         _______ _______ _______ _____ _____    ______ ____
ROOT
ATOM      1  C   UNL     1      45.221   4.589  13.498  0.00  0.00    +0.000 C 
ENDROOT
BRANCH   1   5
ATOM      2  N   UNL     1      44.149   4.920   9.944  0.00  0.00    +0.000 NA
ATOM      3  C   UNL     1      43.314   4.351  11.008  0.00  0.00    +0.000 C 
ATOM      4  C   UNL     1      43.168   5.340  12.162  0.00  0.00    +0.000 C 
ATOM      5  C   UNL     1      44.527   5.742  12.748  0.00  0.00    +0.000 C 
ATOM      6  C   UNL     1      45.415   6.258  11.607  0.00  0.00    +0.000 C 
ATOM      7  C   UNL     1      45.490   5.275  10.432  0.00  0.00    +0.000 C 
BRANCH   2   8
ATOM      8  C   UNL     1      44.244   4.037   8.761  0.00  0.00    +0.000 C 
BRANCH   8  10
ATOM      9  C   UNL     1      44.225   1.516   9.175  0.00  0.00    +0.000 C 
ATOM     10  C   UNL     1      45.094   2.761   8.978  0.00  0.00    +0.000 C 
BRANCH  10  11
ATOM     11  C   UNL     1      46.063   2.572   7.827  0.00  0.00    +0.000 A 
ATOM     12  C   UNL     1      46.202   3.569   6.860  0.00  0.00    +0.000 A 
ATOM     13  C   UNL     1      47.086   3.368   5.804  0.00  0.00    +0.000 A 
ATOM     14  C   UNL     1      47.811   2.185   5.742  0.00  0.00    +0.000 A 
ATOM     15  C   UNL     1      47.622   1.248   6.743  0.00  0.00    +0.000 A 
ATOM     16  N   UNL     1      46.768   1.412   7.774  0.00  0.00    +0.000 NA
ENDBRANCH  10  11
ENDBRANCH   8  10
ENDBRANCH   2   8
ENDBRANCH   1   5
BRANCH   1  17
ATOM     17  N   UNL     1      46.084   5.052  14.562  0.00  0.00    +0.000 N 
ATOM     18  C   UNL     1      47.177   4.346  14.994  0.00  0.00    +0.000 C 
ATOM     19  O   UNL     1      47.499   3.269  14.498  0.00  0.00    +0.000 OA
ATOM     20  H   UNL     1      45.787   5.876  15.074  0.00  0.00    +0.000 HD
BRANCH  18  21
ATOM     21  C   UNL     1      47.986   4.979  16.043  0.00  0.00    +0.000 A 
ATOM     22  C   UNL     1      48.691   6.139  15.755  0.00  0.00    +0.000 A 
ATOM     23  S   UNL     1      49.536   6.776  17.092  0.00  0.00    +0.000 S 
ATOM     24  C   UNL     1      49.027   5.497  18.092  0.00  0.00    +0.000 A 
ATOM     25  N   UNL     1      49.420   5.431  19.392  0.00  0.00    +0.000 NA
ATOM     26  C   UNL     1      48.994   4.391  20.027  0.00  0.00    +0.000 A 
ATOM     27  N   UNL     1      48.207   3.411  19.478  0.00  0.00    +0.000 N 
ATOM     28  C   UNL     1      47.746   3.460  18.185  0.00  0.00    +0.000 A 
ATOM     29  O   UNL     1      46.975   2.606  17.751  0.00  0.00    +0.000 OA
ATOM     30  C   UNL     1      48.214   4.602  17.420  0.00  0.00    +0.000 A 
ATOM     31  H   UNL     1      47.898   2.627  20.034  0.00  0.00    +0.000 HD
ENDBRANCH  18  21
ENDBRANCH   1  17
TORSDOF 6
ENDMDL
MODEL 2
REMARK VINA RESULT:    -8.577      1.499      2.289
REMARK INTER + INTRA:         -12.457
REMARK INTER:                 -11.434
REMARK INTRA:                  -1.023
REMARK UNBOUND:                -0.871
REMARK  Name = 
REMARK  7 active torsions:
REMARK  status: ('A' for Active; 'I' for Inactive)
REMARK    1  A    between atoms: C_1  and  C_2
REMARK    2  A    between atoms: C_2  and  C_3
REMARK    3  A    between atoms: C_2  and  C_24
REMARK    4  A    between atoms: C_3  and  N_4
REMARK    5  A    between atoms: C_7  and  C_8
REMARK    6  A    between atoms: C_8  and  N_9
REMARK    7  A    between atoms: C_10  and  C_12
REMARK                            x       y       z     vdW  Elec       q    Type
REMARK                         _______ _______ _______ _____ _____    ______ ____
ROOT
ATOM      1  C   UNL     1      46.094   4.579  13.530  0.00  0.00    +0.000 C 
ENDROOT
BRANCH   1   5
ATOM      2  N   UNL     1      44.259   4.874  10.299  0.00  0.00    +0.000 NA
ATOM      3  C   UNL     1      43.751   4.158  11.475  0.00  0.00    +0.000 C 
ATOM      4  C   UNL     1      43.724   5.078  12.692  0.00  0.00    +0.000 C 
ATOM      5  C   UNL     1      45.112   5.647  13.011  0.00  0.00    +0.000 C 
ATOM      6  C   UNL     1      45.663   6.321  11.747  0.00  0.00    +0.000 C 
ATOM      7  C   UNL     1      45.615   5.398  10.522  0.00  0.00    +0.000 C 
BRANCH   2   8
ATOM      8  C   UNL     1      44.217   4.053   9.069  0.00  0.00    +0.000 C 
BRANCH   8  10
ATOM      9  C   UNL     1      44.163   1.506   9.263  0.00  0.00    +0.000 C 
ATOM     10  C   UNL     1      45.048   2.749   9.138  0.00  0.00    +0.000 C 
BRANCH  10  11
ATOM     11  C   UNL     1      45.964   2.645   7.933  0.00  0.00    +0.000 A 
ATOM     12  C   UNL     1      46.715   1.488   7.724  0.00  0.00    +0.000 A 
ATOM     13  C   UNL     1      47.561   1.421   6.621  0.00  0.00    +0.000 A 
ATOM     14  C   UNL     1      47.631   2.503   5.754  0.00  0.00    +0.000 A 
ATOM     15  C   UNL     1      46.850   3.613   6.025  0.00  0.00    +0.000 A 
ATOM     16  N   UNL     1      46.027   3.709   7.090  0.00  0.00    +0.000 NA
ENDBRANCH  10  11
ENDBRANCH   8  10
ENDBRANCH   2   8
ENDBRANCH   1   5
BRANCH   1  17
ATOM     17  N   UNL     1      46.713   4.949  14.783  0.00  0.00    +0.000 N 
ATOM     18  C   UNL     1      47.491   4.087  15.512  0.00  0.00    +0.000 C 
ATOM     19  O   UNL     1      47.716   2.938  15.143  0.00  0.00    +0.000 OA
ATOM     20  H   UNL     1      46.457   5.848  15.179  0.00  0.00    +0.000 HD
BRANCH  18  21
ATOM     21  C   UNL     1      48.096   4.632  16.733  0.00  0.00    +0.000 A 
ATOM     22  C   UNL     1      47.791   4.061  17.961  0.00  0.00    +0.000 A 
ATOM     23  S   UNL     1      48.615   4.774  19.271  0.00  0.00    +0.000 S 
ATOM     24  C   UNL     1      49.375   5.903  18.250  0.00  0.00    +0.000 A 
ATOM     25  N   UNL     1      50.225   6.837  18.755  0.00  0.00    +0.000 NA
ATOM     26  C   UNL     1      50.702   7.655  17.877  0.00  0.00    +0.000 A 
ATOM     27  N   UNL     1      50.408   7.620  16.538  0.00  0.00    +0.000 N 
ATOM     28  C   UNL     1      49.595   6.665  15.976  0.00  0.00    +0.000 A 
ATOM     29  O   UNL     1      49.418   6.615  14.760  0.00  0.00    +0.000 OA
ATOM     30  C   UNL     1      49.015   5.733  16.925  0.00  0.00    +0.000 A 
ATOM     31  H   UNL     1      50.825   8.283  15.902  0.00  0.00    +0.000 HD
ENDBRANCH  18  21
ENDBRANCH   1  17
TORSDOF 6
ENDMDL
MODEL 3
REMARK VINA RESULT:    -8.076      1.474      2.059
REMARK INTER + INTRA:         -11.780
REMARK INTER:                 -11.770
REMARK INTRA:                  -0.011
REMARK UNBOUND:                -0.871
REMARK  Name = 
REMARK  7 active torsions:
REMARK  status: ('A' for Active; 'I' for Inactive)
REMARK    1  A    between atoms: C_1  and  C_2
REMARK    2  A    between atoms: C_2  and  C_3
REMARK    3  A    between atoms: C_2  and  C_24
REMARK    4  A    between atoms: C_3  and  N_4
REMARK    5  A    between atoms: C_7  and  C_8
REMARK    6  A    between atoms: C_8  and  N_9
REMARK    7  A    between atoms: C_10  and  C_12
REMARK                            x       y       z     vdW  Elec       q    Type
REMARK                         _______ _______ _______ _____ _____    ______ ____
ROOT
ATOM      1  C   UNL     1      44.854   6.618  12.610  0.00  0.00    +0.000 C 
ENDROOT
BRANCH   1   5
ATOM      2  N   UNL     1      43.889   3.458  10.886  0.00  0.00    +0.000 NA
ATOM      3  C   UNL     1      44.910   3.546  11.936  0.00  0.00    +0.000 C 
ATOM      4  C   UNL     1      44.328   4.180  13.197  0.00  0.00    +0.000 C 
ATOM      5  C   UNL     1      43.761   5.580  12.926  0.00  0.00    +0.000 C 
ATOM      6  C   UNL     1      42.756   5.481  11.770  0.00  0.00    +0.000 C 
ATOM      7  C   UNL     1      43.345   4.779  10.540  0.00  0.00    +0.000 C 
BRANCH   2   8
ATOM      8  C   UNL     1      44.376   2.764   9.673  0.00  0.00    +0.000 C 
BRANCH   8  10
ATOM      9  C   UNL     1      45.642   4.934   9.202  0.00  0.00    +0.000 C 
ATOM     10  C   UNL     1      44.970   3.701   8.592  0.00  0.00    +0.000 C 
BRANCH  10  11
ATOM     11  C   UNL     1      45.936   2.936   7.707  0.00  0.00    +0.000 A 
ATOM     12  C   UNL     1      46.394   3.506   6.519  0.00  0.00    +0.000 A 
ATOM     13  C   UNL     1      47.268   2.780   5.714  0.00  0.00    +0.000 A 
ATOM     14  C   UNL     1      47.666   1.512   6.117  0.00  0.00    +0.000 A 
ATOM     15  C   UNL     1      47.173   1.019   7.313  0.00  0.00    +0.000 A 
ATOM     16  N   UNL     1      46.320   1.697   8.109  0.00  0.00    +0.000 NA
ENDBRANCH  10  11
ENDBRANCH   8  10
ENDBRANCH   2   8
ENDBRANCH   1   5
BRANCH   1  17
ATOM     17  N   UNL     1      45.909   6.640  13.598  0.00  0.00    +0.000 N 
ATOM     18  C   UNL     1      47.233   6.489  13.277  0.00  0.00    +0.000 C 
ATOM     19  O   UNL     1      47.612   6.329  12.120  0.00  0.00    +0.000 OA
ATOM     20  H   UNL     1      45.630   6.652  14.574  0.00  0.00    +0.000 HD
BRANCH  18  21
ATOM     21  C   UNL     1      48.187   6.593  14.388  0.00  0.00    +0.000 A 
ATOM     22  C   UNL     1      49.124   7.618  14.389  0.00  0.00    +0.000 A 
ATOM     23  S   UNL     1      50.121   7.632  15.772  0.00  0.00    +0.000 S 
ATOM     24  C   UNL     1      49.368   6.240  16.396  0.00  0.00    +0.000 A 
ATOM     25  N   UNL     1      49.769   5.702  17.579  0.00  0.00    +0.000 NA
ATOM     26  C   UNL     1      49.140   4.626  17.917  0.00  0.00    +0.000 A 
ATOM     27  N   UNL     1      48.143   4.041  17.179  0.00  0.00    +0.000 N 
ATOM     28  C   UNL     1      47.672   4.575  16.004  0.00  0.00    +0.000 A 
ATOM     29  O   UNL     1      46.722   4.069  15.410  0.00  0.00    +0.000 OA
ATOM     30  C   UNL     1      48.361   5.776  15.568  0.00  0.00    +0.000 A 
ATOM     31  H   UNL     1      47.683   3.205  17.507  0.00  0.00    +0.000 HD
ENDBRANCH  18  21
ENDBRANCH   1  17
TORSDOF 6
ENDMDL
MODEL 4
REMARK VINA RESULT:    -7.189      2.736      4.053
REMARK INTER + INTRA:         -10.583
REMARK INTER:                  -9.759
REMARK INTRA:                  -0.824
REMARK UNBOUND:                -0.871
REMARK  Name = 
REMARK  7 active torsions:
REMARK  status: ('A' for Active; 'I' for Inactive)
REMARK    1  A    between atoms: C_1  and  C_2
REMARK    2  A    between atoms: C_2  and  C_3
REMARK    3  A    between atoms: C_2  and  C_24
REMARK    4  A    between atoms: C_3  and  N_4
REMARK    5  A    between atoms: C_7  and  C_8
REMARK    6  A    between atoms: C_8  and  N_9
REMARK    7  A    between atoms: C_10  and  C_12
REMARK                            x       y       z     vdW  Elec       q    Type
REMARK                         _______ _______ _______ _____ _____    ______ ____
ROOT
ATOM      1  C   UNL     1      48.451   7.359  15.399  0.00  0.00    +0.000 C 
ENDROOT
BRANCH   1   5
ATOM      2  N   UNL     1      46.506   7.212  12.223  0.00  0.00    +0.000 NA
ATOM      3  C   UNL     1      46.425   8.313  13.190  0.00  0.00    +0.000 C 
ATOM      4  C   UNL     1      47.811   8.897  13.452  0.00  0.00    +0.000 C 
ATOM      5  C   UNL     1      48.790   7.839  13.975  0.00  0.00    +0.000 C 
ATOM      6  C   UNL     1      48.799   6.659  12.993  0.00  0.00    +0.000 C 
ATOM      7  C   UNL     1      47.389   6.135  12.693  0.00  0.00    +0.000 C 
BRANCH   2   8
ATOM      8  C   UNL     1      45.177   6.672  11.862  0.00  0.00    +0.000 C 
BRANCH   8  10
ATOM      9  C   UNL     1      43.764   4.807  12.890  0.00  0.00    +0.000 C 
ATOM     10  C   UNL     1      45.021   5.147  12.084  0.00  0.00    +0.000 C 
BRANCH  10  11
ATOM     11  C   UNL     1      45.028   4.419  10.754  0.00  0.00    +0.000 A 
ATOM     12  C   UNL     1      45.576   5.030   9.625  0.00  0.00    +0.000 A 
ATOM     13  C   UNL     1      45.557   4.350   8.411  0.00  0.00    +0.000 A 
ATOM     14  C   UNL     1      45.003   3.078   8.356  0.00  0.00    +0.000 A 
ATOM     15  C   UNL     1      44.486   2.536   9.520  0.00  0.00    +0.000 A 
ATOM     16  N   UNL     1      44.483   3.175  10.708  0.00  0.00    +0.000 NA
ENDBRANCH  10  11
ENDBRANCH   8  10
ENDBRANCH   2   8
ENDBRANCH   1   5
BRANCH   1  17
ATOM     17  N   UNL     1      49.539   6.640  16.022  0.00  0.00    +0.000 N 
ATOM     18  C   UNL     1      49.341   5.626  16.923  0.00  0.00    +0.000 C 
ATOM     19  O   UNL     1      48.219   5.257  17.258  0.00  0.00    +0.000 OA
ATOM     20  H   UNL     1      50.478   6.991  15.862  0.00  0.00    +0.000 HD
BRANCH  18  21
ATOM     21  C   UNL     1      50.548   4.956  17.422  0.00  0.00    +0.000 A 
ATOM     22  C   UNL     1      51.565   5.713  17.989  0.00  0.00    +0.000 A 
ATOM     23  S   UNL     1      52.871   4.782  18.566  0.00  0.00    +0.000 S 
ATOM     24  C   UNL     1      52.146   3.337  18.037  0.00  0.00    +0.000 A 
ATOM     25  N   UNL     1      52.766   2.140  18.216  0.00  0.00    +0.000 NA
ATOM     26  C   UNL     1      52.125   1.128  17.735  0.00  0.00    +0.000 A 
ATOM     27  N   UNL     1      50.915   1.206  17.093  0.00  0.00    +0.000 N 
ATOM     28  C   UNL     1      50.229   2.385  16.932  0.00  0.00    +0.000 A 
ATOM     29  O   UNL     1      49.110   2.406  16.423  0.00  0.00    +0.000 OA
ATOM     30  C   UNL     1      50.918   3.558  17.438  0.00  0.00    +0.000 A 
ATOM     31  H   UNL     1      50.461   0.373  16.749  0.00  0.00    +0.000 HD
ENDBRANCH  18  21
ENDBRANCH   1  17
TORSDOF 6
ENDMDL
MODEL 5
REMARK VINA RESULT:    -7.019      3.247      9.397
REMARK INTER + INTRA:         -10.353
REMARK INTER:                  -9.064
REMARK INTRA:                  -1.289
REMARK UNBOUND:                -0.871
REMARK  Name = 
REMARK  7 active torsions:
REMARK  status: ('A' for Active; 'I' for Inactive)
REMARK    1  A    between atoms: C_1  and  C_2
REMARK    2  A    between atoms: C_2  and  C_3
REMARK    3  A    between atoms: C_2  and  C_24
REMARK    4  A    between atoms: C_3  and  N_4
REMARK    5  A    between atoms: C_7  and  C_8
REMARK    6  A    between atoms: C_8  and  N_9
REMARK    7  A    between atoms: C_10  and  C_12
REMARK                            x       y       z     vdW  Elec       q    Type
REMARK                         _______ _______ _______ _____ _____    ______ ____
ROOT
ATOM      1  C   UNL     1      48.051   4.893  16.355  0.00  0.00    +0.000 C 
ENDROOT
BRANCH   1   5
ATOM      2  N   UNL     1      50.315   5.549  19.242  0.00  0.00    +0.000 NA
ATOM      3  C   UNL     1      50.521   6.087  17.893  0.00  0.00    +0.000 C 
ATOM      4  C   UNL     1      49.289   6.861  17.431  0.00  0.00    +0.000 C 
ATOM      5  C   UNL     1      48.028   5.988  17.438  0.00  0.00    +0.000 C 
ATOM      6  C   UNL     1      47.874   5.369  18.833  0.00  0.00    +0.000 C 
ATOM      7  C   UNL     1      49.149   4.656  19.303  0.00  0.00    +0.000 C 
BRANCH   2   8
ATOM      8  C   UNL     1      51.516   4.870  19.775  0.00  0.00    +0.000 C 
BRANCH   8  10
ATOM      9  C   UNL     1      53.992   5.173  19.220  0.00  0.00    +0.000 C 
ATOM     10  C   UNL     1      52.640   4.643  18.735  0.00  0.00    +0.000 C 
BRANCH  10  11
ATOM     11  C   UNL     1      52.731   3.173  18.370  0.00  0.00    +0.000 A 
ATOM     12  C   UNL     1      51.680   2.555  17.693  0.00  0.00    +0.000 A 
ATOM     13  C   UNL     1      51.777   1.201  17.383  0.00  0.00    +0.000 A 
ATOM     14  C   UNL     1      52.920   0.503  17.749  0.00  0.00    +0.000 A 
ATOM     15  C   UNL     1      53.923   1.188  18.413  0.00  0.00    +0.000 A 
ATOM     16  N   UNL     1      53.852   2.497  18.733  0.00  0.00    +0.000 NA
ENDBRANCH  10  11
ENDBRANCH   8  10
ENDBRANCH   2   8
ENDBRANCH   1   5
BRANCH   1  17
ATOM     17  N   UNL     1      47.144   5.165  15.263  0.00  0.00    +0.000 N 
ATOM     18  C   UNL     1      47.522   5.843  14.133  0.00  0.00    +0.000 C 
ATOM     19  O   UNL     1      48.665   6.263  13.973  0.00  0.00    +0.000 OA
ATOM     20  H   UNL     1      46.165   4.938  15.406  0.00  0.00    +0.000 HD
BRANCH  18  21
ATOM     21  C   UNL     1      46.499   5.987  13.089  0.00  0.00    +0.000 A 
ATOM     22  C   UNL     1      46.158   7.255  12.639  0.00  0.00    +0.000 A 
ATOM     23  S   UNL     1      44.996   7.248  11.391  0.00  0.00    +0.000 S 
ATOM     24  C   UNL     1      44.874   5.552  11.440  0.00  0.00    +0.000 A 
ATOM     25  N   UNL     1      44.021   4.890  10.612  0.00  0.00    +0.000 NA
ATOM     26  C   UNL     1      43.999   3.610  10.780  0.00  0.00    +0.000 A 
ATOM     27  N   UNL     1      44.757   2.931  11.699  0.00  0.00    +0.000 N 
ATOM     28  C   UNL     1      45.667   3.551  12.521  0.00  0.00    +0.000 A 
ATOM     29  O   UNL     1      46.388   2.902  13.276  0.00  0.00    +0.000 OA
ATOM     30  C   UNL     1      45.716   4.996  12.387  0.00  0.00    +0.000 A 
ATOM     31  H   UNL     1      44.701   1.926  11.771  0.00  0.00    +0.000 HD
ENDBRANCH  18  21
ENDBRANCH   1  17
TORSDOF 6
ENDMDL
MODEL 6
REMARK VINA RESULT:    -6.960      3.276      8.931
REMARK INTER + INTRA:         -10.272
REMARK INTER:                  -9.491
REMARK INTRA:                  -0.781
REMARK UNBOUND:                -0.871
REMARK  Name = 
REMARK  7 active torsions:
REMARK  status: ('A' for Active; 'I' for Inactive)
REMARK    1  A    between atoms: C_1  and  C_2
REMARK    2  A    between atoms: C_2  and  C_3
REMARK    3  A    between atoms: C_2  and  C_24
REMARK    4  A    between atoms: C_3  and  N_4
REMARK    5  A    between atoms: C_7  and  C_8
REMARK    6  A    between atoms: C_8  and  N_9
REMARK    7  A    between atoms: C_10  and  C_12
REMARK                            x       y       z     vdW  Elec       q    Type
REMARK                         _______ _______ _______ _____ _____    ______ ____
ROOT
ATOM      1  C   UNL     1      46.761   8.157  12.313  0.00  0.00    +0.000 C 
ENDROOT
BRANCH   1   5
ATOM      2  N   UNL     1      49.097   7.775  15.192  0.00  0.00    +0.000 NA
ATOM      3  C   UNL     1      48.567   6.656  14.405  0.00  0.00    +0.000 C 
ATOM      4  C   UNL     1      48.878   6.849  12.923  0.00  0.00    +0.000 C 
ATOM      5  C   UNL     1      48.300   8.163  12.382  0.00  0.00    +0.000 C 
ATOM      6  C   UNL     1      48.799   9.313  13.267  0.00  0.00    +0.000 C 
ATOM      7  C   UNL     1      48.536   9.063  14.758  0.00  0.00    +0.000 C 
BRANCH   2   8
ATOM      8  C   UNL     1      48.905   7.591  16.647  0.00  0.00    +0.000 C 
BRANCH   8  10
ATOM      9  C   UNL     1      50.347   6.945  18.656  0.00  0.00    +0.000 C 
ATOM     10  C   UNL     1      49.819   6.515  17.284  0.00  0.00    +0.000 C 
BRANCH  10  11
ATOM     11  C   UNL     1      49.088   5.189  17.374  0.00  0.00    +0.000 A 
ATOM     12  C   UNL     1      49.806   3.993  17.354  0.00  0.00    +0.000 A 
ATOM     13  C   UNL     1      49.114   2.788  17.421  0.00  0.00    +0.000 A 
ATOM     14  C   UNL     1      47.728   2.806  17.513  0.00  0.00    +0.000 A 
ATOM     15  C   UNL     1      47.089   4.033  17.534  0.00  0.00    +0.000 A 
ATOM     16  N   UNL     1      47.733   5.216  17.463  0.00  0.00    +0.000 NA
ENDBRANCH  10  11
ENDBRANCH   8  10
ENDBRANCH   2   8
ENDBRANCH   1   5
BRANCH   1  17
ATOM     17  N   UNL     1      46.215   6.838  12.086  0.00  0.00    +0.000 N 
ATOM     18  C   UNL     1      44.948   6.629  11.607  0.00  0.00    +0.000 C 
ATOM     19  O   UNL     1      44.190   7.556  11.334  0.00  0.00    +0.000 OA
ATOM     20  H   UNL     1      46.764   6.047  12.407  0.00  0.00    +0.000 HD
BRANCH  18  21
ATOM     21  C   UNL     1      44.563   5.232  11.375  0.00  0.00    +0.000 A 
ATOM     22  C   UNL     1      43.796   4.568  12.323  0.00  0.00    +0.000 A 
ATOM     23  S   UNL     1      43.390   2.973  11.880  0.00  0.00    +0.000 S 
ATOM     24  C   UNL     1      44.263   3.096  10.426  0.00  0.00    +0.000 A 
ATOM     25  N   UNL     1      44.334   2.045   9.565  0.00  0.00    +0.000 NA
ATOM     26  C   UNL     1      45.060   2.260   8.519  0.00  0.00    +0.000 A 
ATOM     27  N   UNL     1      45.719   3.433   8.254  0.00  0.00    +0.000 N 
ATOM     28  C   UNL     1      45.637   4.536   9.069  0.00  0.00    +0.000 A 
ATOM     29  O   UNL     1      46.175   5.598   8.760  0.00  0.00    +0.000 OA
ATOM     30  C   UNL     1      44.849   4.340  10.272  0.00  0.00    +0.000 A 
ATOM     31  H   UNL     1      46.262   3.540   7.410  0.00  0.00    +0.000 HD
ENDBRANCH  18  21
ENDBRANCH   1  17
TORSDOF 6
ENDMDL
MODEL 7
REMARK VINA RESULT:    -6.758      3.774      8.503
REMARK INTER + INTRA:          -9.999
REMARK INTER:                  -8.955
REMARK INTRA:                  -1.044
REMARK UNBOUND:                -0.871
REMARK  Name = 
REMARK  7 active torsions:
REMARK  status: ('A' for Active; 'I' for Inactive)
REMARK    1  A    between atoms: C_1  and  C_2
REMARK    2  A    between atoms: C_2  and  C_3
REMARK    3  A    between atoms: C_2  and  C_24
REMARK    4  A    between atoms: C_3  and  N_4
REMARK    5  A    between atoms: C_7  and  C_8
REMARK    6  A    between atoms: C_8  and  N_9
REMARK    7  A    between atoms: C_10  and  C_12
REMARK                            x       y       z     vdW  Elec       q    Type
REMARK                         _______ _______ _______ _____ _____    ______ ____
ROOT
ATOM      1  C   UNL     1      49.611   7.390  12.873  0.00  0.00    +0.000 C 
ENDROOT
BRANCH   1   5
ATOM      2  N   UNL     1      49.665   8.550  16.414  0.00  0.00    +0.000 NA
ATOM      3  C   UNL     1      50.861   8.177  15.650  0.00  0.00    +0.000 C 
ATOM      4  C   UNL     1      50.947   8.991  14.361  0.00  0.00    +0.000 C 
ATOM      5  C   UNL     1      49.706   8.802  13.479  0.00  0.00    +0.000 C 
ATOM      6  C   UNL     1      48.462   9.117  14.320  0.00  0.00    +0.000 C 
ATOM      7  C   UNL     1      48.433   8.338  15.641  0.00  0.00    +0.000 C 
BRANCH   2   8
ATOM      8  C   UNL     1      49.584   7.857  17.719  0.00  0.00    +0.000 C 
BRANCH   8  10
ATOM      9  C   UNL     1      51.140   6.345  19.069  0.00  0.00    +0.000 C 
ATOM     10  C   UNL     1      50.336   6.505  17.776  0.00  0.00    +0.000 C 
BRANCH  10  11
ATOM     11  C   UNL     1      49.364   5.354  17.594  0.00  0.00    +0.000 A 
ATOM     12  C   UNL     1      48.010   5.531  17.882  0.00  0.00    +0.000 A 
ATOM     13  C   UNL     1      47.139   4.458  17.723  0.00  0.00    +0.000 A 
ATOM     14  C   UNL     1      47.636   3.242  17.275  0.00  0.00    +0.000 A 
ATOM     15  C   UNL     1      48.990   3.147  17.004  0.00  0.00    +0.000 A 
ATOM     16  N   UNL     1      49.859   4.168  17.156  0.00  0.00    +0.000 NA
ENDBRANCH  10  11
ENDBRANCH   8  10
ENDBRANCH   2   8
ENDBRANCH   1   5
BRANCH   1  17
ATOM     17  N   UNL     1      48.279   7.066  12.414  0.00  0.00    +0.000 N 
ATOM     18  C   UNL     1      47.496   6.113  13.013  0.00  0.00    +0.000 C 
ATOM     19  O   UNL     1      47.878   5.471  13.988  0.00  0.00    +0.000 OA
ATOM     20  H   UNL     1      47.973   7.489  11.544  0.00  0.00    +0.000 HD
BRANCH  18  21
ATOM     21  C   UNL     1      46.145   5.942  12.465  0.00  0.00    +0.000 A 
ATOM     22  C   UNL     1      45.460   7.049  11.981  0.00  0.00    +0.000 A 
ATOM     23  S   UNL     1      43.929   6.675  11.331  0.00  0.00    +0.000 S 
ATOM     24  C   UNL     1      44.107   5.028  11.716  0.00  0.00    +0.000 A 
ATOM     25  N   UNL     1      43.121   4.135  11.432  0.00  0.00    +0.000 NA
ATOM     26  C   UNL     1      43.369   2.926  11.811  0.00  0.00    +0.000 A 
ATOM     27  N   UNL     1      44.517   2.528  12.446  0.00  0.00    +0.000 N 
ATOM     28  C   UNL     1      45.560   3.383  12.710  0.00  0.00    +0.000 A 
ATOM     29  O   UNL     1      46.607   2.975  13.207  0.00  0.00    +0.000 OA
ATOM     30  C   UNL     1      45.323   4.762  12.322  0.00  0.00    +0.000 A 
ATOM     31  H   UNL     1      44.654   1.563  12.706  0.00  0.00    +0.000 HD
ENDBRANCH  18  21
ENDBRANCH   1  17
TORSDOF 6
ENDMDL
MODEL 8
REMARK VINA RESULT:    -6.720      3.678      9.781
REMARK INTER + INTRA:          -9.948
REMARK INTER:                  -8.945
REMARK INTRA:                  -1.003
REMARK UNBOUND:                -0.871
REMARK  Name = 
REMARK  7 active torsions:
REMARK  status: ('A' for Active; 'I' for Inactive)
REMARK    1  A    between atoms: C_1  and  C_2
REMARK    2  A    between atoms: C_2  and  C_3
REMARK    3  A    between atoms: C_2  and  C_24
REMARK    4  A    between atoms: C_3  and  N_4
REMARK    5  A    between atoms: C_7  and  C_8
REMARK    6  A    between atoms: C_8  and  N_9
REMARK    7  A    between atoms: C_10  and  C_12
REMARK                            x       y       z     vdW  Elec       q    Type
REMARK                         _______ _______ _______ _____ _____    ______ ____
ROOT
ATOM      1  C   UNL     1      48.310   5.410  15.947  0.00  0.00    +0.000 C 
ENDROOT
BRANCH   1   5
ATOM      2  N   UNL     1      50.267   4.311  18.923  0.00  0.00    +0.000 NA
ATOM      3  C   UNL     1      49.702   5.656  18.757  0.00  0.00    +0.000 C 
ATOM      4  C   UNL     1      48.199   5.578  18.502  0.00  0.00    +0.000 C 
ATOM      5  C   UNL     1      47.871   4.737  17.261  0.00  0.00    +0.000 C 
ATOM      6  C   UNL     1      48.538   3.364  17.416  0.00  0.00    +0.000 C 
ATOM      7  C   UNL     1      50.033   3.470  17.740  0.00  0.00    +0.000 C 
BRANCH   2   8
ATOM      8  C   UNL     1      51.705   4.335  19.266  0.00  0.00    +0.000 C 
BRANCH   8  10
ATOM      9  C   UNL     1      53.316   5.118  17.443  0.00  0.00    +0.000 C 
ATOM     10  C   UNL     1      52.648   3.914  18.113  0.00  0.00    +0.000 C 
BRANCH  10  11
ATOM     11  C   UNL     1      53.685   2.927  18.615  0.00  0.00    +0.000 A 
ATOM     12  C   UNL     1      54.389   2.131  17.710  0.00  0.00    +0.000 A 
ATOM     13  C   UNL     1      55.324   1.221  18.194  0.00  0.00    +0.000 A 
ATOM     14  C   UNL     1      55.538   1.133  19.563  0.00  0.00    +0.000 A 
ATOM     15  C   UNL     1      54.806   1.960  20.396  0.00  0.00    +0.000 A 
ATOM     16  N   UNL     1      53.888   2.846  19.956  0.00  0.00    +0.000 NA
ENDBRANCH  10  11
ENDBRANCH   8  10
ENDBRANCH   2   8
ENDBRANCH   1   5
BRANCH   1  17
ATOM     17  N   UNL     1      47.225   5.556  15.003  0.00  0.00    +0.000 N 
ATOM     18  C   UNL     1      47.419   5.933  13.699  0.00  0.00    +0.000 C 
ATOM     19  O   UNL     1      48.535   6.168  13.245  0.00  0.00    +0.000 OA
ATOM     20  H   UNL     1      46.281   5.485  15.368  0.00  0.00    +0.000 HD
BRANCH  18  21
ATOM     21  C   UNL     1      46.222   5.979  12.851  0.00  0.00    +0.000 A 
ATOM     22  C   UNL     1      45.745   7.205  12.408  0.00  0.00    +0.000 A 
ATOM     23  S   UNL     1      44.382   7.083  11.392  0.00  0.00    +0.000 S 
ATOM     24  C   UNL     1      44.351   5.389  11.545  0.00  0.00    +0.000 A 
ATOM     25  N   UNL     1      43.397   4.650  10.918  0.00  0.00    +0.000 NA
ATOM     26  C   UNL     1      43.466   3.382  11.149  0.00  0.00    +0.000 A 
ATOM     27  N   UNL     1      44.407   2.785  11.948  0.00  0.00    +0.000 N 
ATOM     28  C   UNL     1      45.418   3.484  12.562  0.00  0.00    +0.000 A 
ATOM     29  O   UNL     1      46.292   2.906  13.205  0.00  0.00    +0.000 OA
ATOM     30  C   UNL     1      45.373   4.920  12.351  0.00  0.00    +0.000 A 
ATOM     31  H   UNL     1      44.412   1.784  12.078  0.00  0.00    +0.000 HD
ENDBRANCH  18  21
ENDBRANCH   1  17
TORSDOF 6
ENDMDL
MODEL 9
REMARK VINA RESULT:    -6.587      3.055      4.307
REMARK INTER + INTRA:          -9.769
REMARK INTER:                  -8.708
REMARK INTRA:                  -1.061
REMARK UNBOUND:                -0.871
REMARK  Name = 
REMARK  7 active torsions:
REMARK  status: ('A' for Active; 'I' for Inactive)
REMARK    1  A    between atoms: C_1  and  C_2
REMARK    2  A    between atoms: C_2  and  C_3
REMARK    3  A    between atoms: C_2  and  C_24
REMARK    4  A    between atoms: C_3  and  N_4
REMARK    5  A    between atoms: C_7  and  C_8
REMARK    6  A    between atoms: C_8  and  N_9
REMARK    7  A    between atoms: C_10  and  C_12
REMARK                            x       y       z     vdW  Elec       q    Type
REMARK                         _______ _______ _______ _____ _____    ______ ____
ROOT
ATOM      1  C   UNL     1      48.830   6.927  14.107  0.00  0.00    +0.000 C 
ENDROOT
BRANCH   1   5
ATOM      2  N   UNL     1      46.029   7.590  11.740  0.00  0.00    +0.000 NA
ATOM      3  C   UNL     1      45.977   7.871  13.179  0.00  0.00    +0.000 C 
ATOM      4  C   UNL     1      47.135   8.777  13.589  0.00  0.00    +0.000 C 
ATOM      5  C   UNL     1      48.496   8.159  13.246  0.00  0.00    +0.000 C 
ATOM      6  C   UNL     1      48.502   7.797  11.755  0.00  0.00    +0.000 C 
ATOM      7  C   UNL     1      47.292   6.943  11.354  0.00  0.00    +0.000 C 
BRANCH   2   8
ATOM      8  C   UNL     1      44.874   6.792  11.272  0.00  0.00    +0.000 C 
BRANCH   8  10
ATOM      9  C   UNL     1      43.733   4.966  12.649  0.00  0.00    +0.000 C 
ATOM     10  C   UNL     1      44.897   5.308  11.715  0.00  0.00    +0.000 C 
BRANCH  10  11
ATOM     11  C   UNL     1      44.907   4.397  10.502  0.00  0.00    +0.000 A 
ATOM     12  C   UNL     1      45.430   4.853   9.291  0.00  0.00    +0.000 A 
ATOM     13  C   UNL     1      45.414   4.006   8.186  0.00  0.00    +0.000 A 
ATOM     14  C   UNL     1      44.887   2.729   8.319  0.00  0.00    +0.000 A 
ATOM     15  C   UNL     1      44.394   2.348   9.556  0.00  0.00    +0.000 A 
ATOM     16  N   UNL     1      44.389   3.150  10.641  0.00  0.00    +0.000 NA
ENDBRANCH  10  11
ENDBRANCH   8  10
ENDBRANCH   2   8
ENDBRANCH   1   5
BRANCH   1  17
ATOM     17  N   UNL     1      48.398   7.069  15.479  0.00  0.00    +0.000 N 
ATOM     18  C   UNL     1      49.042   6.466  16.529  0.00  0.00    +0.000 C 
ATOM     19  O   UNL     1      50.038   5.764  16.369  0.00  0.00    +0.000 OA
ATOM     20  H   UNL     1      47.515   7.543  15.641  0.00  0.00    +0.000 HD
BRANCH  18  21
ATOM     21  C   UNL     1      48.515   6.755  17.868  0.00  0.00    +0.000 A 
ATOM     22  C   UNL     1      48.360   5.719  18.779  0.00  0.00    +0.000 A 
ATOM     23  S   UNL     1      47.789   6.228  20.302  0.00  0.00    +0.000 S 
ATOM     24  C   UNL     1      47.684   7.845  19.784  0.00  0.00    +0.000 A 
ATOM     25  N   UNL     1      47.240   8.818  20.624  0.00  0.00    +0.000 NA
ATOM     26  C   UNL     1      47.174   9.993  20.092  0.00  0.00    +0.000 A 
ATOM     27  N   UNL     1      47.516  10.283  18.796  0.00  0.00    +0.000 N 
ATOM     28  C   UNL     1      48.015   9.343  17.928  0.00  0.00    +0.000 A 
ATOM     29  O   UNL     1      48.388   9.655  16.798  0.00  0.00    +0.000 OA
ATOM     30  C   UNL     1      48.090   7.999  18.470  0.00  0.00    +0.000 A 
ATOM     31  H   UNL     1      47.451  11.227  18.446  0.00  0.00    +0.000 HD
ENDBRANCH  18  21
ENDBRANCH   1  17
TORSDOF 6
ENDMDL
