MODEL 1
REMARK VINA RESULT:    -8.267      0.000      0.000
REMARK INTER + INTRA:         -11.657
REMARK INTER:                 -11.167
REMARK INTRA:                  -0.489
REMARK UNBOUND:                -0.489
REMARK  Name = 
REMARK  9 active torsions:
REMARK  status: ('A' for Active; 'I' for Inactive)
REMARK    1  A    between atoms: C_1  and  C_2
REMARK    2  A    between atoms: C_2  and  C_3
REMARK    3  A    between atoms: C_2  and  O_4
REMARK    4  A    between atoms: C_2  and  C_5
REMARK    5  A    between atoms: C_9  and  C_10
REMARK    6  A    between atoms: C_10  and  N_11
REMARK    7  A    between atoms: N_11  and  C_12
REMARK    8  A    between atoms: C_15  and  C_16
REMARK    9  A    between atoms: C_20  and  N_21
REMARK                            x       y       z     vdW  Elec       q    Type
REMARK                         _______ _______ _______ _____ _____    ______ ____
ROOT
ATOM      1  N   UNL     1      43.890   4.891   9.733  0.00  0.00    +0.000 N 
ATOM      2  H   UNL     1      44.038   5.806   9.323  0.00  0.00    +0.000 HD
ENDROOT
BRANCH   1   3
ATOM      3  C   UNL     1      44.821   4.041   9.154  0.00  0.00    +0.000 A 
ATOM      4  N   UNL     1      45.603   4.691   8.272  0.00  0.00    +0.000 NA
ATOM      5  C   UNL     1      46.464   3.937   7.533  0.00  0.00    +0.000 A 
ATOM      6  C   UNL     1      46.566   2.561   7.697  0.00  0.00    +0.000 A 
ATOM      7  N   UNL     1      45.817   1.886   8.609  0.00  0.00    +0.000 NA
ATOM      8  C   UNL     1      44.935   2.632   9.327  0.00  0.00    +0.000 A 
BRANCH   6   9
ATOM      9  C   UNL     1      47.501   1.760   6.842  0.00  0.00    +0.000 C 
ATOM     10  N   UNL     1      48.608   2.383   6.311  0.00  0.00    +0.000 N 
ATOM     11  O   UNL     1      47.304   0.584   6.610  0.00  0.00    +0.000 OA
ATOM     12  H   UNL     1      48.829   3.365   6.441  0.00  0.00    +0.000 HD
ATOM     13  H   UNL     1      49.196   1.823   5.726  0.00  0.00    +0.000 HD
ENDBRANCH   6   9
BRANCH   8  14
ATOM     14  N   UNL     1      44.104   1.863  10.139  0.00  0.00    +0.000 N 
ATOM     15  H   UNL     1      43.994   2.348  11.019  0.00  0.00    +0.000 HD
ATOM     16  H   UNL     1      43.208   1.653   9.720  0.00  0.00    +0.000 HD
ENDBRANCH   8  14
ENDBRANCH   1   3
BRANCH   1  17
ATOM     17  C   UNL     1      43.567   4.845  11.141  0.00  0.00    +0.000 C 
BRANCH  17  22
ATOM     18  C   UNL     1      46.154   6.836  12.827  0.00  0.00    +0.000 A 
ATOM     19  N   UNL     1      46.875   5.960  13.557  0.00  0.00    +0.000 NA
ATOM     20  C   UNL     1      46.507   4.672  13.495  0.00  0.00    +0.000 A 
ATOM     21  C   UNL     1      45.446   4.216  12.745  0.00  0.00    +0.000 A 
ATOM     22  C   UNL     1      44.741   5.176  12.039  0.00  0.00    +0.000 A 
ATOM     23  N   UNL     1      45.092   6.479  12.076  0.00  0.00    +0.000 NA
BRANCH  18  25
ATOM     24  C   UNL     1      45.331   9.138  12.393  0.00  0.00    +0.000 C 
ATOM     25  C   UNL     1      46.514   8.320  12.920  0.00  0.00    +0.000 C 
ATOM     26  C   UNL     1      47.784   8.663  12.130  0.00  0.00    +0.000 C 
BRANCH  25  27
ATOM     27  O   UNL     1      46.762   8.686  14.289  0.00  0.00    +0.000 OA
ATOM     28  H   UNL     1      47.720   8.623  14.439  0.00  0.00    +0.000 HD
ENDBRANCH  25  27
ENDBRANCH  18  25
ENDBRANCH  17  22
ENDBRANCH   1  17
TORSDOF 7
ENDMDL
MODEL 2
REMARK VINA RESULT:    -7.903      1.275      1.568
REMARK INTER + INTRA:         -11.164
REMARK INTER:                 -10.614
REMARK INTRA:                  -0.550
REMARK UNBOUND:                -0.489
REMARK  Name = 
REMARK  9 active torsions:
REMARK  status: ('A' for Active; 'I' for Inactive)
REMARK    1  A    between atoms: C_1  and  C_2
REMARK    2  A    between atoms: C_2  and  C_3
REMARK    3  A    between atoms: C_2  and  O_4
REMARK    4  A    between atoms: C_2  and  C_5
REMARK    5  A    between atoms: C_9  and  C_10
REMARK    6  A    between atoms: C_10  and  N_11
REMARK    7  A    between atoms: N_11  and  C_12
REMARK    8  A    between atoms: C_15  and  C_16
REMARK    9  A    between atoms: C_20  and  N_21
REMARK                            x       y       z     vdW  Elec       q    Type
REMARK                         _______ _______ _______ _____ _____    ______ ____
ROOT
ATOM      1  N   UNL     1      43.814   4.827   9.718  0.00  0.00    +0.000 N 
ATOM      2  H   UNL     1      43.712   5.629   9.106  0.00  0.00    +0.000 HD
ENDROOT
BRANCH   1   3
ATOM      3  C   UNL     1      44.767   4.003   9.140  0.00  0.00    +0.000 A 
ATOM      4  N   UNL     1      45.538   4.676   8.265  0.00  0.00    +0.000 NA
ATOM      5  C   UNL     1      46.420   3.946   7.527  0.00  0.00    +0.000 A 
ATOM      6  C   UNL     1      46.554   2.572   7.685  0.00  0.00    +0.000 A 
ATOM      7  N   UNL     1      45.817   1.875   8.589  0.00  0.00    +0.000 NA
ATOM      8  C   UNL     1      44.914   2.596   9.306  0.00  0.00    +0.000 A 
BRANCH   6   9
ATOM      9  C   UNL     1      47.512   1.798   6.831  0.00  0.00    +0.000 C 
ATOM     10  N   UNL     1      48.566   2.466   6.249  0.00  0.00    +0.000 N 
ATOM     11  O   UNL     1      47.379   0.606   6.643  0.00  0.00    +0.000 OA
ATOM     12  H   UNL     1      48.732   3.463   6.340  0.00  0.00    +0.000 HD
ATOM     13  H   UNL     1      49.171   1.921   5.666  0.00  0.00    +0.000 HD
ENDBRANCH   6   9
BRANCH   8  14
ATOM     14  N   UNL     1      44.097   1.804  10.110  0.00  0.00    +0.000 N 
ATOM     15  H   UNL     1      43.943   2.298  10.979  0.00  0.00    +0.000 HD
ATOM     16  H   UNL     1      43.223   1.547   9.673  0.00  0.00    +0.000 HD
ENDBRANCH   8  14
ENDBRANCH   1   3
BRANCH   1  17
ATOM     17  C   UNL     1      43.762   5.077  11.141  0.00  0.00    +0.000 C 
BRANCH  17  22
ATOM     18  C   UNL     1      45.299   8.349  11.795  0.00  0.00    +0.000 A 
ATOM     19  N   UNL     1      46.506   8.087  12.338  0.00  0.00    +0.000 NA
ATOM     20  C   UNL     1      46.833   6.797  12.494  0.00  0.00    +0.000 A 
ATOM     21  C   UNL     1      46.008   5.751  12.141  0.00  0.00    +0.000 A 
ATOM     22  C   UNL     1      44.778   6.099  11.610  0.00  0.00    +0.000 A 
ATOM     23  N   UNL     1      44.423   7.390  11.434  0.00  0.00    +0.000 NA
BRANCH  18  25
ATOM     24  C   UNL     1      44.032   9.952  10.384  0.00  0.00    +0.000 C 
ATOM     25  C   UNL     1      44.874   9.813  11.656  0.00  0.00    +0.000 C 
ATOM     26  C   UNL     1      46.075  10.766  11.598  0.00  0.00    +0.000 C 
BRANCH  25  27
ATOM     27  O   UNL     1      44.080  10.209  12.788  0.00  0.00    +0.000 OA
ATOM     28  H   UNL     1      43.597   9.425  13.096  0.00  0.00    +0.000 HD
ENDBRANCH  25  27
ENDBRANCH  18  25
ENDBRANCH  17  22
ENDBRANCH   1  17
TORSDOF 7
ENDMDL
MODEL 3
REMARK VINA RESULT:    -7.785      1.358      2.083
REMARK INTER + INTRA:         -11.005
REMARK INTER:                 -10.463
REMARK INTRA:                  -0.542
REMARK UNBOUND:                -0.489
REMARK  Name = 
REMARK  9 active torsions:
REMARK  status: ('A' for Active; 'I' for Inactive)
REMARK    1  A    between atoms: C_1  and  C_2
REMARK    2  A    between atoms: C_2  and  C_3
REMARK    3  A    between atoms: C_2  and  O_4
REMARK    4  A    between atoms: C_2  and  C_5
REMARK    5  A    between atoms: C_9  and  C_10
REMARK    6  A    between atoms: C_10  and  N_11
REMARK    7  A    between atoms: N_11  and  C_12
REMARK    8  A    between atoms: C_15  and  C_16
REMARK    9  A    between atoms: C_20  and  N_21
REMARK                            x       y       z     vdW  Elec       q    Type
REMARK                         _______ _______ _______ _____ _____    ______ ____
ROOT
ATOM      1  N   UNL     1      43.985   4.994   9.733  0.00  0.00    +0.000 N 
ATOM      2  H   UNL     1      43.977   5.833   9.164  0.00  0.00    +0.000 HD
ENDROOT
BRANCH   1   3
ATOM      3  C   UNL     1      44.886   4.120   9.143  0.00  0.00    +0.000 A 
ATOM      4  N   UNL     1      45.685   4.753   8.263  0.00  0.00    +0.000 NA
ATOM      5  C   UNL     1      46.518   3.978   7.515  0.00  0.00    +0.000 A 
ATOM      6  C   UNL     1      46.578   2.598   7.667  0.00  0.00    +0.000 A 
ATOM      7  N   UNL     1      45.812   1.940   8.576  0.00  0.00    +0.000 NA
ATOM      8  C   UNL     1      44.956   2.707   9.304  0.00  0.00    +0.000 A 
BRANCH   6   9
ATOM      9  C   UNL     1      47.483   1.776   6.801  0.00  0.00    +0.000 C 
ATOM     10  N   UNL     1      48.598   2.373   6.257  0.00  0.00    +0.000 N 
ATOM     11  O   UNL     1      47.256   0.605   6.572  0.00  0.00    +0.000 OA
ATOM     12  H   UNL     1      48.844   3.349   6.384  0.00  0.00    +0.000 HD
ATOM     13  H   UNL     1      49.166   1.799   5.664  0.00  0.00    +0.000 HD
ENDBRANCH   6   9
BRANCH   8  14
ATOM     14  N   UNL     1      44.104   1.958  10.113  0.00  0.00    +0.000 N 
ATOM     15  H   UNL     1      43.191   1.951   9.681  0.00  0.00    +0.000 HD
ATOM     16  H   UNL     1      44.435   1.019  10.291  0.00  0.00    +0.000 HD
ENDBRANCH   8  14
ENDBRANCH   1   3
BRANCH   1  17
ATOM     17  C   UNL     1      43.898   5.171  11.166  0.00  0.00    +0.000 C 
BRANCH  17  22
ATOM     18  C   UNL     1      46.650   6.785  12.988  0.00  0.00    +0.000 A 
ATOM     19  N   UNL     1      46.502   8.110  12.782  0.00  0.00    +0.000 NA
ATOM     20  C   UNL     1      45.465   8.493  12.024  0.00  0.00    +0.000 A 
ATOM     21  C   UNL     1      44.571   7.614  11.452  0.00  0.00    +0.000 A 
ATOM     22  C   UNL     1      44.800   6.270  11.691  0.00  0.00    +0.000 A 
ATOM     23  N   UNL     1      45.831   5.855  12.457  0.00  0.00    +0.000 NA
BRANCH  18  25
ATOM     24  C   UNL     1      47.441   5.079  14.609  0.00  0.00    +0.000 C 
ATOM     25  C   UNL     1      47.856   6.313  13.803  0.00  0.00    +0.000 C 
ATOM     26  C   UNL     1      48.386   7.403  14.745  0.00  0.00    +0.000 C 
BRANCH  25  27
ATOM     27  O   UNL     1      48.940   5.956  12.926  0.00  0.00    +0.000 OA
ATOM     28  H   UNL     1      48.589   5.338  12.264  0.00  0.00    +0.000 HD
ENDBRANCH  25  27
ENDBRANCH  18  25
ENDBRANCH  17  22
ENDBRANCH   1  17
TORSDOF 7
ENDMDL
MODEL 4
REMARK VINA RESULT:    -7.497      2.293      3.533
REMARK INTER + INTRA:         -10.616
REMARK INTER:                 -10.081
REMARK INTRA:                  -0.535
REMARK UNBOUND:                -0.489
REMARK  Name = 
REMARK  9 active torsions:
REMARK  status: ('A' for Active; 'I' for Inactive)
REMARK    1  A    between atoms: C_1  and  C_2
REMARK    2  A    between atoms: C_2  and  C_3
REMARK    3  A    between atoms: C_2  and  O_4
REMARK    4  A    between atoms: C_2  and  C_5
REMARK    5  A    between atoms: C_9  and  C_10
REMARK    6  A    between atoms: C_10  and  N_11
REMARK    7  A    between atoms: N_11  and  C_12
REMARK    8  A    between atoms: C_15  and  C_16
REMARK    9  A    between atoms: C_20  and  N_21
REMARK                            x       y       z     vdW  Elec       q    Type
REMARK                         _______ _______ _______ _____ _____    ______ ____
ROOT
ATOM      1  N   UNL     1      44.515   3.922  11.212  0.00  0.00    +0.000 N 
ATOM      2  H   UNL     1      44.353   4.923  11.251  0.00  0.00    +0.000 HD
ENDROOT
BRANCH   1   3
ATOM      3  C   UNL     1      45.041   3.652   9.957  0.00  0.00    +0.000 A 
ATOM      4  N   UNL     1      45.063   2.330   9.704  0.00  0.00    +0.000 NA
ATOM      5  C   UNL     1      45.686   1.929   8.561  0.00  0.00    +0.000 A 
ATOM      6  C   UNL     1      46.248   2.834   7.670  0.00  0.00    +0.000 A 
ATOM      7  N   UNL     1      46.203   4.176   7.882  0.00  0.00    +0.000 NA
ATOM      8  C   UNL     1      45.608   4.579   9.036  0.00  0.00    +0.000 A 
BRANCH   6   9
ATOM      9  C   UNL     1      46.955   2.352   6.440  0.00  0.00    +0.000 C 
ATOM     10  N   UNL     1      47.125   3.226   5.390  0.00  0.00    +0.000 N 
ATOM     11  O   UNL     1      47.377   1.217   6.351  0.00  0.00    +0.000 OA
ATOM     12  H   UNL     1      46.783   4.181   5.380  0.00  0.00    +0.000 HD
ATOM     13  H   UNL     1      47.581   2.861   4.576  0.00  0.00    +0.000 HD
ENDBRANCH   6   9
BRANCH   8  14
ATOM     14  N   UNL     1      45.720   5.950   9.259  0.00  0.00    +0.000 N 
ATOM     15  H   UNL     1      44.809   6.298   9.522  0.00  0.00    +0.000 HD
ATOM     16  H   UNL     1      46.420   6.193   9.947  0.00  0.00    +0.000 HD
ENDBRANCH   8  14
ENDBRANCH   1   3
BRANCH   1  17
ATOM     17  C   UNL     1      45.008   3.290  12.414  0.00  0.00    +0.000 C 
BRANCH  17  22
ATOM     18  C   UNL     1      47.201   4.400  15.145  0.00  0.00    +0.000 A 
ATOM     19  N   UNL     1      47.729   5.574  14.739  0.00  0.00    +0.000 NA
ATOM     20  C   UNL     1      47.353   6.023  13.534  0.00  0.00    +0.000 A 
ATOM     21  C   UNL     1      46.481   5.350  12.705  0.00  0.00    +0.000 A 
ATOM     22  C   UNL     1      45.999   4.143  13.181  0.00  0.00    +0.000 A 
ATOM     23  N   UNL     1      46.352   3.669  14.394  0.00  0.00    +0.000 NA
BRANCH  18  25
ATOM     24  C   UNL     1      48.416   4.929  17.244  0.00  0.00    +0.000 C 
ATOM     25  C   UNL     1      47.654   3.834  16.492  0.00  0.00    +0.000 C 
ATOM     26  C   UNL     1      48.540   2.591  16.335  0.00  0.00    +0.000 C 
BRANCH  25  27
ATOM     27  O   UNL     1      46.513   3.437  17.273  0.00  0.00    +0.000 OA
ATOM     28  H   UNL     1      45.789   3.242  16.655  0.00  0.00    +0.000 HD
ENDBRANCH  25  27
ENDBRANCH  18  25
ENDBRANCH  17  22
ENDBRANCH   1  17
TORSDOF 7
ENDMDL
MODEL 5
REMARK VINA RESULT:    -7.139      3.613      5.633
REMARK INTER + INTRA:         -10.132
REMARK INTER:                  -9.060
REMARK INTRA:                  -1.072
REMARK UNBOUND:                -0.489
REMARK  Name = 
REMARK  9 active torsions:
REMARK  status: ('A' for Active; 'I' for Inactive)
REMARK    1  A    between atoms: C_1  and  C_2
REMARK    2  A    between atoms: C_2  and  C_3
REMARK    3  A    between atoms: C_2  and  O_4
REMARK    4  A    between atoms: C_2  and  C_5
REMARK    5  A    between atoms: C_9  and  C_10
REMARK    6  A    between atoms: C_10  and  N_11
REMARK    7  A    between atoms: N_11  and  C_12
REMARK    8  A    between atoms: C_15  and  C_16
REMARK    9  A    between atoms: C_20  and  N_21
REMARK                            x       y       z     vdW  Elec       q    Type
REMARK                         _______ _______ _______ _____ _____    ______ ____
ROOT
ATOM      1  N   UNL     1      47.096   6.997  13.652  0.00  0.00    +0.000 N 
ATOM      2  H   UNL     1      46.781   7.920  13.377  0.00  0.00    +0.000 HD
ENDROOT
BRANCH   1   3
ATOM      3  C   UNL     1      46.471   6.094  12.806  0.00  0.00    +0.000 A 
ATOM      4  N   UNL     1      46.290   6.612  11.576  0.00  0.00    +0.000 NA
ATOM      5  C   UNL     1      45.560   5.874  10.694  0.00  0.00    +0.000 A 
ATOM      6  C   UNL     1      45.049   4.625  11.023  0.00  0.00    +0.000 A 
ATOM      7  N   UNL     1      45.252   4.061  12.243  0.00  0.00    +0.000 NA
ATOM      8  C   UNL     1      45.954   4.808  13.137  0.00  0.00    +0.000 A 
BRANCH   6   9
ATOM      9  C   UNL     1      44.222   3.858  10.036  0.00  0.00    +0.000 C 
ATOM     10  N   UNL     1      44.050   4.377   8.773  0.00  0.00    +0.000 N 
ATOM     11  O   UNL     1      43.706   2.797  10.325  0.00  0.00    +0.000 OA
ATOM     12  H   UNL     1      44.431   5.265   8.463  0.00  0.00    +0.000 HD
ATOM     13  H   UNL     1      43.472   3.849   8.149  0.00  0.00    +0.000 HD
ENDBRANCH   6   9
BRANCH   8  14
ATOM     14  N   UNL     1      46.006   4.237  14.406  0.00  0.00    +0.000 N 
ATOM     15  H   UNL     1      45.056   4.088  14.719  0.00  0.00    +0.000 HD
ATOM     16  H   UNL     1      46.544   3.382  14.445  0.00  0.00    +0.000 HD
ENDBRANCH   8  14
ENDBRANCH   1   3
BRANCH   1  17
ATOM     17  C   UNL     1      48.482   6.864  14.044  0.00  0.00    +0.000 C 
BRANCH  17  22
ATOM     18  C   UNL     1      48.393   4.918  17.158  0.00  0.00    +0.000 A 
ATOM     19  N   UNL     1      48.859   5.742  18.121  0.00  0.00    +0.000 NA
ATOM     20  C   UNL     1      49.211   6.978  17.742  0.00  0.00    +0.000 A 
ATOM     21  C   UNL     1      49.130   7.432  16.443  0.00  0.00    +0.000 A 
ATOM     22  C   UNL     1      48.663   6.524  15.509  0.00  0.00    +0.000 A 
ATOM     23  N   UNL     1      48.293   5.274  15.862  0.00  0.00    +0.000 NA
BRANCH  18  25
ATOM     24  C   UNL     1      48.487   3.250  18.995  0.00  0.00    +0.000 C 
ATOM     25  C   UNL     1      48.036   3.483  17.550  0.00  0.00    +0.000 C 
ATOM     26  C   UNL     1      48.686   2.446  16.622  0.00  0.00    +0.000 C 
BRANCH  25  27
ATOM     27  O   UNL     1      46.613   3.285  17.466  0.00  0.00    +0.000 OA
ATOM     28  H   UNL     1      46.187   4.128  17.688  0.00  0.00    +0.000 HD
ENDBRANCH  25  27
ENDBRANCH  18  25
ENDBRANCH  17  22
ENDBRANCH   1  17
TORSDOF 7
ENDMDL
MODEL 6
REMARK VINA RESULT:    -6.399      4.396      8.086
REMARK INTER + INTRA:          -9.133
REMARK INTER:                  -8.663
REMARK INTRA:                  -0.470
REMARK UNBOUND:                -0.489
REMARK  Name = 
REMARK  9 active torsions:
REMARK  status: ('A' for Active; 'I' for Inactive)
REMARK    1  A    between atoms: C_1  and  C_2
REMARK    2  A    between atoms: C_2  and  C_3
REMARK    3  A    between atoms: C_2  and  O_4
REMARK    4  A    between atoms: C_2  and  C_5
REMARK    5  A    between atoms: C_9  and  C_10
REMARK    6  A    between atoms: C_10  and  N_11
REMARK    7  A    between atoms: N_11  and  C_12
REMARK    8  A    between atoms: C_15  and  C_16
REMARK    9  A    between atoms: C_20  and  N_21
REMARK                            x       y       z     vdW  Elec       q    Type
REMARK                         _______ _______ _______ _____ _____    ______ ____
ROOT
ATOM      1  N   UNL     1      47.148   5.078  15.672  0.00  0.00    +0.000 N 
ATOM      2  H   UNL     1      46.348   5.388  16.211  0.00  0.00    +0.000 HD
ENDROOT
BRANCH   1   3
ATOM      3  C   UNL     1      48.168   4.832  16.578  0.00  0.00    +0.000 A 
ATOM      4  N   UNL     1      49.246   5.600  16.331  0.00  0.00    +0.000 NA
ATOM      5  C   UNL     1      50.366   5.351  17.066  0.00  0.00    +0.000 A 
ATOM      6  C   UNL     1      50.397   4.376  18.056  0.00  0.00    +0.000 A 
ATOM      7  N   UNL     1      49.311   3.616  18.353  0.00  0.00    +0.000 NA
ATOM      8  C   UNL     1      48.200   3.840  17.600  0.00  0.00    +0.000 A 
BRANCH   6   9
ATOM      9  C   UNL     1      51.658   4.110  18.820  0.00  0.00    +0.000 C 
ATOM     10  N   UNL     1      52.283   2.894  18.659  0.00  0.00    +0.000 N 
ATOM     11  O   UNL     1      52.135   4.936  19.572  0.00  0.00    +0.000 OA
ATOM     12  H   UNL     1      51.937   2.146  18.068  0.00  0.00    +0.000 HD
ATOM     13  H   UNL     1      53.110   2.743  19.205  0.00  0.00    +0.000 HD
ENDBRANCH   6   9
BRANCH   8  14
ATOM     14  N   UNL     1      47.172   2.936  17.860  0.00  0.00    +0.000 N 
ATOM     15  H   UNL     1      47.070   2.341  17.050  0.00  0.00    +0.000 HD
ATOM     16  H   UNL     1      47.312   2.393  18.701  0.00  0.00    +0.000 HD
ENDBRANCH   8  14
ENDBRANCH   1   3
BRANCH   1  17
ATOM     17  C   UNL     1      46.885   4.212  14.544  0.00  0.00    +0.000 C 
BRANCH  17  22
ATOM     18  C   UNL     1      45.269   4.997  11.340  0.00  0.00    +0.000 A 
ATOM     19  N   UNL     1      45.839   6.143  10.911  0.00  0.00    +0.000 NA
ATOM     20  C   UNL     1      46.787   6.677  11.693  0.00  0.00    +0.000 A 
ATOM     21  C   UNL     1      47.190   6.128  12.890  0.00  0.00    +0.000 A 
ATOM     22  C   UNL     1      46.545   4.964  13.274  0.00  0.00    +0.000 A 
ATOM     23  N   UNL     1      45.592   4.398  12.503  0.00  0.00    +0.000 NA
BRANCH  18  25
ATOM     24  C   UNL     1      43.487   3.269  11.304  0.00  0.00    +0.000 C 
ATOM     25  C   UNL     1      44.144   4.392  10.497  0.00  0.00    +0.000 C 
ATOM     26  C   UNL     1      44.650   3.848   9.153  0.00  0.00    +0.000 C 
BRANCH  25  27
ATOM     27  O   UNL     1      43.156   5.393  10.196  0.00  0.00    +0.000 OA
ATOM     28  H   UNL     1      42.636   5.543  11.003  0.00  0.00    +0.000 HD
ENDBRANCH  25  27
ENDBRANCH  18  25
ENDBRANCH  17  22
ENDBRANCH   1  17
TORSDOF 7
ENDMDL
MODEL 7
REMARK VINA RESULT:    -6.365      2.727      6.405
REMARK INTER + INTRA:          -9.087
REMARK INTER:                  -8.316
REMARK INTRA:                  -0.771
REMARK UNBOUND:                -0.489
REMARK  Name = 
REMARK  9 active torsions:
REMARK  status: ('A' for Active; 'I' for Inactive)
REMARK    1  A    between atoms: C_1  and  C_2
REMARK    2  A    between atoms: C_2  and  C_3
REMARK    3  A    between atoms: C_2  and  O_4
REMARK    4  A    between atoms: C_2  and  C_5
REMARK    5  A    between atoms: C_9  and  C_10
REMARK    6  A    between atoms: C_10  and  N_11
REMARK    7  A    between atoms: N_11  and  C_12
REMARK    8  A    between atoms: C_15  and  C_16
REMARK    9  A    between atoms: C_20  and  N_21
REMARK                            x       y       z     vdW  Elec       q    Type
REMARK                         _______ _______ _______ _____ _____    ______ ____
ROOT
ATOM      1  N   UNL     1      46.861   5.526  14.263  0.00  0.00    +0.000 N 
ATOM      2  H   UNL     1      47.417   5.516  15.111  0.00  0.00    +0.000 HD
ENDROOT
BRANCH   1   3
ATOM      3  C   UNL     1      47.391   6.517  13.452  0.00  0.00    +0.000 A 
ATOM      4  N   UNL     1      48.718   6.363  13.284  0.00  0.00    +0.000 NA
ATOM      5  C   UNL     1      49.378   7.354  12.622  0.00  0.00    +0.000 A 
ATOM      6  C   UNL     1      48.719   8.463  12.106  0.00  0.00    +0.000 A 
ATOM      7  N   UNL     1      47.375   8.622  12.225  0.00  0.00    +0.000 NA
ATOM      8  C   UNL     1      46.717   7.650  12.912  0.00  0.00    +0.000 A 
BRANCH   6   9
ATOM      9  C   UNL     1      49.485   9.548  11.413  0.00  0.00    +0.000 C 
ATOM     10  N   UNL     1      48.824  10.704  11.064  0.00  0.00    +0.000 N 
ATOM     11  O   UNL     1      50.667   9.431  11.156  0.00  0.00    +0.000 OA
ATOM     12  H   UNL     1      47.836  10.868  11.225  0.00  0.00    +0.000 HD
ATOM     13  H   UNL     1      49.363  11.396  10.581  0.00  0.00    +0.000 HD
ENDBRANCH   6   9
BRANCH   8  14
ATOM     14  N   UNL     1      45.371   7.943  13.119  0.00  0.00    +0.000 N 
ATOM     15  H   UNL     1      45.317   8.813  13.632  0.00  0.00    +0.000 HD
ATOM     16  H   UNL     1      44.828   7.984  12.267  0.00  0.00    +0.000 HD
ENDBRANCH   8  14
ENDBRANCH   1   3
BRANCH   1  17
ATOM     17  C   UNL     1      46.428   4.247  13.747  0.00  0.00    +0.000 C 
BRANCH  17  22
ATOM     18  C   UNL     1      44.483   4.266  10.631  0.00  0.00    +0.000 A 
ATOM     19  N   UNL     1      43.212   4.543  10.991  0.00  0.00    +0.000 NA
ATOM     20  C   UNL     1      42.981   4.734  12.298  0.00  0.00    +0.000 A 
ATOM     21  C   UNL     1      43.958   4.653  13.266  0.00  0.00    +0.000 A 
ATOM     22  C   UNL     1      45.232   4.345  12.822  0.00  0.00    +0.000 A 
ATOM     23  N   UNL     1      45.497   4.155  11.512  0.00  0.00    +0.000 NA
BRANCH  18  25
ATOM     24  C   UNL     1      44.997   2.484   8.981  0.00  0.00    +0.000 C 
ATOM     25  C   UNL     1      44.768   3.988   9.153  0.00  0.00    +0.000 C 
ATOM     26  C   UNL     1      45.985   4.768   8.637  0.00  0.00    +0.000 C 
BRANCH  25  27
ATOM     27  O   UNL     1      43.645   4.386   8.347  0.00  0.00    +0.000 OA
ATOM     28  H   UNL     1      42.920   4.618   8.950  0.00  0.00    +0.000 HD
ENDBRANCH  25  27
ENDBRANCH  18  25
ENDBRANCH  17  22
ENDBRANCH   1  17
TORSDOF 7
ENDMDL
MODEL 8
REMARK VINA RESULT:    -6.292      3.550      7.771
REMARK INTER + INTRA:          -8.988
REMARK INTER:                  -8.738
REMARK INTRA:                  -0.250
REMARK UNBOUND:                -0.489
REMARK  Name = 
REMARK  9 active torsions:
REMARK  status: ('A' for Active; 'I' for Inactive)
REMARK    1  A    between atoms: C_1  and  C_2
REMARK    2  A    between atoms: C_2  and  C_3
REMARK    3  A    between atoms: C_2  and  O_4
REMARK    4  A    between atoms: C_2  and  C_5
REMARK    5  A    between atoms: C_9  and  C_10
REMARK    6  A    between atoms: C_10  and  N_11
REMARK    7  A    between atoms: N_11  and  C_12
REMARK    8  A    between atoms: C_15  and  C_16
REMARK    9  A    between atoms: C_20  and  N_21
REMARK                            x       y       z     vdW  Elec       q    Type
REMARK                         _______ _______ _______ _____ _____    ______ ____
ROOT
ATOM      1  N   UNL     1      46.182   4.513  14.669  0.00  0.00    +0.000 N 
ATOM      2  H   UNL     1      45.680   3.641  14.797  0.00  0.00    +0.000 HD
ENDROOT
BRANCH   1   3
ATOM      3  C   UNL     1      47.304   4.449  15.481  0.00  0.00    +0.000 A 
ATOM      4  N   UNL     1      47.426   3.241  16.062  0.00  0.00    +0.000 NA
ATOM      5  C   UNL     1      48.410   3.098  16.993  0.00  0.00    +0.000 A 
ATOM      6  C   UNL     1      49.279   4.134  17.314  0.00  0.00    +0.000 A 
ATOM      7  N   UNL     1      49.202   5.351  16.713  0.00  0.00    +0.000 NA
ATOM      8  C   UNL     1      48.202   5.507  15.805  0.00  0.00    +0.000 A 
BRANCH   6   9
ATOM      9  C   UNL     1      50.327   3.949  18.369  0.00  0.00    +0.000 C 
ATOM     10  N   UNL     1      51.354   3.064  18.131  0.00  0.00    +0.000 N 
ATOM     11  O   UNL     1      50.290   4.558  19.419  0.00  0.00    +0.000 OA
ATOM     12  H   UNL     1      51.443   2.504  17.290  0.00  0.00    +0.000 HD
ATOM     13  H   UNL     1      52.022   2.949  18.868  0.00  0.00    +0.000 HD
ENDBRANCH   6   9
BRANCH   8  14
ATOM     14  N   UNL     1      48.092   6.812  15.332  0.00  0.00    +0.000 N 
ATOM     15  H   UNL     1      47.112   7.006  15.178  0.00  0.00    +0.000 HD
ATOM     16  H   UNL     1      48.512   7.501  15.941  0.00  0.00    +0.000 HD
ENDBRANCH   8  14
ENDBRANCH   1   3
BRANCH   1  17
ATOM     17  C   UNL     1      46.222   5.056  13.329  0.00  0.00    +0.000 C 
BRANCH  17  22
ATOM     18  C   UNL     1      44.677   3.831  10.230  0.00  0.00    +0.000 A 
ATOM     19  N   UNL     1      43.431   3.438  10.569  0.00  0.00    +0.000 NA
ATOM     20  C   UNL     1      43.080   3.581  11.855  0.00  0.00    +0.000 A 
ATOM     21  C   UNL     1      43.917   4.090  12.824  0.00  0.00    +0.000 A 
ATOM     22  C   UNL     1      45.186   4.452  12.404  0.00  0.00    +0.000 A 
ATOM     23  N   UNL     1      45.565   4.327  11.114  0.00  0.00    +0.000 NA
BRANCH  18  25
ATOM     24  C   UNL     1      45.733   2.228   8.655  0.00  0.00    +0.000 C 
ATOM     25  C   UNL     1      45.126   3.629   8.781  0.00  0.00    +0.000 C 
ATOM     26  C   UNL     1      46.145   4.685   8.334  0.00  0.00    +0.000 C 
BRANCH  25  27
ATOM     27  O   UNL     1      44.000   3.732   7.892  0.00  0.00    +0.000 OA
ATOM     28  H   UNL     1      43.312   3.130   8.221  0.00  0.00    +0.000 HD
ENDBRANCH  25  27
ENDBRANCH  18  25
ENDBRANCH  17  22
ENDBRANCH   1  17
TORSDOF 7
ENDMDL
MODEL 9
REMARK VINA RESULT:    -6.163      4.097      6.662
REMARK INTER + INTRA:          -8.814
REMARK INTER:                  -8.185
REMARK INTRA:                  -0.629
REMARK UNBOUND:                -0.489
REMARK  Name = 
REMARK  9 active torsions:
REMARK  status: ('A' for Active; 'I' for Inactive)
REMARK    1  A    between atoms: C_1  and  C_2
REMARK    2  A    between atoms: C_2  and  C_3
REMARK    3  A    between atoms: C_2  and  O_4
REMARK    4  A    between atoms: C_2  and  C_5
REMARK    5  A    between atoms: C_9  and  C_10
REMARK    6  A    between atoms: C_10  and  N_11
REMARK    7  A    between atoms: N_11  and  C_12
REMARK    8  A    between atoms: C_15  and  C_16
REMARK    9  A    between atoms: C_20  and  N_21
REMARK                            x       y       z     vdW  Elec       q    Type
REMARK                         _______ _______ _______ _____ _____    ______ ____
ROOT
ATOM      1  N   UNL     1      48.312   6.677  13.680  0.00  0.00    +0.000 N 
ATOM      2  H   UNL     1      49.044   6.097  13.285  0.00  0.00    +0.000 HD
ENDROOT
BRANCH   1   3
ATOM      3  C   UNL     1      47.110   6.040  13.412  0.00  0.00    +0.000 A 
ATOM      4  N   UNL     1      47.228   4.701  13.503  0.00  0.00    +0.000 NA
ATOM      5  C   UNL     1      46.152   3.957  13.125  0.00  0.00    +0.000 A 
ATOM      6  C   UNL     1      44.966   4.540  12.696  0.00  0.00    +0.000 A 
ATOM      7  N   UNL     1      44.807   5.888  12.634  0.00  0.00    +0.000 NA
ATOM      8  C   UNL     1      45.889   6.634  12.982  0.00  0.00    +0.000 A 
BRANCH   6   9
ATOM      9  C   UNL     1      43.815   3.687  12.256  0.00  0.00    +0.000 C 
ATOM     10  N   UNL     1      43.823   2.349  12.579  0.00  0.00    +0.000 N 
ATOM     11  O   UNL     1      42.884   4.147  11.626  0.00  0.00    +0.000 OA
ATOM     12  H   UNL     1      44.572   1.887  13.083  0.00  0.00    +0.000 HD
ATOM     13  H   UNL     1      43.049   1.806  12.247  0.00  0.00    +0.000 HD
ENDBRANCH   6   9
BRANCH   8  14
ATOM     14  N   UNL     1      45.707   7.998  12.763  0.00  0.00    +0.000 N 
ATOM     15  H   UNL     1      44.929   8.303  13.331  0.00  0.00    +0.000 HD
ATOM     16  H   UNL     1      46.533   8.552  12.942  0.00  0.00    +0.000 HD
ENDBRANCH   8  14
ENDBRANCH   1   3
BRANCH   1  17
ATOM     17  C   UNL     1      48.590   7.311  14.950  0.00  0.00    +0.000 C 
BRANCH  17  22
ATOM     18  C   UNL     1      49.744   4.620  17.169  0.00  0.00    +0.000 A 
ATOM     19  N   UNL     1      51.010   4.940  17.507  0.00  0.00    +0.000 NA
ATOM     20  C   UNL     1      51.506   6.076  16.997  0.00  0.00    +0.000 A 
ATOM     21  C   UNL     1      50.800   6.907  16.155  0.00  0.00    +0.000 A 
ATOM     22  C   UNL     1      49.515   6.502  15.836  0.00  0.00    +0.000 A 
ATOM     23  N   UNL     1      48.986   5.367  16.341  0.00  0.00    +0.000 NA
BRANCH  18  25
ATOM     24  C   UNL     1      50.098   2.164  17.254  0.00  0.00    +0.000 C 
ATOM     25  C   UNL     1      49.170   3.301  17.690  0.00  0.00    +0.000 C 
ATOM     26  C   UNL     1      47.746   3.042  17.179  0.00  0.00    +0.000 C 
BRANCH  25  27
ATOM     27  O   UNL     1      49.100   3.323  19.127  0.00  0.00    +0.000 OA
ATOM     28  H   UNL     1      49.445   4.181  19.424  0.00  0.00    +0.000 HD
ENDBRANCH  25  27
ENDBRANCH  18  25
ENDBRANCH  17  22
ENDBRANCH   1  17
TORSDOF 7
ENDMDL
