MODEL 1
REMARK VINA RESULT:    -8.818      0.000      0.000
REMARK INTER + INTRA:         -12.049
REMARK INTER:                 -11.396
REMARK INTRA:                  -0.653
REMARK UNBOUND:                -0.653
REMARK  Name = 
REMARK  5 active torsions:
REMARK  status: ('A' for Active; 'I' for Inactive)
REMARK    1  A    between atoms: C_2  and  C_4
REMARK    2  A    between atoms: C_7  and  O_8
REMARK    3  A    between atoms: O_8  and  C_9
REMARK    4  A    between atoms: C_9  and  C_10
REMARK    5  A    between atoms: C_14  and  C_15
REMARK                            x       y       z     vdW  Elec       q    Type
REMARK                         _______ _______ _______ _____ _____    ______ ____
ROOT
ATOM      1  C   UNL     1      43.570   4.394  11.130  0.00  0.00    +0.000 C 
ENDROOT
BRANCH   1   2
ATOM      2  C   UNL     1      44.816   4.780  11.885  0.00  0.00    +0.000 A 
ATOM      3  C   UNL     1      45.267   3.988  12.932  0.00  0.00    +0.000 A 
ATOM      4  N   UNL     1      46.334   4.288  13.700  0.00  0.00    +0.000 NA
ATOM      5  C   UNL     1      46.979   5.447  13.415  0.00  0.00    +0.000 A 
ATOM      6  C   UNL     1      46.632   6.336  12.395  0.00  0.00    +0.000 A 
ATOM      7  C   UNL     1      45.512   5.969  11.632  0.00  0.00    +0.000 A 
BRANCH   6   8
ATOM      8  C   UNL     1      47.389   7.580  12.133  0.00  0.00    +0.000 A 
ATOM      9  C   UNL     1      46.789   8.849  12.263  0.00  0.00    +0.000 A 
ATOM     10  C   UNL     1      47.505  10.029  12.023  0.00  0.00    +0.000 A 
ATOM     11  C   UNL     1      48.844   9.965  11.657  0.00  0.00    +0.000 A 
ATOM     12  C   UNL     1      49.452   8.725  11.529  0.00  0.00    +0.000 A 
ATOM     13  F   UNL     1      50.745   8.657  11.184  0.00  0.00    +0.000 F 
ATOM     14  C   UNL     1      48.743   7.548  11.754  0.00  0.00    +0.000 A 
ENDBRANCH   6   8
ENDBRANCH   1   2
BRANCH   1  15
ATOM     15  O   UNL     1      43.687   4.752   9.750  0.00  0.00    +0.000 OA
BRANCH  15  19
ATOM     16  C   UNL     1      46.337   2.298   7.776  0.00  0.00    +0.000 A 
ATOM     17  C   UNL     1      45.435   1.749   8.691  0.00  0.00    +0.000 A 
ATOM     18  C   UNL     1      44.544   2.593   9.355  0.00  0.00    +0.000 A 
ATOM     19  C   UNL     1      44.588   3.951   9.079  0.00  0.00    +0.000 A 
ATOM     20  N   UNL     1      45.453   4.509   8.205  0.00  0.00    +0.000 NA
ATOM     21  C   UNL     1      46.316   3.672   7.583  0.00  0.00    +0.000 A 
BRANCH  16  23
ATOM     22  N   UNL     1      48.413   2.156   6.517  0.00  0.00    +0.000 N 
ATOM     23  C   UNL     1      47.326   1.499   7.024  0.00  0.00    +0.000 C 
ATOM     24  O   UNL     1      47.196   0.291   6.883  0.00  0.00    +0.000 OA
ATOM     25  H   UNL     1      49.128   1.573   6.099  0.00  0.00    +0.000 HD
ATOM     26  H   UNL     1      48.683   3.081   6.817  0.00  0.00    +0.000 HD
ENDBRANCH  16  23
ENDBRANCH  15  19
ENDBRANCH   1  15
TORSDOF 5
ENDMDL
MODEL 2
REMARK VINA RESULT:    -8.674      1.517      1.991
REMARK INTER + INTRA:         -11.862
REMARK INTER:                 -11.033
REMARK INTRA:                  -0.829
REMARK UNBOUND:                -0.653
REMARK  Name = 
REMARK  5 active torsions:
REMARK  status: ('A' for Active; 'I' for Inactive)
REMARK    1  A    between atoms: C_2  and  C_4
REMARK    2  A    between atoms: C_7  and  O_8
REMARK    3  A    between atoms: O_8  and  C_9
REMARK    4  A    between atoms: C_9  and  C_10
REMARK    5  A    between atoms: C_14  and  C_15
REMARK                            x       y       z     vdW  Elec       q    Type
REMARK                         _______ _______ _______ _____ _____    ______ ____
ROOT
ATOM      1  C   UNL     1      43.952   3.901  11.624  0.00  0.00    +0.000 C 
ENDROOT
BRANCH   1   2
ATOM      2  C   UNL     1      45.181   4.593  12.156  0.00  0.00    +0.000 A 
ATOM      3  C   UNL     1      46.054   3.912  12.993  0.00  0.00    +0.000 A 
ATOM      4  N   UNL     1      47.142   4.469  13.563  0.00  0.00    +0.000 NA
ATOM      5  C   UNL     1      47.364   5.779  13.293  0.00  0.00    +0.000 A 
ATOM      6  C   UNL     1      46.568   6.583  12.473  0.00  0.00    +0.000 A 
ATOM      7  C   UNL     1      45.450   5.945  11.910  0.00  0.00    +0.000 A 
BRANCH   6   8
ATOM      8  C   UNL     1      46.876   8.006  12.212  0.00  0.00    +0.000 A 
ATOM      9  C   UNL     1      48.197   8.445  11.993  0.00  0.00    +0.000 A 
ATOM     10  C   UNL     1      48.491   9.791  11.739  0.00  0.00    +0.000 A 
ATOM     11  C   UNL     1      47.466  10.728  11.688  0.00  0.00    +0.000 A 
ATOM     12  C   UNL     1      46.159  10.313  11.898  0.00  0.00    +0.000 A 
ATOM     13  F   UNL     1      45.165  11.209  11.844  0.00  0.00    +0.000 F 
ATOM     14  C   UNL     1      45.861   8.978  12.163  0.00  0.00    +0.000 A 
ENDBRANCH   6   8
ENDBRANCH   1   2
BRANCH   1  15
ATOM     15  O   UNL     1      43.736   4.245  10.252  0.00  0.00    +0.000 OA
BRANCH  15  19
ATOM     16  C   UNL     1      46.450   2.466   7.721  0.00  0.00    +0.000 A 
ATOM     17  C   UNL     1      46.270   3.851   7.680  0.00  0.00    +0.000 A 
ATOM     18  C   UNL     1      45.344   4.441   8.542  0.00  0.00    +0.000 A 
ATOM     19  C   UNL     1      44.636   3.625   9.411  0.00  0.00    +0.000 A 
ATOM     20  N   UNL     1      44.785   2.284   9.468  0.00  0.00    +0.000 NA
ATOM     21  C   UNL     1      45.680   1.734   8.613  0.00  0.00    +0.000 A 
BRANCH  16  23
ATOM     22  N   UNL     1      48.472   2.435   6.370  0.00  0.00    +0.000 N 
ATOM     23  C   UNL     1      47.397   1.739   6.852  0.00  0.00    +0.000 C 
ATOM     24  O   UNL     1      47.246   0.553   6.594  0.00  0.00    +0.000 OA
ATOM     25  H   UNL     1      49.162   1.891   5.866  0.00  0.00    +0.000 HD
ATOM     26  H   UNL     1      48.766   3.322   6.751  0.00  0.00    +0.000 HD
ENDBRANCH  16  23
ENDBRANCH  15  19
ENDBRANCH   1  15
TORSDOF 5
ENDMDL
MODEL 3
REMARK VINA RESULT:    -8.351      3.641      6.825
REMARK INTER + INTRA:         -11.445
REMARK INTER:                 -10.572
REMARK INTRA:                  -0.872
REMARK UNBOUND:                -0.653
REMARK  Name = 
REMARK  5 active torsions:
REMARK  status: ('A' for Active; 'I' for Inactive)
REMARK    1  A    between atoms: C_2  and  C_4
REMARK    2  A    between atoms: C_7  and  O_8
REMARK    3  A    between atoms: O_8  and  C_9
REMARK    4  A    between atoms: C_9  and  C_10
REMARK    5  A    between atoms: C_14  and  C_15
REMARK                            x       y       z     vdW  Elec       q    Type
REMARK                         _______ _______ _______ _____ _____    ______ ____
ROOT
ATOM      1  C   UNL     1      43.998   6.595  11.492  0.00  0.00    +0.000 C 
ENDROOT
BRANCH   1   2
ATOM      2  C   UNL     1      43.964   5.158  11.042  0.00  0.00    +0.000 A 
ATOM      3  C   UNL     1      43.170   4.238  11.716  0.00  0.00    +0.000 A 
ATOM      4  N   UNL     1      43.125   2.923  11.422  0.00  0.00    +0.000 NA
ATOM      5  C   UNL     1      43.921   2.500  10.408  0.00  0.00    +0.000 A 
ATOM      6  C   UNL     1      44.768   3.314   9.651  0.00  0.00    +0.000 A 
ATOM      7  C   UNL     1      44.772   4.672  10.006  0.00  0.00    +0.000 A 
BRANCH   6   8
ATOM      8  C   UNL     1      45.604   2.786   8.551  0.00  0.00    +0.000 A 
ATOM      9  C   UNL     1      46.103   3.627   7.536  0.00  0.00    +0.000 A 
ATOM     10  C   UNL     1      46.901   3.131   6.497  0.00  0.00    +0.000 A 
ATOM     11  C   UNL     1      47.227   1.780   6.456  0.00  0.00    +0.000 A 
ATOM     12  C   UNL     1      46.747   0.939   7.449  0.00  0.00    +0.000 A 
ATOM     13  F   UNL     1      47.063  -0.363   7.420  0.00  0.00    +0.000 F 
ATOM     14  C   UNL     1      45.944   1.423   8.478  0.00  0.00    +0.000 A 
ENDBRANCH   6   8
ENDBRANCH   1   2
BRANCH   1  15
ATOM     15  O   UNL     1      44.630   6.706  12.772  0.00  0.00    +0.000 OA
BRANCH  15  19
ATOM     16  C   UNL     1      48.603   7.739  12.475  0.00  0.00    +0.000 A 
ATOM     17  C   UNL     1      48.251   6.462  12.920  0.00  0.00    +0.000 A 
ATOM     18  C   UNL     1      46.900   6.126  13.018  0.00  0.00    +0.000 A 
ATOM     19  C   UNL     1      45.955   7.078  12.668  0.00  0.00    +0.000 A 
ATOM     20  N   UNL     1      46.266   8.320  12.242  0.00  0.00    +0.000 NA
ATOM     21  C   UNL     1      47.583   8.627  12.167  0.00  0.00    +0.000 A 
BRANCH  16  23
ATOM     22  N   UNL     1      50.911   7.727  13.243  0.00  0.00    +0.000 N 
ATOM     23  C   UNL     1      49.999   8.200  12.339  0.00  0.00    +0.000 C 
ATOM     24  O   UNL     1      50.338   8.953  11.436  0.00  0.00    +0.000 OA
ATOM     25  H   UNL     1      51.877   7.971  13.066  0.00  0.00    +0.000 HD
ATOM     26  H   UNL     1      50.732   6.928  13.834  0.00  0.00    +0.000 HD
ENDBRANCH  16  23
ENDBRANCH  15  19
ENDBRANCH   1  15
TORSDOF 5
ENDMDL
MODEL 4
REMARK VINA RESULT:    -7.948      3.919      7.580
REMARK INTER + INTRA:         -10.923
REMARK INTER:                 -10.307
REMARK INTRA:                  -0.616
REMARK UNBOUND:                -0.653
REMARK  Name = 
REMARK  5 active torsions:
REMARK  status: ('A' for Active; 'I' for Inactive)
REMARK    1  A    between atoms: C_2  and  C_4
REMARK    2  A    between atoms: C_7  and  O_8
REMARK    3  A    between atoms: O_8  and  C_9
REMARK    4  A    between atoms: C_9  and  C_10
REMARK    5  A    between atoms: C_14  and  C_15
REMARK                            x       y       z     vdW  Elec       q    Type
REMARK                         _______ _______ _______ _____ _____    ______ ____
ROOT
ATOM      1  C   UNL     1      45.216   5.972  12.790  0.00  0.00    +0.000 C 
ENDROOT
BRANCH   1   2
ATOM      2  C   UNL     1      44.706   4.874  11.893  0.00  0.00    +0.000 A 
ATOM      3  C   UNL     1      43.561   4.169  12.242  0.00  0.00    +0.000 A 
ATOM      4  N   UNL     1      43.068   3.132  11.534  0.00  0.00    +0.000 NA
ATOM      5  C   UNL     1      43.761   2.772  10.424  0.00  0.00    +0.000 A 
ATOM      6  C   UNL     1      44.925   3.391   9.961  0.00  0.00    +0.000 A 
ATOM      7  C   UNL     1      45.388   4.461  10.742  0.00  0.00    +0.000 A 
BRANCH   6   8
ATOM      8  C   UNL     1      45.625   2.951   8.734  0.00  0.00    +0.000 A 
ATOM      9  C   UNL     1      45.987   3.865   7.724  0.00  0.00    +0.000 A 
ATOM     10  C   UNL     1      46.656   3.452   6.565  0.00  0.00    +0.000 A 
ATOM     11  C   UNL     1      46.988   2.113   6.394  0.00  0.00    +0.000 A 
ATOM     12  C   UNL     1      46.643   1.201   7.380  0.00  0.00    +0.000 A 
ATOM     13  F   UNL     1      46.967  -0.090   7.226  0.00  0.00    +0.000 F 
ATOM     14  C   UNL     1      45.967   1.602   8.530  0.00  0.00    +0.000 A 
ENDBRANCH   6   8
ENDBRANCH   1   2
BRANCH   1  15
ATOM     15  O   UNL     1      46.647   5.971  12.822  0.00  0.00    +0.000 OA
BRANCH  15  19
ATOM     16  C   UNL     1      48.154   4.876  16.492  0.00  0.00    +0.000 A 
ATOM     17  C   UNL     1      48.622   6.037  15.870  0.00  0.00    +0.000 A 
ATOM     18  C   UNL     1      48.104   6.395  14.624  0.00  0.00    +0.000 A 
ATOM     19  C   UNL     1      47.139   5.580  14.050  0.00  0.00    +0.000 A 
ATOM     20  N   UNL     1      46.674   4.451  14.625  0.00  0.00    +0.000 NA
ATOM     21  C   UNL     1      47.201   4.118  15.828  0.00  0.00    +0.000 A 
BRANCH  16  23
ATOM     22  N   UNL     1      47.809   3.583  18.522  0.00  0.00    +0.000 N 
ATOM     23  C   UNL     1      48.636   4.402  17.805  0.00  0.00    +0.000 C 
ATOM     24  O   UNL     1      49.745   4.704  18.224  0.00  0.00    +0.000 OA
ATOM     25  H   UNL     1      48.202   3.186  19.367  0.00  0.00    +0.000 HD
ATOM     26  H   UNL     1      47.013   3.116  18.115  0.00  0.00    +0.000 HD
ENDBRANCH  16  23
ENDBRANCH  15  19
ENDBRANCH   1  15
TORSDOF 5
ENDMDL
MODEL 5
REMARK VINA RESULT:    -7.742      1.830      2.320
REMARK INTER + INTRA:         -10.658
REMARK INTER:                  -9.922
REMARK INTRA:                  -0.735
REMARK UNBOUND:                -0.653
REMARK  Name = 
REMARK  5 active torsions:
REMARK  status: ('A' for Active; 'I' for Inactive)
REMARK    1  A    between atoms: C_2  and  C_4
REMARK    2  A    between atoms: C_7  and  O_8
REMARK    3  A    between atoms: O_8  and  C_9
REMARK    4  A    between atoms: C_9  and  C_10
REMARK    5  A    between atoms: C_14  and  C_15
REMARK                            x       y       z     vdW  Elec       q    Type
REMARK                         _______ _______ _______ _____ _____    ______ ____
ROOT
ATOM      1  C   UNL     1      44.124   3.719  11.536  0.00  0.00    +0.000 C 
ENDROOT
BRANCH   1   2
ATOM      2  C   UNL     1      44.425   5.191  11.657  0.00  0.00    +0.000 A 
ATOM      3  C   UNL     1      43.452   6.127  11.330  0.00  0.00    +0.000 A 
ATOM      4  N   UNL     1      43.652   7.460  11.350  0.00  0.00    +0.000 NA
ATOM      5  C   UNL     1      44.892   7.883  11.704  0.00  0.00    +0.000 A 
ATOM      6  C   UNL     1      45.960   7.052  12.054  0.00  0.00    +0.000 A 
ATOM      7  C   UNL     1      45.690   5.675  12.012  0.00  0.00    +0.000 A 
BRANCH   6   8
ATOM      8  C   UNL     1      47.286   7.583  12.440  0.00  0.00    +0.000 A 
ATOM      9  C   UNL     1      48.426   7.373  11.638  0.00  0.00    +0.000 A 
ATOM     10  C   UNL     1      49.681   7.881  11.998  0.00  0.00    +0.000 A 
ATOM     11  C   UNL     1      49.822   8.621  13.166  0.00  0.00    +0.000 A 
ATOM     12  C   UNL     1      48.709   8.840  13.965  0.00  0.00    +0.000 A 
ATOM     13  F   UNL     1      48.836   9.559  15.089  0.00  0.00    +0.000 F 
ATOM     14  C   UNL     1      47.461   8.329  13.619  0.00  0.00    +0.000 A 
ENDBRANCH   6   8
ENDBRANCH   1   2
BRANCH   1  15
ATOM     15  O   UNL     1      43.585   3.421  10.244  0.00  0.00    +0.000 OA
BRANCH  15  19
ATOM     16  C   UNL     1      46.524   2.482   7.521  0.00  0.00    +0.000 A 
ATOM     17  C   UNL     1      46.033   3.788   7.585  0.00  0.00    +0.000 A 
ATOM     18  C   UNL     1      45.035   4.092   8.512  0.00  0.00    +0.000 A 
ATOM     19  C   UNL     1      44.567   3.080   9.337  0.00  0.00    +0.000 A 
ATOM     20  N   UNL     1      45.019   1.809   9.292  0.00  0.00    +0.000 NA
ATOM     21  C   UNL     1      45.979   1.535   8.376  0.00  0.00    +0.000 A 
BRANCH  16  23
ATOM     22  N   UNL     1      48.660   2.868   6.422  0.00  0.00    +0.000 N 
ATOM     23  C   UNL     1      47.574   2.050   6.576  0.00  0.00    +0.000 C 
ATOM     24  O   UNL     1      47.494   0.988   5.974  0.00  0.00    +0.000 OA
ATOM     25  H   UNL     1      49.413   2.502   5.853  0.00  0.00    +0.000 HD
ATOM     26  H   UNL     1      48.882   3.610   7.069  0.00  0.00    +0.000 HD
ENDBRANCH  16  23
ENDBRANCH  15  19
ENDBRANCH   1  15
TORSDOF 5
ENDMDL
MODEL 6
REMARK VINA RESULT:    -7.162      2.441      3.056
REMARK INTER + INTRA:          -9.908
REMARK INTER:                  -9.171
REMARK INTRA:                  -0.737
REMARK UNBOUND:                -0.653
REMARK  Name = 
REMARK  5 active torsions:
REMARK  status: ('A' for Active; 'I' for Inactive)
REMARK    1  A    between atoms: C_2  and  C_4
REMARK    2  A    between atoms: C_7  and  O_8
REMARK    3  A    between atoms: O_8  and  C_9
REMARK    4  A    between atoms: C_9  and  C_10
REMARK    5  A    between atoms: C_14  and  C_15
REMARK                            x       y       z     vdW  Elec       q    Type
REMARK                         _______ _______ _______ _____ _____    ______ ____
ROOT
ATOM      1  C   UNL     1      44.079   4.839  11.925  0.00  0.00    +0.000 C 
ENDROOT
BRANCH   1   2
ATOM      2  C   UNL     1      44.941   6.048  12.184  0.00  0.00    +0.000 A 
ATOM      3  C   UNL     1      44.652   7.254  11.558  0.00  0.00    +0.000 A 
ATOM      4  N   UNL     1      45.402   8.367  11.684  0.00  0.00    +0.000 NA
ATOM      5  C   UNL     1      46.506   8.270  12.467  0.00  0.00    +0.000 A 
ATOM      6  C   UNL     1      46.914   7.122  13.150  0.00  0.00    +0.000 A 
ATOM      7  C   UNL     1      46.093   5.996  12.978  0.00  0.00    +0.000 A 
BRANCH   6   8
ATOM      8  C   UNL     1      48.127   7.090  13.996  0.00  0.00    +0.000 A 
ATOM      9  C   UNL     1      49.275   7.838  13.667  0.00  0.00    +0.000 A 
ATOM     10  C   UNL     1      50.423   7.815  14.471  0.00  0.00    +0.000 A 
ATOM     11  C   UNL     1      50.442   7.049  15.631  0.00  0.00    +0.000 A 
ATOM     12  C   UNL     1      49.319   6.310  15.972  0.00  0.00    +0.000 A 
ATOM     13  F   UNL     1      49.329   5.576  17.093  0.00  0.00    +0.000 F 
ATOM     14  C   UNL     1      48.180   6.319  15.172  0.00  0.00    +0.000 A 
ENDBRANCH   6   8
ENDBRANCH   1   2
BRANCH   1  15
ATOM     15  O   UNL     1      43.647   4.813  10.560  0.00  0.00    +0.000 OA
BRANCH  15  19
ATOM     16  C   UNL     1      45.933   2.296   8.243  0.00  0.00    +0.000 A 
ATOM     17  C   UNL     1      46.064   3.679   8.097  0.00  0.00    +0.000 A 
ATOM     18  C   UNL     1      45.281   4.521   8.888  0.00  0.00    +0.000 A 
ATOM     19  C   UNL     1      44.399   3.948   9.792  0.00  0.00    +0.000 A 
ATOM     20  N   UNL     1      44.248   2.616   9.949  0.00  0.00    +0.000 NA
ATOM     21  C   UNL     1      45.010   1.820   9.162  0.00  0.00    +0.000 A 
BRANCH  16  23
ATOM     22  N   UNL     1      47.356   1.772   6.341  0.00  0.00    +0.000 N 
ATOM     23  C   UNL     1      46.707   1.315   7.455  0.00  0.00    +0.000 C 
ATOM     24  O   UNL     1      46.792   0.144   7.799  0.00  0.00    +0.000 OA
ATOM     25  H   UNL     1      47.964   1.108   5.878  0.00  0.00    +0.000 HD
ATOM     26  H   UNL     1      47.517   2.752   6.164  0.00  0.00    +0.000 HD
ENDBRANCH  16  23
ENDBRANCH  15  19
ENDBRANCH   1  15
TORSDOF 5
ENDMDL
MODEL 7
REMARK VINA RESULT:    -6.960      4.399      8.107
REMARK INTER + INTRA:          -9.648
REMARK INTER:                  -8.958
REMARK INTRA:                  -0.690
REMARK UNBOUND:                -0.653
REMARK  Name = 
REMARK  5 active torsions:
REMARK  status: ('A' for Active; 'I' for Inactive)
REMARK    1  A    between atoms: C_2  and  C_4
REMARK    2  A    between atoms: C_7  and  O_8
REMARK    3  A    between atoms: O_8  and  C_9
REMARK    4  A    between atoms: C_9  and  C_10
REMARK    5  A    between atoms: C_14  and  C_15
REMARK                            x       y       z     vdW  Elec       q    Type
REMARK                         _______ _______ _______ _____ _____    ______ ____
ROOT
ATOM      1  C   UNL     1      48.096   7.224  13.852  0.00  0.00    +0.000 C 
ENDROOT
BRANCH   1   2
ATOM      2  C   UNL     1      46.945   7.188  12.880  0.00  0.00    +0.000 A 
ATOM      3  C   UNL     1      46.062   8.258  12.809  0.00  0.00    +0.000 A 
ATOM      4  N   UNL     1      44.973   8.286  12.016  0.00  0.00    +0.000 NA
ATOM      5  C   UNL     1      44.744   7.183  11.260  0.00  0.00    +0.000 A 
ATOM      6  C   UNL     1      45.546   6.039  11.236  0.00  0.00    +0.000 A 
ATOM      7  C   UNL     1      46.664   6.070  12.084  0.00  0.00    +0.000 A 
BRANCH   6   8
ATOM      8  C   UNL     1      45.242   4.873  10.378  0.00  0.00    +0.000 A 
ATOM      9  C   UNL     1      44.530   3.761  10.870  0.00  0.00    +0.000 A 
ATOM     10  C   UNL     1      44.234   2.659  10.058  0.00  0.00    +0.000 A 
ATOM     11  C   UNL     1      44.637   2.649   8.727  0.00  0.00    +0.000 A 
ATOM     12  C   UNL     1      45.335   3.737   8.225  0.00  0.00    +0.000 A 
ATOM     13  F   UNL     1      45.720   3.737   6.941  0.00  0.00    +0.000 F 
ATOM     14  C   UNL     1      45.643   4.831   9.030  0.00  0.00    +0.000 A 
ENDBRANCH   6   8
ENDBRANCH   1   2
BRANCH   1  15
ATOM     15  O   UNL     1      48.527   5.897  14.170  0.00  0.00    +0.000 OA
BRANCH  15  19
ATOM     16  C   UNL     1      48.211   5.039  18.182  0.00  0.00    +0.000 A 
ATOM     17  C   UNL     1      47.375   4.392  17.269  0.00  0.00    +0.000 A 
ATOM     18  C   UNL     1      47.491   4.694  15.911  0.00  0.00    +0.000 A 
ATOM     19  C   UNL     1      48.438   5.630  15.521  0.00  0.00    +0.000 A 
ATOM     20  N   UNL     1      49.253   6.274  16.382  0.00  0.00    +0.000 NA
ATOM     21  C   UNL     1      49.113   5.972  17.695  0.00  0.00    +0.000 A 
BRANCH  16  23
ATOM     22  N   UNL     1      48.546   3.562  20.086  0.00  0.00    +0.000 N 
ATOM     23  C   UNL     1      48.169   4.799  19.639  0.00  0.00    +0.000 C 
ATOM     24  O   UNL     1      47.839   5.679  20.422  0.00  0.00    +0.000 OA
ATOM     25  H   UNL     1      48.611   3.455  21.091  0.00  0.00    +0.000 HD
ATOM     26  H   UNL     1      49.054   2.904  19.513  0.00  0.00    +0.000 HD
ENDBRANCH  16  23
ENDBRANCH  15  19
ENDBRANCH   1  15
TORSDOF 5
ENDMDL
MODEL 8
REMARK VINA RESULT:    -6.546      5.639      7.569
REMARK INTER + INTRA:          -9.112
REMARK INTER:                  -8.495
REMARK INTRA:                  -0.616
REMARK UNBOUND:                -0.653
REMARK  Name = 
REMARK  5 active torsions:
REMARK  status: ('A' for Active; 'I' for Inactive)
REMARK    1  A    between atoms: C_2  and  C_4
REMARK    2  A    between atoms: C_7  and  O_8
REMARK    3  A    between atoms: O_8  and  C_9
REMARK    4  A    between atoms: C_9  and  C_10
REMARK    5  A    between atoms: C_14  and  C_15
REMARK                            x       y       z     vdW  Elec       q    Type
REMARK                         _______ _______ _______ _____ _____    ______ ____
ROOT
ATOM      1  C   UNL     1      47.120   4.040  16.164  0.00  0.00    +0.000 C 
ENDROOT
BRANCH   1   2
ATOM      2  C   UNL     1      48.305   4.250  17.071  0.00  0.00    +0.000 A 
ATOM      3  C   UNL     1      48.335   5.339  17.932  0.00  0.00    +0.000 A 
ATOM      4  N   UNL     1      49.379   5.639  18.732  0.00  0.00    +0.000 NA
ATOM      5  C   UNL     1      50.454   4.815  18.661  0.00  0.00    +0.000 A 
ATOM      6  C   UNL     1      50.558   3.689  17.839  0.00  0.00    +0.000 A 
ATOM      7  C   UNL     1      49.440   3.431  17.030  0.00  0.00    +0.000 A 
BRANCH   6   8
ATOM      8  C   UNL     1      51.760   2.827  17.820  0.00  0.00    +0.000 A 
ATOM      9  C   UNL     1      51.679   1.458  17.497  0.00  0.00    +0.000 A 
ATOM     10  C   UNL     1      52.817   0.641  17.471  0.00  0.00    +0.000 A 
ATOM     11  C   UNL     1      54.066   1.180  17.757  0.00  0.00    +0.000 A 
ATOM     12  C   UNL     1      54.164   2.527  18.073  0.00  0.00    +0.000 A 
ATOM     13  F   UNL     1      55.365   3.055  18.343  0.00  0.00    +0.000 F 
ATOM     14  C   UNL     1      53.035   3.343  18.113  0.00  0.00    +0.000 A 
ENDBRANCH   6   8
ENDBRANCH   1   2
BRANCH   1  15
ATOM     15  O   UNL     1      47.531   3.449  14.927  0.00  0.00    +0.000 OA
BRANCH  15  19
ATOM     16  C   UNL     1      45.224   4.740  11.774  0.00  0.00    +0.000 A 
ATOM     17  C   UNL     1      45.975   5.663  12.505  0.00  0.00    +0.000 A 
ATOM     18  C   UNL     1      46.752   5.212  13.573  0.00  0.00    +0.000 A 
ATOM     19  C   UNL     1      46.746   3.857  13.869  0.00  0.00    +0.000 A 
ATOM     20  N   UNL     1      46.025   2.945  13.184  0.00  0.00    +0.000 NA
ATOM     21  C   UNL     1      45.271   3.408  12.159  0.00  0.00    +0.000 A 
BRANCH  16  23
ATOM     22  N   UNL     1      43.396   6.049  10.846  0.00  0.00    +0.000 N 
ATOM     23  C   UNL     1      44.365   5.109  10.630  0.00  0.00    +0.000 C 
ATOM     24  O   UNL     1      44.532   4.617   9.522  0.00  0.00    +0.000 OA
ATOM     25  H   UNL     1      42.892   6.363  10.026  0.00  0.00    +0.000 HD
ATOM     26  H   UNL     1      43.388   6.651  11.656  0.00  0.00    +0.000 HD
ENDBRANCH  16  23
ENDBRANCH  15  19
ENDBRANCH   1  15
TORSDOF 5
ENDMDL
MODEL 9
REMARK VINA RESULT:    -5.975      4.183      6.800
REMARK INTER + INTRA:          -8.374
REMARK INTER:                  -7.725
REMARK INTRA:                  -0.649
REMARK UNBOUND:                -0.653
REMARK  Name = 
REMARK  5 active torsions:
REMARK  status: ('A' for Active; 'I' for Inactive)
REMARK    1  A    between atoms: C_2  and  C_4
REMARK    2  A    between atoms: C_7  and  O_8
REMARK    3  A    between atoms: O_8  and  C_9
REMARK    4  A    between atoms: C_9  and  C_10
REMARK    5  A    between atoms: C_14  and  C_15
REMARK                            x       y       z     vdW  Elec       q    Type
REMARK                         _______ _______ _______ _____ _____    ______ ____
ROOT
ATOM      1  C   UNL     1      48.849   7.972  12.358  0.00  0.00    +0.000 C 
ENDROOT
BRANCH   1   2
ATOM      2  C   UNL     1      50.107   8.364  11.627  0.00  0.00    +0.000 A 
ATOM      3  C   UNL     1      50.459   9.703  11.518  0.00  0.00    +0.000 A 
ATOM      4  N   UNL     1      51.531  10.148  10.832  0.00  0.00    +0.000 NA
ATOM      5  C   UNL     1      52.287   9.208  10.212  0.00  0.00    +0.000 A 
ATOM      6  C   UNL     1      52.047   7.831  10.236  0.00  0.00    +0.000 A 
ATOM      7  C   UNL     1      50.916   7.431  10.965  0.00  0.00    +0.000 A 
BRANCH   6   8
ATOM      8  C   UNL     1      52.921   6.859   9.543  0.00  0.00    +0.000 A 
ATOM      9  C   UNL     1      53.891   6.112  10.241  0.00  0.00    +0.000 A 
ATOM     10  C   UNL     1      54.715   5.186   9.588  0.00  0.00    +0.000 A 
ATOM     11  C   UNL     1      54.578   4.978   8.221  0.00  0.00    +0.000 A 
ATOM     12  C   UNL     1      53.626   5.702   7.519  0.00  0.00    +0.000 A 
ATOM     13  F   UNL     1      53.485   5.502   6.202  0.00  0.00    +0.000 F 
ATOM     14  C   UNL     1      52.812   6.633   8.159  0.00  0.00    +0.000 A 
ENDBRANCH   6   8
ENDBRANCH   1   2
BRANCH   1  15
ATOM     15  O   UNL     1      48.943   6.627  12.836  0.00  0.00    +0.000 OA
BRANCH  15  19
ATOM     16  C   UNL     1      45.274   4.763  12.772  0.00  0.00    +0.000 A 
ATOM     17  C   UNL     1      45.509   5.857  11.935  0.00  0.00    +0.000 A 
ATOM     18  C   UNL     1      46.757   6.481  11.969  0.00  0.00    +0.000 A 
ATOM     19  C   UNL     1      47.720   5.988  12.836  0.00  0.00    +0.000 A 
ATOM     20  N   UNL     1      47.519   4.938  13.660  0.00  0.00    +0.000 NA
ATOM     21  C   UNL     1      46.296   4.356  13.618  0.00  0.00    +0.000 A 
BRANCH  16  23
ATOM     22  N   UNL     1      44.017   2.693  12.549  0.00  0.00    +0.000 N 
ATOM     23  C   UNL     1      43.991   4.033  12.821  0.00  0.00    +0.000 C 
ATOM     24  O   UNL     1      42.948   4.596  13.123  0.00  0.00    +0.000 OA
ATOM     25  H   UNL     1      43.147   2.195  12.693  0.00  0.00    +0.000 HD
ATOM     26  H   UNL     1      44.869   2.151  12.544  0.00  0.00    +0.000 HD
ENDBRANCH  16  23
ENDBRANCH  15  19
ENDBRANCH   1  15
TORSDOF 5
ENDMDL
