MODEL 1
REMARK VINA RESULT:    -7.113      0.000      0.000
REMARK INTER + INTRA:          -8.814
REMARK INTER:                  -8.361
REMARK INTRA:                  -0.454
REMARK UNBOUND:                -0.454
REMARK  Name = 
REMARK  6 active torsions:
REMARK  status: ('A' for Active; 'I' for Inactive)
REMARK    1  A    between atoms: C_1  and  C_2
REMARK    2  A    between atoms: C_2  and  C_3
REMARK    3  A    between atoms: C_2  and  C_4
REMARK    4  A    between atoms: C_2  and  C_5
REMARK    5  A    between atoms: N_7  and  C_8
REMARK    6  A    between atoms: C_8  and  C_9
REMARK                            x       y       z     vdW  Elec       q    Type
REMARK                         _______ _______ _______ _____ _____    ______ ____
ROOT
ATOM      1  C   UNL     1      45.883   5.606  11.238  0.00  0.00    +0.000 A 
ATOM      2  C   UNL     1      46.025   5.422   9.864  0.00  0.00    +0.000 A 
ATOM      3  N   UNL     1      45.261   4.362   9.462  0.00  0.00    +0.000 N 
ATOM      4  C   UNL     1      44.660   3.797  10.553  0.00  0.00    +0.000 A 
ATOM      5  N   UNL     1      43.865   2.715  10.495  0.00  0.00    +0.000 NA
ATOM      6  C   UNL     1      43.380   2.387  11.695  0.00  0.00    +0.000 A 
ATOM      7  N   UNL     1      43.579   3.021  12.859  0.00  0.00    +0.000 NA
ATOM      8  C   UNL     1      44.366   4.118  12.880  0.00  0.00    +0.000 A 
ATOM      9  N   UNL     1      44.462   4.718  14.125  0.00  0.00    +0.000 N 
ATOM     10  C   UNL     1      44.985   4.549  11.685  0.00  0.00    +0.000 A 
ATOM     11  H   UNL     1      44.128   4.086  14.843  0.00  0.00    +0.000 HD
ATOM     12  H   UNL     1      45.325   5.190  14.326  0.00  0.00    +0.000 HD
ENDROOT
BRANCH   1  14
ATOM     13  C   UNL     1      47.284   6.187  13.292  0.00  0.00    +0.000 C 
ATOM     14  C   UNL     1      46.555   6.735  12.034  0.00  0.00    +0.000 C 
ATOM     15  C   UNL     1      45.508   7.738  12.555  0.00  0.00    +0.000 C 
ATOM     16  C   UNL     1      47.635   7.450  11.197  0.00  0.00    +0.000 C 
ENDBRANCH   1  14
BRANCH   3  17
ATOM     17  C   UNL     1      44.963   4.028   8.074  0.00  0.00    +0.000 C 
BRANCH  17  18
ATOM     18  C   UNL     1      46.002   3.170   7.409  0.00  0.00    +0.000 A 
ATOM     19  C   UNL     1      46.569   3.535   6.183  0.00  0.00    +0.000 A 
ATOM     20  C   UNL     1      47.439   2.665   5.532  0.00  0.00    +0.000 A 
ATOM     21  C   UNL     1      47.722   1.451   6.135  0.00  0.00    +0.000 A 
ATOM     22  N   UNL     1      47.213   1.068   7.323  0.00  0.00    +0.000 NA
ATOM     23  C   UNL     1      46.365   1.933   7.933  0.00  0.00    +0.000 A 
ENDBRANCH  17  18
ENDBRANCH   3  17
TORSDOF 3
ENDMDL
MODEL 2
REMARK VINA RESULT:    -6.631      1.977      3.229
REMARK INTER + INTRA:          -8.248
REMARK INTER:                  -8.119
REMARK INTRA:                  -0.129
REMARK UNBOUND:                -0.454
REMARK  Name = 
REMARK  6 active torsions:
REMARK  status: ('A' for Active; 'I' for Inactive)
REMARK    1  A    between atoms: C_1  and  C_2
REMARK    2  A    between atoms: C_2  and  C_3
REMARK    3  A    between atoms: C_2  and  C_4
REMARK    4  A    between atoms: C_2  and  C_5
REMARK    5  A    between atoms: N_7  and  C_8
REMARK    6  A    between atoms: C_8  and  C_9
REMARK                            x       y       z     vdW  Elec       q    Type
REMARK                         _______ _______ _______ _____ _____    ______ ____
ROOT
ATOM      1  C   UNL     1      46.617   7.109  12.396  0.00  0.00    +0.000 A 
ATOM      2  C   UNL     1      45.795   6.672  11.361  0.00  0.00    +0.000 A 
ATOM      3  N   UNL     1      45.520   5.342  11.522  0.00  0.00    +0.000 N 
ATOM      4  C   UNL     1      46.196   4.870  12.614  0.00  0.00    +0.000 A 
ATOM      5  N   UNL     1      46.159   3.590  13.022  0.00  0.00    +0.000 NA
ATOM      6  C   UNL     1      46.878   3.400  14.131  0.00  0.00    +0.000 A 
ATOM      7  N   UNL     1      47.556   4.317  14.835  0.00  0.00    +0.000 NA
ATOM      8  C   UNL     1      47.555   5.598  14.410  0.00  0.00    +0.000 A 
ATOM      9  N   UNL     1      48.246   6.467  15.239  0.00  0.00    +0.000 N 
ATOM     10  C   UNL     1      46.871   5.933  13.219  0.00  0.00    +0.000 A 
ATOM     11  H   UNL     1      48.834   5.945  15.878  0.00  0.00    +0.000 HD
ATOM     12  H   UNL     1      48.678   7.257  14.795  0.00  0.00    +0.000 HD
ENDROOT
BRANCH   1  14
ATOM     13  C   UNL     1      46.176   9.553  11.803  0.00  0.00    +0.000 C 
ATOM     14  C   UNL     1      47.091   8.560  12.572  0.00  0.00    +0.000 C 
ATOM     15  C   UNL     1      48.505   8.749  11.989  0.00  0.00    +0.000 C 
ATOM     16  C   UNL     1      47.041   8.995  14.050  0.00  0.00    +0.000 C 
ENDBRANCH   1  14
BRANCH   3  17
ATOM     17  C   UNL     1      44.503   4.604  10.783  0.00  0.00    +0.000 C 
BRANCH  17  18
ATOM     18  C   UNL     1      45.028   3.853   9.592  0.00  0.00    +0.000 A 
ATOM     19  C   UNL     1      45.103   2.455   9.591  0.00  0.00    +0.000 A 
ATOM     20  C   UNL     1      45.704   1.792   8.524  0.00  0.00    +0.000 A 
ATOM     21  C   UNL     1      46.210   2.552   7.483  0.00  0.00    +0.000 A 
ATOM     22  N   UNL     1      46.142   3.897   7.436  0.00  0.00    +0.000 NA
ATOM     23  C   UNL     1      45.556   4.518   8.489  0.00  0.00    +0.000 A 
ENDBRANCH  17  18
ENDBRANCH   3  17
TORSDOF 3
ENDMDL
MODEL 3
REMARK VINA RESULT:    -6.067      3.664      5.575
REMARK INTER + INTRA:          -7.585
REMARK INTER:                  -6.955
REMARK INTRA:                  -0.631
REMARK UNBOUND:                -0.454
REMARK  Name = 
REMARK  6 active torsions:
REMARK  status: ('A' for Active; 'I' for Inactive)
REMARK    1  A    between atoms: C_1  and  C_2
REMARK    2  A    between atoms: C_2  and  C_3
REMARK    3  A    between atoms: C_2  and  C_4
REMARK    4  A    between atoms: C_2  and  C_5
REMARK    5  A    between atoms: N_7  and  C_8
REMARK    6  A    between atoms: C_8  and  C_9
REMARK                            x       y       z     vdW  Elec       q    Type
REMARK                         _______ _______ _______ _____ _____    ______ ____
ROOT
ATOM      1  C   UNL     1      48.074   6.445  13.881  0.00  0.00    +0.000 A 
ATOM      2  C   UNL     1      47.465   5.613  12.945  0.00  0.00    +0.000 A 
ATOM      3  N   UNL     1      46.979   4.498  13.570  0.00  0.00    +0.000 N 
ATOM      4  C   UNL     1      47.307   4.543  14.897  0.00  0.00    +0.000 A 
ATOM      5  N   UNL     1      46.998   3.577  15.778  0.00  0.00    +0.000 NA
ATOM      6  C   UNL     1      47.404   3.881  17.013  0.00  0.00    +0.000 A 
ATOM      7  N   UNL     1      48.018   5.001  17.421  0.00  0.00    +0.000 NA
ATOM      8  C   UNL     1      48.295   5.961  16.514  0.00  0.00    +0.000 A 
ATOM      9  N   UNL     1      48.886   7.092  17.054  0.00  0.00    +0.000 N 
ATOM     10  C   UNL     1      47.963   5.749  15.157  0.00  0.00    +0.000 A 
ATOM     11  H   UNL     1      49.229   6.894  17.987  0.00  0.00    +0.000 HD
ATOM     12  H   UNL     1      49.515   7.595  16.455  0.00  0.00    +0.000 HD
ENDROOT
BRANCH   1  14
ATOM     13  C   UNL     1      48.610   8.121  12.030  0.00  0.00    +0.000 C 
ATOM     14  C   UNL     1      48.690   7.813  13.552  0.00  0.00    +0.000 C 
ATOM     15  C   UNL     1      50.188   7.842  13.912  0.00  0.00    +0.000 C 
ATOM     16  C   UNL     1      47.932   8.958  14.254  0.00  0.00    +0.000 C 
ENDBRANCH   1  14
BRANCH   3  17
ATOM     17  C   UNL     1      46.071   3.531  12.963  0.00  0.00    +0.000 C 
BRANCH  17  18
ATOM     18  C   UNL     1      44.789   4.124  12.452  0.00  0.00    +0.000 A 
ATOM     19  C   UNL     1      44.607   4.398  11.092  0.00  0.00    +0.000 A 
ATOM     20  C   UNL     1      43.458   5.056  10.663  0.00  0.00    +0.000 A 
ATOM     21  C   UNL     1      42.518   5.419  11.613  0.00  0.00    +0.000 A 
ATOM     22  N   UNL     1      42.645   5.158  12.929  0.00  0.00    +0.000 NA
ATOM     23  C   UNL     1      43.776   4.519  13.320  0.00  0.00    +0.000 A 
ENDBRANCH  17  18
ENDBRANCH   3  17
TORSDOF 3
ENDMDL
MODEL 4
REMARK VINA RESULT:    -6.058      2.774      4.173
REMARK INTER + INTRA:          -7.575
REMARK INTER:                  -7.048
REMARK INTRA:                  -0.526
REMARK UNBOUND:                -0.454
REMARK  Name = 
REMARK  6 active torsions:
REMARK  status: ('A' for Active; 'I' for Inactive)
REMARK    1  A    between atoms: C_1  and  C_2
REMARK    2  A    between atoms: C_2  and  C_3
REMARK    3  A    between atoms: C_2  and  C_4
REMARK    4  A    between atoms: C_2  and  C_5
REMARK    5  A    between atoms: N_7  and  C_8
REMARK    6  A    between atoms: C_8  and  C_9
REMARK                            x       y       z     vdW  Elec       q    Type
REMARK                         _______ _______ _______ _____ _____    ______ ____
ROOT
ATOM      1  C   UNL     1      46.245   7.438  12.388  0.00  0.00    +0.000 A 
ATOM      2  C   UNL     1      45.624   6.209  12.181  0.00  0.00    +0.000 A 
ATOM      3  N   UNL     1      44.420   6.400  11.563  0.00  0.00    +0.000 N 
ATOM      4  C   UNL     1      44.198   7.741  11.408  0.00  0.00    +0.000 A 
ATOM      5  N   UNL     1      43.086   8.258  10.860  0.00  0.00    +0.000 NA
ATOM      6  C   UNL     1      43.134   9.591  10.798  0.00  0.00    +0.000 A 
ATOM      7  N   UNL     1      44.139  10.392  11.179  0.00  0.00    +0.000 NA
ATOM      8  C   UNL     1      45.251   9.839  11.706  0.00  0.00    +0.000 A 
ATOM      9  N   UNL     1      46.242  10.756  12.020  0.00  0.00    +0.000 N 
ATOM     10  C   UNL     1      45.315   8.438  11.875  0.00  0.00    +0.000 A 
ATOM     11  H   UNL     1      45.858  11.694  12.027  0.00  0.00    +0.000 HD
ATOM     12  H   UNL     1      46.838  10.522  12.793  0.00  0.00    +0.000 HD
ENDROOT
BRANCH   1  14
ATOM     13  C   UNL     1      48.190   6.262  13.551  0.00  0.00    +0.000 C 
ATOM     14  C   UNL     1      47.637   7.612  13.014  0.00  0.00    +0.000 C 
ATOM     15  C   UNL     1      47.578   8.558  14.230  0.00  0.00    +0.000 C 
ATOM     16  C   UNL     1      48.665   8.108  11.978  0.00  0.00    +0.000 C 
ENDBRANCH   1  14
BRANCH   3  17
ATOM     17  C   UNL     1      43.611   5.343  10.968  0.00  0.00    +0.000 C 
BRANCH  17  18
ATOM     18  C   UNL     1      44.378   4.400  10.085  0.00  0.00    +0.000 A 
ATOM     19  C   UNL     1      45.209   4.876   9.063  0.00  0.00    +0.000 A 
ATOM     20  C   UNL     1      45.813   3.981   8.185  0.00  0.00    +0.000 A 
ATOM     21  C   UNL     1      45.572   2.629   8.360  0.00  0.00    +0.000 A 
ATOM     22  N   UNL     1      44.796   2.128   9.341  0.00  0.00    +0.000 NA
ATOM     23  C   UNL     1      44.216   3.022  10.180  0.00  0.00    +0.000 A 
ENDBRANCH  17  18
ENDBRANCH   3  17
TORSDOF 3
ENDMDL
MODEL 5
REMARK VINA RESULT:    -5.814      1.822      5.328
REMARK INTER + INTRA:          -7.287
REMARK INTER:                  -6.995
REMARK INTRA:                  -0.292
REMARK UNBOUND:                -0.454
REMARK  Name = 
REMARK  6 active torsions:
REMARK  status: ('A' for Active; 'I' for Inactive)
REMARK    1  A    between atoms: C_1  and  C_2
REMARK    2  A    between atoms: C_2  and  C_3
REMARK    3  A    between atoms: C_2  and  C_4
REMARK    4  A    between atoms: C_2  and  C_5
REMARK    5  A    between atoms: N_7  and  C_8
REMARK    6  A    between atoms: C_8  and  C_9
REMARK                            x       y       z     vdW  Elec       q    Type
REMARK                         _______ _______ _______ _____ _____    ______ ____
ROOT
ATOM      1  C   UNL     1      45.222   4.595   9.700  0.00  0.00    +0.000 A 
ATOM      2  C   UNL     1      45.643   5.911   9.869  0.00  0.00    +0.000 A 
ATOM      3  N   UNL     1      45.270   6.357  11.106  0.00  0.00    +0.000 N 
ATOM      4  C   UNL     1      44.552   5.381  11.742  0.00  0.00    +0.000 A 
ATOM      5  N   UNL     1      44.016   5.522  12.966  0.00  0.00    +0.000 NA
ATOM      6  C   UNL     1      43.395   4.411  13.369  0.00  0.00    +0.000 A 
ATOM      7  N   UNL     1      43.298   3.244  12.715  0.00  0.00    +0.000 NA
ATOM      8  C   UNL     1      43.866   3.129  11.496  0.00  0.00    +0.000 A 
ATOM      9  N   UNL     1      43.745   1.868  10.936  0.00  0.00    +0.000 N 
ATOM     10  C   UNL     1      44.517   4.247  10.927  0.00  0.00    +0.000 A 
ATOM     11  H   UNL     1      43.041   1.333  11.430  0.00  0.00    +0.000 HD
ATOM     12  H   UNL     1      43.700   1.828   9.933  0.00  0.00    +0.000 HD
ENDROOT
BRANCH   1  14
ATOM     13  C   UNL     1      45.983   2.318   8.829  0.00  0.00    +0.000 C 
ATOM     14  C   UNL     1      45.508   3.748   8.450  0.00  0.00    +0.000 C 
ATOM     15  C   UNL     1      46.648   4.366   7.617  0.00  0.00    +0.000 C 
ATOM     16  C   UNL     1      44.240   3.559   7.594  0.00  0.00    +0.000 C 
ENDBRANCH   1  14
BRANCH   3  17
ATOM     17  C   UNL     1      45.746   7.586  11.729  0.00  0.00    +0.000 C 
BRANCH  17  18
ATOM     18  C   UNL     1      47.190   7.550  12.142  0.00  0.00    +0.000 A 
ATOM     19  C   UNL     1      48.100   8.513  11.689  0.00  0.00    +0.000 A 
ATOM     20  C   UNL     1      49.454   8.386  11.989  0.00  0.00    +0.000 A 
ATOM     21  C   UNL     1      49.858   7.297  12.743  0.00  0.00    +0.000 A 
ATOM     22  N   UNL     1      49.013   6.359  13.215  0.00  0.00    +0.000 NA
ATOM     23  C   UNL     1      47.701   6.503  12.903  0.00  0.00    +0.000 A 
ENDBRANCH  17  18
ENDBRANCH   3  17
TORSDOF 3
ENDMDL
MODEL 6
REMARK VINA RESULT:    -5.725      3.375      7.032
REMARK INTER + INTRA:          -7.183
REMARK INTER:                  -6.812
REMARK INTRA:                  -0.370
REMARK UNBOUND:                -0.454
REMARK  Name = 
REMARK  6 active torsions:
REMARK  status: ('A' for Active; 'I' for Inactive)
REMARK    1  A    between atoms: C_1  and  C_2
REMARK    2  A    between atoms: C_2  and  C_3
REMARK    3  A    between atoms: C_2  and  C_4
REMARK    4  A    between atoms: C_2  and  C_5
REMARK    5  A    between atoms: N_7  and  C_8
REMARK    6  A    between atoms: C_8  and  C_9
REMARK                            x       y       z     vdW  Elec       q    Type
REMARK                         _______ _______ _______ _____ _____    ______ ____
ROOT
ATOM      1  C   UNL     1      47.267   6.477  13.233  0.00  0.00    +0.000 A 
ATOM      2  C   UNL     1      47.657   5.855  14.416  0.00  0.00    +0.000 A 
ATOM      3  N   UNL     1      47.101   4.607  14.483  0.00  0.00    +0.000 N 
ATOM      4  C   UNL     1      46.297   4.411  13.395  0.00  0.00    +0.000 A 
ATOM      5  N   UNL     1      45.583   3.293  13.183  0.00  0.00    +0.000 NA
ATOM      6  C   UNL     1      44.908   3.343  12.031  0.00  0.00    +0.000 A 
ATOM      7  N   UNL     1      44.911   4.328  11.123  0.00  0.00    +0.000 NA
ATOM      8  C   UNL     1      45.656   5.429  11.356  0.00  0.00    +0.000 A 
ATOM      9  N   UNL     1      45.622   6.360  10.331  0.00  0.00    +0.000 N 
ATOM     10  C   UNL     1      46.385   5.530  12.563  0.00  0.00    +0.000 A 
ATOM     11  H   UNL     1      44.851   6.160   9.704  0.00  0.00    +0.000 HD
ATOM     12  H   UNL     1      45.728   7.322  10.598  0.00  0.00    +0.000 HD
ENDROOT
BRANCH   1  14
ATOM     13  C   UNL     1      48.595   7.799  11.498  0.00  0.00    +0.000 C 
ATOM     14  C   UNL     1      47.738   7.872  12.793  0.00  0.00    +0.000 C 
ATOM     15  C   UNL     1      48.643   8.510  13.865  0.00  0.00    +0.000 C 
ATOM     16  C   UNL     1      46.546   8.791  12.459  0.00  0.00    +0.000 C 
ENDBRANCH   1  14
BRANCH   3  17
ATOM     17  C   UNL     1      47.478   3.577  15.443  0.00  0.00    +0.000 C 
BRANCH  17  18
ATOM     18  C   UNL     1      48.004   4.109  16.746  0.00  0.00    +0.000 A 
ATOM     19  C   UNL     1      49.335   3.907  17.129  0.00  0.00    +0.000 A 
ATOM     20  C   UNL     1      49.764   4.306  18.392  0.00  0.00    +0.000 A 
ATOM     21  C   UNL     1      48.844   4.905  19.236  0.00  0.00    +0.000 A 
ATOM     22  N   UNL     1      47.560   5.137  18.900  0.00  0.00    +0.000 NA
ATOM     23  C   UNL     1      47.167   4.733  17.666  0.00  0.00    +0.000 A 
ENDBRANCH  17  18
ENDBRANCH   3  17
TORSDOF 3
ENDMDL
MODEL 7
REMARK VINA RESULT:    -5.701      3.684      6.178
REMARK INTER + INTRA:          -7.155
REMARK INTER:                  -6.670
REMARK INTRA:                  -0.485
REMARK UNBOUND:                -0.454
REMARK  Name = 
REMARK  6 active torsions:
REMARK  status: ('A' for Active; 'I' for Inactive)
REMARK    1  A    between atoms: C_1  and  C_2
REMARK    2  A    between atoms: C_2  and  C_3
REMARK    3  A    between atoms: C_2  and  C_4
REMARK    4  A    between atoms: C_2  and  C_5
REMARK    5  A    between atoms: N_7  and  C_8
REMARK    6  A    between atoms: C_8  and  C_9
REMARK                            x       y       z     vdW  Elec       q    Type
REMARK                         _______ _______ _______ _____ _____    ______ ____
ROOT
ATOM      1  C   UNL     1      47.859   4.875  15.889  0.00  0.00    +0.000 A 
ATOM      2  C   UNL     1      47.017   3.989  15.221  0.00  0.00    +0.000 A 
ATOM      3  N   UNL     1      46.797   4.437  13.949  0.00  0.00    +0.000 N 
ATOM      4  C   UNL     1      47.427   5.639  13.775  0.00  0.00    +0.000 A 
ATOM      5  N   UNL     1      47.377   6.354  12.640  0.00  0.00    +0.000 NA
ATOM      6  C   UNL     1      48.103   7.472  12.722  0.00  0.00    +0.000 A 
ATOM      7  N   UNL     1      48.849   7.889  13.754  0.00  0.00    +0.000 NA
ATOM      8  C   UNL     1      48.895   7.136  14.873  0.00  0.00    +0.000 A 
ATOM      9  N   UNL     1      49.732   7.638  15.856  0.00  0.00    +0.000 N 
ATOM     10  C   UNL     1      48.132   5.948  14.941  0.00  0.00    +0.000 A 
ATOM     11  H   UNL     1      49.965   8.604  15.655  0.00  0.00    +0.000 HD
ATOM     12  H   UNL     1      49.474   7.439  16.806  0.00  0.00    +0.000 HD
ENDROOT
BRANCH   1  14
ATOM     13  C   UNL     1      47.858   3.330  17.922  0.00  0.00    +0.000 C 
ATOM     14  C   UNL     1      48.366   4.672  17.325  0.00  0.00    +0.000 C 
ATOM     15  C   UNL     1      47.834   5.778  18.257  0.00  0.00    +0.000 C 
ATOM     16  C   UNL     1      49.905   4.602  17.376  0.00  0.00    +0.000 C 
ENDBRANCH   1  14
BRANCH   3  17
ATOM     17  C   UNL     1      46.176   3.655  12.885  0.00  0.00    +0.000 C 
BRANCH  17  18
ATOM     18  C   UNL     1      44.848   4.185  12.424  0.00  0.00    +0.000 A 
ATOM     19  C   UNL     1      44.614   4.485  11.077  0.00  0.00    +0.000 A 
ATOM     20  C   UNL     1      43.418   5.086  10.696  0.00  0.00    +0.000 A 
ATOM     21  C   UNL     1      42.484   5.365  11.679  0.00  0.00    +0.000 A 
ATOM     22  N   UNL     1      42.661   5.076  12.984  0.00  0.00    +0.000 NA
ATOM     23  C   UNL     1      43.837   4.495  13.328  0.00  0.00    +0.000 A 
ENDBRANCH  17  18
ENDBRANCH   3  17
TORSDOF 3
ENDMDL
MODEL 8
REMARK VINA RESULT:    -5.676      3.841      6.470
REMARK INTER + INTRA:          -7.125
REMARK INTER:                  -6.689
REMARK INTRA:                  -0.436
REMARK UNBOUND:                -0.454
REMARK  Name = 
REMARK  6 active torsions:
REMARK  status: ('A' for Active; 'I' for Inactive)
REMARK    1  A    between atoms: C_1  and  C_2
REMARK    2  A    between atoms: C_2  and  C_3
REMARK    3  A    between atoms: C_2  and  C_4
REMARK    4  A    between atoms: C_2  and  C_5
REMARK    5  A    between atoms: N_7  and  C_8
REMARK    6  A    between atoms: C_8  and  C_9
REMARK                            x       y       z     vdW  Elec       q    Type
REMARK                         _______ _______ _______ _____ _____    ______ ____
ROOT
ATOM      1  C   UNL     1      45.429   5.850  12.179  0.00  0.00    +0.000 A 
ATOM      2  C   UNL     1      46.674   5.734  12.792  0.00  0.00    +0.000 A 
ATOM      3  N   UNL     1      47.210   6.977  12.981  0.00  0.00    +0.000 N 
ATOM      4  C   UNL     1      46.372   7.918  12.449  0.00  0.00    +0.000 A 
ATOM      5  N   UNL     1      46.629   9.236  12.448  0.00  0.00    +0.000 NA
ATOM      6  C   UNL     1      45.636   9.938  11.897  0.00  0.00    +0.000 A 
ATOM      7  N   UNL     1      44.475   9.473  11.413  0.00  0.00    +0.000 NA
ATOM      8  C   UNL     1      44.238   8.145  11.450  0.00  0.00    +0.000 A 
ATOM      9  N   UNL     1      42.991   7.782  10.968  0.00  0.00    +0.000 N 
ATOM     10  C   UNL     1      45.229   7.277  11.963  0.00  0.00    +0.000 A 
ATOM     11  H   UNL     1      42.582   8.550  10.447  0.00  0.00    +0.000 HD
ATOM     12  H   UNL     1      42.926   6.878  10.536  0.00  0.00    +0.000 HD
ENDROOT
BRANCH   1  14
ATOM     13  C   UNL     1      45.173   3.310  12.236  0.00  0.00    +0.000 C 
ATOM     14  C   UNL     1      44.509   4.663  11.855  0.00  0.00    +0.000 C 
ATOM     15  C   UNL     1      44.226   4.584  10.342  0.00  0.00    +0.000 C 
ATOM     16  C   UNL     1      43.196   4.730  12.659  0.00  0.00    +0.000 C 
ENDBRANCH   1  14
BRANCH   3  17
ATOM     17  C   UNL     1      48.376   7.266  13.809  0.00  0.00    +0.000 C 
BRANCH  17  18
ATOM     18  C   UNL     1      49.580   7.728  13.039  0.00  0.00    +0.000 A 
ATOM     19  C   UNL     1      49.731   7.430  11.679  0.00  0.00    +0.000 A 
ATOM     20  C   UNL     1      50.911   7.766  11.021  0.00  0.00    +0.000 A 
ATOM     21  C   UNL     1      51.907   8.400  11.745  0.00  0.00    +0.000 A 
ATOM     22  N   UNL     1      51.795   8.721  13.049  0.00  0.00    +0.000 NA
ATOM     23  C   UNL     1      50.638   8.378  13.667  0.00  0.00    +0.000 A 
ENDBRANCH  17  18
ENDBRANCH   3  17
TORSDOF 3
ENDMDL
MODEL 9
REMARK VINA RESULT:    -5.670      3.812      6.995
REMARK INTER + INTRA:          -7.119
REMARK INTER:                  -7.269
REMARK INTRA:                   0.150
REMARK UNBOUND:                -0.454
REMARK  Name = 
REMARK  6 active torsions:
REMARK  status: ('A' for Active; 'I' for Inactive)
REMARK    1  A    between atoms: C_1  and  C_2
REMARK    2  A    between atoms: C_2  and  C_3
REMARK    3  A    between atoms: C_2  and  C_4
REMARK    4  A    between atoms: C_2  and  C_5
REMARK    5  A    between atoms: N_7  and  C_8
REMARK    6  A    between atoms: C_8  and  C_9
REMARK                            x       y       z     vdW  Elec       q    Type
REMARK                         _______ _______ _______ _____ _____    ______ ____
ROOT
ATOM      1  C   UNL     1      45.122   5.625  12.164  0.00  0.00    +0.000 A 
ATOM      2  C   UNL     1      46.259   5.176  12.832  0.00  0.00    +0.000 A 
ATOM      3  N   UNL     1      47.059   6.241  13.141  0.00  0.00    +0.000 N 
ATOM      4  C   UNL     1      46.506   7.385  12.637  0.00  0.00    +0.000 A 
ATOM      5  N   UNL     1      47.067   8.601  12.747  0.00  0.00    +0.000 NA
ATOM      6  C   UNL     1      46.309   9.553  12.199  0.00  0.00    +0.000 A 
ATOM      7  N   UNL     1      45.108   9.410  11.620  0.00  0.00    +0.000 NA
ATOM      8  C   UNL     1      44.561   8.178  11.545  0.00  0.00    +0.000 A 
ATOM      9  N   UNL     1      43.300   8.156  10.972  0.00  0.00    +0.000 N 
ATOM     10  C   UNL     1      45.281   7.069  12.045  0.00  0.00    +0.000 A 
ATOM     11  H   UNL     1      43.121   9.029  10.489  0.00  0.00    +0.000 HD
ATOM     12  H   UNL     1      43.053   7.321  10.471  0.00  0.00    +0.000 HD
ENDROOT
BRANCH   1  14
ATOM     13  C   UNL     1      44.203   3.242  12.143  0.00  0.00    +0.000 C 
ATOM     14  C   UNL     1      43.972   4.715  11.704  0.00  0.00    +0.000 C 
ATOM     15  C   UNL     1      43.875   4.689  10.166  0.00  0.00    +0.000 C 
ATOM     16  C   UNL     1      42.630   5.139  12.334  0.00  0.00    +0.000 C 
ENDBRANCH   1  14
BRANCH   3  17
ATOM     17  C   UNL     1      48.200   6.190  14.049  0.00  0.00    +0.000 C 
BRANCH  17  18
ATOM     18  C   UNL     1      47.912   5.526  15.365  0.00  0.00    +0.000 A 
ATOM     19  C   UNL     1      48.466   6.006  16.558  0.00  0.00    +0.000 A 
ATOM     20  C   UNL     1      48.281   5.301  17.744  0.00  0.00    +0.000 A 
ATOM     21  C   UNL     1      47.537   4.134  17.702  0.00  0.00    +0.000 A 
ATOM     22  N   UNL     1      46.971   3.647  16.580  0.00  0.00    +0.000 NA
ATOM     23  C   UNL     1      47.171   4.350  15.438  0.00  0.00    +0.000 A 
ENDBRANCH  17  18
ENDBRANCH   3  17
TORSDOF 3
ENDMDL
