MODEL 1
REMARK VINA RESULT:    -9.622      0.000      0.000
REMARK INTER + INTRA:         -13.230
REMARK INTER:                 -12.716
REMARK INTRA:                  -0.514
REMARK UNBOUND:                -0.514
REMARK  Name = 
REMARK  6 active torsions:
REMARK  status: ('A' for Active; 'I' for Inactive)
REMARK    1  A    between atoms: C_2  and  C_4
REMARK    2  A    between atoms: C_7  and  N_8
REMARK    3  A    between atoms: N_8  and  C_9
REMARK    4  A    between atoms: C_9  and  C_10
REMARK    5  A    between atoms: C_14  and  C_15
REMARK    6  A    between atoms: C_19  and  O_20
REMARK                            x       y       z     vdW  Elec       q    Type
REMARK                         _______ _______ _______ _____ _____    ______ ____
ROOT
ATOM      1  C   UNL     1      44.122   4.802  11.481  0.00  0.00    +0.000 C 
ATOM      2  C   UNL     1      43.376   3.754  12.295  0.00  0.00    +0.000 C 
ATOM      3  C   UNL     1      42.912   5.169  12.335  0.00  0.00    +0.000 C 
ENDROOT
BRANCH   1   4
ATOM      4  C   UNL     1      45.454   5.338  11.998  0.00  0.00    +0.000 A 
ATOM      5  C   UNL     1      46.138   6.365  11.329  0.00  0.00    +0.000 A 
ATOM      6  C   UNL     1      47.268   6.961  11.886  0.00  0.00    +0.000 A 
ATOM      7  C   UNL     1      47.728   6.546  13.135  0.00  0.00    +0.000 A 
ATOM      8  C   UNL     1      47.089   5.509  13.834  0.00  0.00    +0.000 A 
ATOM      9  C   UNL     1      45.987   4.891  13.219  0.00  0.00    +0.000 A 
BRANCH   8  10
ATOM     10  C   UNL     1      47.470   5.154  15.212  0.00  0.00    +0.000 A 
ATOM     11  C   UNL     1      48.512   5.789  15.898  0.00  0.00    +0.000 A 
ATOM     12  N   UNL     1      48.960   5.439  17.133  0.00  0.00    +0.000 NA
ATOM     13  C   UNL     1      48.335   4.399  17.726  0.00  0.00    +0.000 A 
ATOM     14  C   UNL     1      47.284   3.709  17.146  0.00  0.00    +0.000 A 
ATOM     15  C   UNL     1      46.853   4.088  15.883  0.00  0.00    +0.000 A 
BRANCH  14  16
ATOM     16  O   UNL     1      46.659   2.657  17.744  0.00  0.00    +0.000 OA
ATOM     17  H   UNL     1      47.315   1.967  17.935  0.00  0.00    +0.000 HD
ENDBRANCH  14  16
ENDBRANCH   8  10
ENDBRANCH   1   4
BRANCH   1  18
ATOM     18  N   UNL     1      43.984   4.828  10.009  0.00  0.00    +0.000 N 
ATOM     19  H   UNL     1      43.032   4.734   9.671  0.00  0.00    +0.000 HD
BRANCH  18  23
ATOM     20  C   UNL     1      46.428   2.395   7.744  0.00  0.00    +0.000 A 
ATOM     21  C   UNL     1      46.451   3.768   7.570  0.00  0.00    +0.000 A 
ATOM     22  N   UNL     1      45.663   4.608   8.292  0.00  0.00    +0.000 NA
ATOM     23  C   UNL     1      44.854   4.041   9.217  0.00  0.00    +0.000 A 
ATOM     24  C   UNL     1      44.845   2.647   9.371  0.00  0.00    +0.000 A 
ATOM     25  N   UNL     1      45.620   1.788   8.655  0.00  0.00    +0.000 NA
BRANCH  20  27
ATOM     26  N   UNL     1      48.354   2.157   6.297  0.00  0.00    +0.000 N 
ATOM     27  C   UNL     1      47.299   1.529   6.904  0.00  0.00    +0.000 C 
ATOM     28  O   UNL     1      47.103   0.326   6.773  0.00  0.00    +0.000 OA
ATOM     29  H   UNL     1      49.004   1.617   5.744  0.00  0.00    +0.000 HD
ATOM     30  H   UNL     1      48.512   3.148   6.451  0.00  0.00    +0.000 HD
ENDBRANCH  20  27
ENDBRANCH  18  23
ENDBRANCH   1  18
TORSDOF 6
ENDMDL
MODEL 2
REMARK VINA RESULT:    -8.847      2.869      3.963
REMARK INTER + INTRA:         -12.206
REMARK INTER:                 -11.490
REMARK INTRA:                  -0.716
REMARK UNBOUND:                -0.514
REMARK  Name = 
REMARK  6 active torsions:
REMARK  status: ('A' for Active; 'I' for Inactive)
REMARK    1  A    between atoms: C_2  and  C_4
REMARK    2  A    between atoms: C_7  and  N_8
REMARK    3  A    between atoms: N_8  and  C_9
REMARK    4  A    between atoms: C_9  and  C_10
REMARK    5  A    between atoms: C_14  and  C_15
REMARK    6  A    between atoms: C_19  and  O_20
REMARK                            x       y       z     vdW  Elec       q    Type
REMARK                         _______ _______ _______ _____ _____    ______ ____
ROOT
ATOM      1  C   UNL     1      43.956   4.876  11.227  0.00  0.00    +0.000 C 
ATOM      2  C   UNL     1      42.984   3.816  11.726  0.00  0.00    +0.000 C 
ATOM      3  C   UNL     1      42.632   5.255  11.883  0.00  0.00    +0.000 C 
ENDROOT
BRANCH   1   4
ATOM      4  C   UNL     1      45.195   5.201  12.057  0.00  0.00    +0.000 A 
ATOM      5  C   UNL     1      45.805   4.232  12.870  0.00  0.00    +0.000 A 
ATOM      6  C   UNL     1      47.023   4.483  13.500  0.00  0.00    +0.000 A 
ATOM      7  C   UNL     1      47.661   5.709  13.315  0.00  0.00    +0.000 A 
ATOM      8  C   UNL     1      47.081   6.716  12.526  0.00  0.00    +0.000 A 
ATOM      9  C   UNL     1      45.826   6.452  11.952  0.00  0.00    +0.000 A 
BRANCH   8  10
ATOM     10  C   UNL     1      47.803   7.959  12.204  0.00  0.00    +0.000 A 
ATOM     11  C   UNL     1      47.181   9.212  12.177  0.00  0.00    +0.000 A 
ATOM     12  N   UNL     1      47.780  10.372  11.800  0.00  0.00    +0.000 NA
ATOM     13  C   UNL     1      49.076  10.286  11.430  0.00  0.00    +0.000 A 
ATOM     14  C   UNL     1      49.793   9.101  11.432  0.00  0.00    +0.000 A 
ATOM     15  C   UNL     1      49.151   7.934  11.819  0.00  0.00    +0.000 A 
BRANCH  14  16
ATOM     16  O   UNL     1      51.099   9.017  11.053  0.00  0.00    +0.000 OA
ATOM     17  H   UNL     1      51.638   9.557  11.654  0.00  0.00    +0.000 HD
ENDBRANCH  14  16
ENDBRANCH   8  10
ENDBRANCH   1   4
BRANCH   1  18
ATOM     18  N   UNL     1      44.118   5.103   9.775  0.00  0.00    +0.000 N 
ATOM     19  H   UNL     1      43.249   5.239   9.268  0.00  0.00    +0.000 HD
BRANCH  18  23
ATOM     20  C   UNL     1      46.524   2.512   7.649  0.00  0.00    +0.000 A 
ATOM     21  C   UNL     1      46.652   3.880   7.486  0.00  0.00    +0.000 A 
ATOM     22  N   UNL     1      45.880   4.771   8.164  0.00  0.00    +0.000 NA
ATOM     23  C   UNL     1      44.978   4.259   9.033  0.00  0.00    +0.000 A 
ATOM     24  C   UNL     1      44.865   2.869   9.178  0.00  0.00    +0.000 A 
ATOM     25  N   UNL     1      45.621   1.961   8.506  0.00  0.00    +0.000 NA
BRANCH  20  27
ATOM     26  N   UNL     1      48.539   2.132   6.364  0.00  0.00    +0.000 N 
ATOM     27  C   UNL     1      47.383   1.590   6.859  0.00  0.00    +0.000 C 
ATOM     28  O   UNL     1      47.092   0.413   6.673  0.00  0.00    +0.000 OA
ATOM     29  H   UNL     1      49.184   1.547   5.850  0.00  0.00    +0.000 HD
ATOM     30  H   UNL     1      48.772   3.100   6.562  0.00  0.00    +0.000 HD
ENDBRANCH  20  27
ENDBRANCH  18  23
ENDBRANCH   1  18
TORSDOF 6
ENDMDL
MODEL 3
REMARK VINA RESULT:    -8.471      2.131      2.631
REMARK INTER + INTRA:         -11.709
REMARK INTER:                 -11.135
REMARK INTRA:                  -0.575
REMARK UNBOUND:                -0.514
REMARK  Name = 
REMARK  6 active torsions:
REMARK  status: ('A' for Active; 'I' for Inactive)
REMARK    1  A    between atoms: C_2  and  C_4
REMARK    2  A    between atoms: C_7  and  N_8
REMARK    3  A    between atoms: N_8  and  C_9
REMARK    4  A    between atoms: C_9  and  C_10
REMARK    5  A    between atoms: C_14  and  C_15
REMARK    6  A    between atoms: C_19  and  O_20
REMARK                            x       y       z     vdW  Elec       q    Type
REMARK                         _______ _______ _______ _____ _____    ______ ____
ROOT
ATOM      1  C   UNL     1      44.162   4.998  11.442  0.00  0.00    +0.000 C 
ATOM      2  C   UNL     1      44.237   3.830  12.415  0.00  0.00    +0.000 C 
ATOM      3  C   UNL     1      43.067   4.751  12.476  0.00  0.00    +0.000 C 
ENDROOT
BRANCH   1   4
ATOM      4  C   UNL     1      45.013   6.237  11.699  0.00  0.00    +0.000 A 
ATOM      5  C   UNL     1      44.555   7.522  11.364  0.00  0.00    +0.000 A 
ATOM      6  C   UNL     1      45.262   8.661  11.743  0.00  0.00    +0.000 A 
ATOM      7  C   UNL     1      46.439   8.535  12.480  0.00  0.00    +0.000 A 
ATOM      8  C   UNL     1      46.948   7.272  12.823  0.00  0.00    +0.000 A 
ATOM      9  C   UNL     1      46.241   6.142  12.376  0.00  0.00    +0.000 A 
BRANCH   8  10
ATOM     10  C   UNL     1      48.107   7.121  13.718  0.00  0.00    +0.000 A 
ATOM     11  C   UNL     1      48.141   6.194  14.767  0.00  0.00    +0.000 A 
ATOM     12  N   UNL     1      49.147   6.078  15.673  0.00  0.00    +0.000 NA
ATOM     13  C   UNL     1      50.185   6.930  15.530  0.00  0.00    +0.000 A 
ATOM     14  C   UNL     1      50.263   7.876  14.522  0.00  0.00    +0.000 A 
ATOM     15  C   UNL     1      49.218   7.971  13.614  0.00  0.00    +0.000 A 
BRANCH  14  16
ATOM     16  O   UNL     1      51.309   8.737  14.383  0.00  0.00    +0.000 OA
ATOM     17  H   UNL     1      51.989   8.516  15.039  0.00  0.00    +0.000 HD
ENDBRANCH  14  16
ENDBRANCH   8  10
ENDBRANCH   1   4
BRANCH   1  18
ATOM     18  N   UNL     1      43.857   4.751  10.016  0.00  0.00    +0.000 N 
ATOM     19  H   UNL     1      42.920   4.405   9.836  0.00  0.00    +0.000 HD
BRANCH  18  23
ATOM     20  C   UNL     1      46.496   2.544   7.737  0.00  0.00    +0.000 A 
ATOM     21  C   UNL     1      46.419   3.918   7.587  0.00  0.00    +0.000 A 
ATOM     22  N   UNL     1      45.564   4.685   8.314  0.00  0.00    +0.000 NA
ATOM     23  C   UNL     1      44.790   4.044   9.220  0.00  0.00    +0.000 A 
ATOM     24  C   UNL     1      44.883   2.651   9.352  0.00  0.00    +0.000 A 
ATOM     25  N   UNL     1      45.726   1.864   8.630  0.00  0.00    +0.000 NA
BRANCH  20  27
ATOM     26  N   UNL     1      48.534   2.439   6.438  0.00  0.00    +0.000 N 
ATOM     27  C   UNL     1      47.436   1.759   6.893  0.00  0.00    +0.000 C 
ATOM     28  O   UNL     1      47.257   0.575   6.631  0.00  0.00    +0.000 OA
ATOM     29  H   UNL     1      49.230   1.951   5.890  0.00  0.00    +0.000 HD
ATOM     30  H   UNL     1      48.676   3.409   6.698  0.00  0.00    +0.000 HD
ENDBRANCH  20  27
ENDBRANCH  18  23
ENDBRANCH   1  18
TORSDOF 6
ENDMDL
MODEL 4
REMARK VINA RESULT:    -7.896      3.193      3.957
REMARK INTER + INTRA:         -10.949
REMARK INTER:                 -10.283
REMARK INTRA:                  -0.665
REMARK UNBOUND:                -0.514
REMARK  Name = 
REMARK  6 active torsions:
REMARK  status: ('A' for Active; 'I' for Inactive)
REMARK    1  A    between atoms: C_2  and  C_4
REMARK    2  A    between atoms: C_7  and  N_8
REMARK    3  A    between atoms: N_8  and  C_9
REMARK    4  A    between atoms: C_9  and  C_10
REMARK    5  A    between atoms: C_14  and  C_15
REMARK    6  A    between atoms: C_19  and  O_20
REMARK                            x       y       z     vdW  Elec       q    Type
REMARK                         _______ _______ _______ _____ _____    ______ ____
ROOT
ATOM      1  C   UNL     1      44.829   5.374  11.495  0.00  0.00    +0.000 C 
ATOM      2  C   UNL     1      45.388   4.292  12.407  0.00  0.00    +0.000 C 
ATOM      3  C   UNL     1      44.087   4.931  12.753  0.00  0.00    +0.000 C 
ENDROOT
BRANCH   1   4
ATOM      4  C   UNL     1      45.414   6.781  11.562  0.00  0.00    +0.000 A 
ATOM      5  C   UNL     1      44.589   7.913  11.669  0.00  0.00    +0.000 A 
ATOM      6  C   UNL     1      45.127   9.179  11.890  0.00  0.00    +0.000 A 
ATOM      7  C   UNL     1      46.506   9.335  12.023  0.00  0.00    +0.000 A 
ATOM      8  C   UNL     1      47.374   8.236  11.905  0.00  0.00    +0.000 A 
ATOM      9  C   UNL     1      46.804   6.983  11.625  0.00  0.00    +0.000 A 
BRANCH   8  10
ATOM     10  C   UNL     1      48.815   8.356  12.183  0.00  0.00    +0.000 A 
ATOM     11  C   UNL     1      49.329   9.191  13.182  0.00  0.00    +0.000 A 
ATOM     12  N   UNL     1      50.651   9.403  13.417  0.00  0.00    +0.000 NA
ATOM     13  C   UNL     1      51.516   8.744  12.616  0.00  0.00    +0.000 A 
ATOM     14  C   UNL     1      51.119   7.883  11.608  0.00  0.00    +0.000 A 
ATOM     15  C   UNL     1      49.762   7.691  11.391  0.00  0.00    +0.000 A 
BRANCH  14  16
ATOM     16  O   UNL     1      51.995   7.224  10.799  0.00  0.00    +0.000 OA
ATOM     17  H   UNL     1      51.733   6.291  10.744  0.00  0.00    +0.000 HD
ENDBRANCH  14  16
ENDBRANCH   8  10
ENDBRANCH   1   4
BRANCH   1  18
ATOM     18  N   UNL     1      44.266   5.009  10.176  0.00  0.00    +0.000 N 
ATOM     19  H   UNL     1      43.297   4.711  10.197  0.00  0.00    +0.000 HD
BRANCH  18  23
ATOM     20  C   UNL     1      46.533   2.684   7.630  0.00  0.00    +0.000 A 
ATOM     21  C   UNL     1      45.668   2.094   8.535  0.00  0.00    +0.000 A 
ATOM     22  N   UNL     1      44.904   2.820   9.394  0.00  0.00    +0.000 NA
ATOM     23  C   UNL     1      45.009   4.166   9.316  0.00  0.00    +0.000 A 
ATOM     24  C   UNL     1      45.895   4.741   8.393  0.00  0.00    +0.000 A 
ATOM     25  N   UNL     1      46.674   4.034   7.530  0.00  0.00    +0.000 NA
BRANCH  20  27
ATOM     26  N   UNL     1      48.360   2.478   6.058  0.00  0.00    +0.000 N 
ATOM     27  C   UNL     1      47.360   1.833   6.735  0.00  0.00    +0.000 C 
ATOM     28  O   UNL     1      47.177   0.626   6.616  0.00  0.00    +0.000 OA
ATOM     29  H   UNL     1      48.982   1.948   5.462  0.00  0.00    +0.000 HD
ATOM     30  H   UNL     1      48.512   3.471   6.201  0.00  0.00    +0.000 HD
ENDBRANCH  20  27
ENDBRANCH  18  23
ENDBRANCH   1  18
TORSDOF 6
ENDMDL
MODEL 5
REMARK VINA RESULT:    -7.613      1.781      7.644
REMARK INTER + INTRA:         -10.575
REMARK INTER:                 -10.943
REMARK INTRA:                   0.368
REMARK UNBOUND:                -0.514
REMARK  Name = 
REMARK  6 active torsions:
REMARK  status: ('A' for Active; 'I' for Inactive)
REMARK    1  A    between atoms: C_2  and  C_4
REMARK    2  A    between atoms: C_7  and  N_8
REMARK    3  A    between atoms: N_8  and  C_9
REMARK    4  A    between atoms: C_9  and  C_10
REMARK    5  A    between atoms: C_14  and  C_15
REMARK    6  A    between atoms: C_19  and  O_20
REMARK                            x       y       z     vdW  Elec       q    Type
REMARK                         _______ _______ _______ _____ _____    ______ ____
ROOT
ATOM      1  C   UNL     1      46.350   7.283  12.282  0.00  0.00    +0.000 C 
ATOM      2  C   UNL     1      46.343   8.738  11.836  0.00  0.00    +0.000 C 
ATOM      3  C   UNL     1      45.719   8.377  13.140  0.00  0.00    +0.000 C 
ENDROOT
BRANCH   1   4
ATOM      4  C   UNL     1      45.356   6.308  11.660  0.00  0.00    +0.000 A 
ATOM      5  C   UNL     1      43.970   6.480  11.810  0.00  0.00    +0.000 A 
ATOM      6  C   UNL     1      43.065   5.684  11.111  0.00  0.00    +0.000 A 
ATOM      7  C   UNL     1      43.532   4.705  10.234  0.00  0.00    +0.000 A 
ATOM      8  C   UNL     1      44.908   4.483  10.065  0.00  0.00    +0.000 A 
ATOM      9  C   UNL     1      45.794   5.263  10.827  0.00  0.00    +0.000 A 
BRANCH   8  10
ATOM     10  C   UNL     1      45.422   3.555   9.042  0.00  0.00    +0.000 A 
ATOM     11  C   UNL     1      45.447   2.168   9.220  0.00  0.00    +0.000 A 
ATOM     12  N   UNL     1      45.991   1.279   8.347  0.00  0.00    +0.000 NA
ATOM     13  C   UNL     1      46.540   1.797   7.227  0.00  0.00    +0.000 A 
ATOM     14  C   UNL     1      46.559   3.152   6.942  0.00  0.00    +0.000 A 
ATOM     15  C   UNL     1      45.998   4.034   7.856  0.00  0.00    +0.000 A 
BRANCH  14  16
ATOM     16  O   UNL     1      47.118   3.672   5.815  0.00  0.00    +0.000 OA
ATOM     17  H   UNL     1      46.892   3.105   5.059  0.00  0.00    +0.000 HD
ENDBRANCH  14  16
ENDBRANCH   8  10
ENDBRANCH   1   4
BRANCH   1  18
ATOM     18  N   UNL     1      47.609   6.659  12.744  0.00  0.00    +0.000 N 
ATOM     19  H   UNL     1      48.127   6.166  12.024  0.00  0.00    +0.000 HD
BRANCH  18  23
ATOM     20  C   UNL     1      47.534   4.318  16.141  0.00  0.00    +0.000 A 
ATOM     21  C   UNL     1      48.324   5.453  16.090  0.00  0.00    +0.000 A 
ATOM     22  N   UNL     1      48.381   6.253  14.992  0.00  0.00    +0.000 NA
ATOM     23  C   UNL     1      47.608   5.900  13.939  0.00  0.00    +0.000 A 
ATOM     24  C   UNL     1      46.820   4.743  14.013  0.00  0.00    +0.000 A 
ATOM     25  N   UNL     1      46.753   3.925  15.098  0.00  0.00    +0.000 NA
BRANCH  20  27
ATOM     26  N   UNL     1      48.586   3.665  18.220  0.00  0.00    +0.000 N 
ATOM     27  C   UNL     1      47.535   3.471  17.363  0.00  0.00    +0.000 C 
ATOM     28  O   UNL     1      46.646   2.662  17.607  0.00  0.00    +0.000 OA
ATOM     29  H   UNL     1      48.624   3.147  19.087  0.00  0.00    +0.000 HD
ATOM     30  H   UNL     1      49.290   4.365  18.011  0.00  0.00    +0.000 HD
ENDBRANCH  20  27
ENDBRANCH  18  23
ENDBRANCH   1  18
TORSDOF 6
ENDMDL
MODEL 6
REMARK VINA RESULT:    -7.320      2.060      7.798
REMARK INTER + INTRA:         -10.188
REMARK INTER:                  -9.966
REMARK INTRA:                  -0.221
REMARK UNBOUND:                -0.514
REMARK  Name = 
REMARK  6 active torsions:
REMARK  status: ('A' for Active; 'I' for Inactive)
REMARK    1  A    between atoms: C_2  and  C_4
REMARK    2  A    between atoms: C_7  and  N_8
REMARK    3  A    between atoms: N_8  and  C_9
REMARK    4  A    between atoms: C_9  and  C_10
REMARK    5  A    between atoms: C_14  and  C_15
REMARK    6  A    between atoms: C_19  and  O_20
REMARK                            x       y       z     vdW  Elec       q    Type
REMARK                         _______ _______ _______ _____ _____    ______ ____
ROOT
ATOM      1  C   UNL     1      48.696   7.763  12.753  0.00  0.00    +0.000 C 
ATOM      2  C   UNL     1      49.765   7.227  11.813  0.00  0.00    +0.000 C 
ATOM      3  C   UNL     1      49.472   8.688  11.821  0.00  0.00    +0.000 C 
ENDROOT
BRANCH   1   4
ATOM      4  C   UNL     1      47.225   7.580  12.391  0.00  0.00    +0.000 A 
ATOM      5  C   UNL     1      46.284   8.598  12.614  0.00  0.00    +0.000 A 
ATOM      6  C   UNL     1      44.979   8.491  12.139  0.00  0.00    +0.000 A 
ATOM      7  C   UNL     1      44.593   7.363  11.415  0.00  0.00    +0.000 A 
ATOM      8  C   UNL     1      45.493   6.310  11.182  0.00  0.00    +0.000 A 
ATOM      9  C   UNL     1      46.784   6.423  11.725  0.00  0.00    +0.000 A 
BRANCH   8  10
ATOM     10  C   UNL     1      45.150   5.179  10.302  0.00  0.00    +0.000 A 
ATOM     11  C   UNL     1      44.315   4.131  10.706  0.00  0.00    +0.000 A 
ATOM     12  N   UNL     1      44.041   3.024   9.966  0.00  0.00    +0.000 NA
ATOM     13  C   UNL     1      44.627   2.954   8.751  0.00  0.00    +0.000 A 
ATOM     14  C   UNL     1      45.458   3.939   8.246  0.00  0.00    +0.000 A 
ATOM     15  C   UNL     1      45.721   5.055   9.027  0.00  0.00    +0.000 A 
BRANCH  14  16
ATOM     16  O   UNL     1      46.051   3.863   7.022  0.00  0.00    +0.000 OA
ATOM     17  H   UNL     1      46.888   3.379   7.107  0.00  0.00    +0.000 HD
ENDBRANCH  14  16
ENDBRANCH   8  10
ENDBRANCH   1   4
BRANCH   1  18
ATOM     18  N   UNL     1      48.961   7.837  14.207  0.00  0.00    +0.000 N 
ATOM     19  H   UNL     1      49.893   8.155  14.451  0.00  0.00    +0.000 HD
BRANCH  18  23
ATOM     20  C   UNL     1      47.898   4.772  16.756  0.00  0.00    +0.000 A 
ATOM     21  C   UNL     1      47.712   4.644  15.391  0.00  0.00    +0.000 A 
ATOM     22  N   UNL     1      48.046   5.628  14.514  0.00  0.00    +0.000 NA
ATOM     23  C   UNL     1      48.594   6.750  15.035  0.00  0.00    +0.000 A 
ATOM     24  C   UNL     1      48.769   6.857  16.422  0.00  0.00    +0.000 A 
ATOM     25  N   UNL     1      48.436   5.889  17.317  0.00  0.00    +0.000 NA
BRANCH  20  27
ATOM     26  N   UNL     1      48.302   3.456  18.745  0.00  0.00    +0.000 N 
ATOM     27  C   UNL     1      47.489   3.668  17.664  0.00  0.00    +0.000 C 
ATOM     28  O   UNL     1      46.480   2.997  17.476  0.00  0.00    +0.000 OA
ATOM     29  H   UNL     1      48.058   2.744  19.421  0.00  0.00    +0.000 HD
ATOM     30  H   UNL     1      49.112   4.048  18.897  0.00  0.00    +0.000 HD
ENDBRANCH  20  27
ENDBRANCH  18  23
ENDBRANCH   1  18
TORSDOF 6
ENDMDL
MODEL 7
REMARK VINA RESULT:    -6.905      2.158      7.728
REMARK INTER + INTRA:          -9.640
REMARK INTER:                  -8.950
REMARK INTRA:                  -0.690
REMARK UNBOUND:                -0.514
REMARK  Name = 
REMARK  6 active torsions:
REMARK  status: ('A' for Active; 'I' for Inactive)
REMARK    1  A    between atoms: C_2  and  C_4
REMARK    2  A    between atoms: C_7  and  N_8
REMARK    3  A    between atoms: N_8  and  C_9
REMARK    4  A    between atoms: C_9  and  C_10
REMARK    5  A    between atoms: C_14  and  C_15
REMARK    6  A    between atoms: C_19  and  O_20
REMARK                            x       y       z     vdW  Elec       q    Type
REMARK                         _______ _______ _______ _____ _____    ______ ____
ROOT
ATOM      1  C   UNL     1      48.437   7.764  13.434  0.00  0.00    +0.000 C 
ATOM      2  C   UNL     1      49.663   7.268  12.681  0.00  0.00    +0.000 C 
ATOM      3  C   UNL     1      49.374   8.730  12.712  0.00  0.00    +0.000 C 
ENDROOT
BRANCH   1   4
ATOM      4  C   UNL     1      47.060   7.615  12.796  0.00  0.00    +0.000 A 
ATOM      5  C   UNL     1      46.139   8.675  12.788  0.00  0.00    +0.000 A 
ATOM      6  C   UNL     1      44.948   8.590  12.068  0.00  0.00    +0.000 A 
ATOM      7  C   UNL     1      44.663   7.442  11.329  0.00  0.00    +0.000 A 
ATOM      8  C   UNL     1      45.544   6.349  11.321  0.00  0.00    +0.000 A 
ATOM      9  C   UNL     1      46.708   6.444  12.103  0.00  0.00    +0.000 A 
BRANCH   8  10
ATOM     10  C   UNL     1      45.331   5.189  10.438  0.00  0.00    +0.000 A 
ATOM     11  C   UNL     1      45.699   5.187   9.087  0.00  0.00    +0.000 A 
ATOM     12  N   UNL     1      45.443   4.180   8.212  0.00  0.00    +0.000 NA
ATOM     13  C   UNL     1      44.787   3.107   8.705  0.00  0.00    +0.000 A 
ATOM     14  C   UNL     1      44.389   2.997  10.026  0.00  0.00    +0.000 A 
ATOM     15  C   UNL     1      44.662   4.045  10.895  0.00  0.00    +0.000 A 
BRANCH  14  16
ATOM     16  O   UNL     1      43.723   1.917  10.519  0.00  0.00    +0.000 OA
ATOM     17  H   UNL     1      43.670   1.236   9.828  0.00  0.00    +0.000 HD
ENDBRANCH  14  16
ENDBRANCH   8  10
ENDBRANCH   1   4
BRANCH   1  18
ATOM     18  N   UNL     1      48.429   7.759  14.913  0.00  0.00    +0.000 N 
ATOM     19  H   UNL     1      49.011   8.471  15.343  0.00  0.00    +0.000 HD
BRANCH  18  23
ATOM     20  C   UNL     1      49.008   4.255  17.013  0.00  0.00    +0.000 A 
ATOM     21  C   UNL     1      47.843   4.457  16.294  0.00  0.00    +0.000 A 
ATOM     22  N   UNL     1      47.609   5.595  15.589  0.00  0.00    +0.000 NA
ATOM     23  C   UNL     1      48.583   6.533  15.603  0.00  0.00    +0.000 A 
ATOM     24  C   UNL     1      49.754   6.308  16.342  0.00  0.00    +0.000 A 
ATOM     25  N   UNL     1      50.006   5.180  17.059  0.00  0.00    +0.000 NA
BRANCH  20  27
ATOM     26  N   UNL     1      48.431   2.874  18.914  0.00  0.00    +0.000 N 
ATOM     27  C   UNL     1      49.194   2.996  17.783  0.00  0.00    +0.000 C 
ATOM     28  O   UNL     1      49.964   2.111  17.426  0.00  0.00    +0.000 OA
ATOM     29  H   UNL     1      48.483   2.026  19.461  0.00  0.00    +0.000 HD
ATOM     30  H   UNL     1      47.777   3.607  19.168  0.00  0.00    +0.000 HD
ENDBRANCH  20  27
ENDBRANCH  18  23
ENDBRANCH   1  18
TORSDOF 6
ENDMDL
MODEL 8
REMARK VINA RESULT:    -6.858      2.723      4.381
REMARK INTER + INTRA:          -9.577
REMARK INTER:                  -9.378
REMARK INTRA:                  -0.200
REMARK UNBOUND:                -0.514
REMARK  Name = 
REMARK  6 active torsions:
REMARK  status: ('A' for Active; 'I' for Inactive)
REMARK    1  A    between atoms: C_2  and  C_4
REMARK    2  A    between atoms: C_7  and  N_8
REMARK    3  A    between atoms: N_8  and  C_9
REMARK    4  A    between atoms: C_9  and  C_10
REMARK    5  A    between atoms: C_14  and  C_15
REMARK    6  A    between atoms: C_19  and  O_20
REMARK                            x       y       z     vdW  Elec       q    Type
REMARK                         _______ _______ _______ _____ _____    ______ ____
ROOT
ATOM      1  C   UNL     1      47.406   8.257  13.094  0.00  0.00    +0.000 C 
ATOM      2  C   UNL     1      47.822   9.294  12.061  0.00  0.00    +0.000 C 
ATOM      3  C   UNL     1      48.139   7.859  11.816  0.00  0.00    +0.000 C 
ENDROOT
BRANCH   1   4
ATOM      4  C   UNL     1      48.224   8.108  14.372  0.00  0.00    +0.000 A 
ATOM      5  C   UNL     1      48.746   9.227  15.042  0.00  0.00    +0.000 A 
ATOM      6  C   UNL     1      49.354   9.102  16.289  0.00  0.00    +0.000 A 
ATOM      7  C   UNL     1      49.440   7.850  16.898  0.00  0.00    +0.000 A 
ATOM      8  C   UNL     1      48.950   6.699  16.260  0.00  0.00    +0.000 A 
ATOM      9  C   UNL     1      48.394   6.851  14.978  0.00  0.00    +0.000 A 
BRANCH   8  10
ATOM     10  C   UNL     1      48.902   5.395  16.944  0.00  0.00    +0.000 A 
ATOM     11  C   UNL     1      50.044   4.760  17.447  0.00  0.00    +0.000 A 
ATOM     12  N   UNL     1      50.064   3.521  18.004  0.00  0.00    +0.000 NA
ATOM     13  C   UNL     1      48.881   2.873  18.072  0.00  0.00    +0.000 A 
ATOM     14  C   UNL     1      47.689   3.412  17.619  0.00  0.00    +0.000 A 
ATOM     15  C   UNL     1      47.702   4.678  17.051  0.00  0.00    +0.000 A 
BRANCH  14  16
ATOM     16  O   UNL     1      46.499   2.754  17.683  0.00  0.00    +0.000 OA
ATOM     17  H   UNL     1      46.667   1.797  17.702  0.00  0.00    +0.000 HD
ENDBRANCH  14  16
ENDBRANCH   8  10
ENDBRANCH   1   4
BRANCH   1  18
ATOM     18  N   UNL     1      45.980   7.889  13.235  0.00  0.00    +0.000 N 
ATOM     19  H   UNL     1      45.615   7.964  14.179  0.00  0.00    +0.000 HD
BRANCH  18  23
ATOM     20  C   UNL     1      44.625   4.338  11.628  0.00  0.00    +0.000 A 
ATOM     21  C   UNL     1      44.427   5.532  10.957  0.00  0.00    +0.000 A 
ATOM     22  N   UNL     1      44.855   6.725  11.449  0.00  0.00    +0.000 NA
ATOM     23  C   UNL     1      45.509   6.698  12.632  0.00  0.00    +0.000 A 
ATOM     24  C   UNL     1      45.694   5.476  13.295  0.00  0.00    +0.000 A 
ATOM     25  N   UNL     1      45.270   4.273  12.825  0.00  0.00    +0.000 NA
BRANCH  20  27
ATOM     26  N   UNL     1      44.926   2.465  10.126  0.00  0.00    +0.000 N 
ATOM     27  C   UNL     1      44.112   3.069  11.047  0.00  0.00    +0.000 C 
ATOM     28  O   UNL     1      43.038   2.578  11.378  0.00  0.00    +0.000 OA
ATOM     29  H   UNL     1      44.651   1.580   9.722  0.00  0.00    +0.000 HD
ATOM     30  H   UNL     1      45.825   2.875   9.896  0.00  0.00    +0.000 HD
ENDBRANCH  20  27
ENDBRANCH  18  23
ENDBRANCH   1  18
TORSDOF 6
ENDMDL
