MODEL 1
REMARK VINA RESULT:    -9.398      0.000      0.000
REMARK INTER + INTRA:         -11.654
REMARK INTER:                 -12.145
REMARK INTRA:                   0.491
REMARK UNBOUND:                 0.491
REMARK  Name = 
REMARK  7 active torsions:
REMARK  status: ('A' for Active; 'I' for Inactive)
REMARK    1  A    between atoms: C_1  and  C_2
REMARK    2  A    between atoms: N_7  and  C_8
REMARK    3  A    between atoms: C_8  and  C_9
REMARK    4  A    between atoms: C_8  and  C_10
REMARK    5  A    between atoms: C_13  and  C_14
REMARK    6  A    between atoms: C_14  and  N_15
REMARK    7  A    between atoms: C_16  and  C_18
REMARK                            x       y       z     vdW  Elec       q    Type
REMARK                         _______ _______ _______ _____ _____    ______ ____
ROOT
ATOM      1  C   UNL     1      44.627   5.373  10.933  0.00  0.00    +0.000 A 
ATOM      2  C   UNL     1      45.881   5.751  10.447  0.00  0.00    +0.000 A 
ATOM      3  C   UNL     1      46.672   6.621  11.199  0.00  0.00    +0.000 A 
ATOM      4  C   UNL     1      46.204   7.102  12.422  0.00  0.00    +0.000 A 
ATOM      5  C   UNL     1      44.934   6.701  12.814  0.00  0.00    +0.000 A 
ATOM      6  N   UNL     1      44.154   5.843  12.117  0.00  0.00    +0.000 NA
ENDROOT
BRANCH   1   7
ATOM      7  C   UNL     1      43.744   4.374  10.180  0.00  0.00    +0.000 C 
ATOM      8  C   UNL     1      43.897   2.976  10.791  0.00  0.00    +0.000 C 
BRANCH   7  15
ATOM      9  C   UNL     1      47.374   3.271   5.549  0.00  0.00    +0.000 C 
ATOM     10  C   UNL     1      46.589   2.853   6.754  0.00  0.00    +0.000 A 
ATOM     11  C   UNL     1      46.735   1.596   7.294  0.00  0.00    +0.000 A 
ATOM     12  C   UNL     1      45.953   1.328   8.394  0.00  0.00    +0.000 A 
ATOM     13  N   UNL     1      45.088   2.210   8.927  0.00  0.00    +0.000 NA
ATOM     14  C   UNL     1      44.996   3.404   8.328  0.00  0.00    +0.000 A 
ATOM     15  N   UNL     1      44.091   4.356   8.762  0.00  0.00    +0.000 N 
ATOM     16  N   UNL     1      45.727   3.762   7.262  0.00  0.00    +0.000 NA
ATOM     17  H   UNL     1      44.358   5.237   8.348  0.00  0.00    +0.000 HD
ENDBRANCH   7  15
ENDBRANCH   1   7
BRANCH   4  18
ATOM     18  C   UNL     1      47.005   8.050  13.264  0.00  0.00    +0.000 C 
BRANCH  18  19
ATOM     19  N   UNL     1      47.450   7.419  14.479  0.00  0.00    +0.000 N 
ATOM     20  C   UNL     1      48.698   6.858  14.575  0.00  0.00    +0.000 C 
ATOM     21  O   UNL     1      49.509   6.920  13.655  0.00  0.00    +0.000 OA
ATOM     22  H   UNL     1      46.738   7.161  15.156  0.00  0.00    +0.000 HD
BRANCH  20  23
ATOM     23  C   UNL     1      49.040   6.233  15.859  0.00  0.00    +0.000 A 
ATOM     24  C   UNL     1      50.091   6.739  16.613  0.00  0.00    +0.000 A 
ATOM     25  S   UNL     1      50.318   5.933  18.099  0.00  0.00    +0.000 S 
ATOM     26  C   UNL     1      49.054   4.845  17.765  0.00  0.00    +0.000 A 
ATOM     27  N   UNL     1      48.731   3.857  18.642  0.00  0.00    +0.000 NA
ATOM     28  C   UNL     1      47.772   3.087  18.248  0.00  0.00    +0.000 A 
ATOM     29  N   UNL     1      47.101   3.219  17.061  0.00  0.00    +0.000 N 
ATOM     30  C   UNL     1      47.376   4.216  16.155  0.00  0.00    +0.000 A 
ATOM     31  O   UNL     1      46.739   4.330  15.114  0.00  0.00    +0.000 OA
ATOM     32  C   UNL     1      48.454   5.104  16.545  0.00  0.00    +0.000 A 
ATOM     33  H   UNL     1      46.353   2.587  16.813  0.00  0.00    +0.000 HD
ENDBRANCH  20  23
ENDBRANCH  18  19
ENDBRANCH   4  18
TORSDOF 5
ENDMDL
MODEL 2
REMARK VINA RESULT:    -9.148      1.605      1.889
REMARK INTER + INTRA:         -11.331
REMARK INTER:                 -11.487
REMARK INTRA:                   0.156
REMARK UNBOUND:                 0.491
REMARK  Name = 
REMARK  7 active torsions:
REMARK  status: ('A' for Active; 'I' for Inactive)
REMARK    1  A    between atoms: C_1  and  C_2
REMARK    2  A    between atoms: N_7  and  C_8
REMARK    3  A    between atoms: C_8  and  C_9
REMARK    4  A    between atoms: C_8  and  C_10
REMARK    5  A    between atoms: C_13  and  C_14
REMARK    6  A    between atoms: C_14  and  N_15
REMARK    7  A    between atoms: C_16  and  C_18
REMARK                            x       y       z     vdW  Elec       q    Type
REMARK                         _______ _______ _______ _____ _____    ______ ____
ROOT
ATOM      1  C   UNL     1      44.955   5.115  11.402  0.00  0.00    +0.000 A 
ATOM      2  C   UNL     1      45.475   4.427  12.502  0.00  0.00    +0.000 A 
ATOM      3  C   UNL     1      46.581   4.950  13.174  0.00  0.00    +0.000 A 
ATOM      4  C   UNL     1      47.153   6.148  12.743  0.00  0.00    +0.000 A 
ATOM      5  C   UNL     1      46.592   6.749  11.624  0.00  0.00    +0.000 A 
ATOM      6  N   UNL     1      45.508   6.276  10.966  0.00  0.00    +0.000 NA
ENDROOT
BRANCH   1   7
ATOM      7  C   UNL     1      43.707   4.620  10.666  0.00  0.00    +0.000 C 
ATOM      8  C   UNL     1      43.314   3.229  11.178  0.00  0.00    +0.000 C 
BRANCH   7  15
ATOM      9  C   UNL     1      46.963   3.443   5.781  0.00  0.00    +0.000 C 
ATOM     10  C   UNL     1      46.266   3.043   7.046  0.00  0.00    +0.000 A 
ATOM     11  C   UNL     1      46.440   1.788   7.583  0.00  0.00    +0.000 A 
ATOM     12  C   UNL     1      45.740   1.537   8.741  0.00  0.00    +0.000 A 
ATOM     13  N   UNL     1      44.929   2.432   9.331  0.00  0.00    +0.000 NA
ATOM     14  C   UNL     1      44.804   3.623   8.731  0.00  0.00    +0.000 A 
ATOM     15  N   UNL     1      43.945   4.588   9.226  0.00  0.00    +0.000 N 
ATOM     16  N   UNL     1      45.456   3.965   7.611  0.00  0.00    +0.000 NA
ATOM     17  H   UNL     1      44.190   5.463   8.786  0.00  0.00    +0.000 HD
ENDBRANCH   7  15
ENDBRANCH   1   7
BRANCH   4  18
ATOM     18  C   UNL     1      48.349   6.748  13.419  0.00  0.00    +0.000 C 
BRANCH  18  19
ATOM     19  N   UNL     1      48.153   6.840  14.842  0.00  0.00    +0.000 N 
ATOM     20  C   UNL     1      49.212   6.789  15.713  0.00  0.00    +0.000 C 
ATOM     21  O   UNL     1      50.373   6.721  15.318  0.00  0.00    +0.000 OA
ATOM     22  H   UNL     1      47.215   6.672  15.193  0.00  0.00    +0.000 HD
BRANCH  20  23
ATOM     23  C   UNL     1      48.891   6.882  17.143  0.00  0.00    +0.000 A 
ATOM     24  C   UNL     1      48.509   8.103  17.684  0.00  0.00    +0.000 A 
ATOM     25  S   UNL     1      48.120   8.025  19.342  0.00  0.00    +0.000 S 
ATOM     26  C   UNL     1      48.498   6.368  19.409  0.00  0.00    +0.000 A 
ATOM     27  N   UNL     1      48.399   5.674  20.575  0.00  0.00    +0.000 NA
ATOM     28  C   UNL     1      48.745   4.432  20.487  0.00  0.00    +0.000 A 
ATOM     29  N   UNL     1      49.174   3.820  19.339  0.00  0.00    +0.000 N 
ATOM     30  C   UNL     1      49.266   4.474  18.134  0.00  0.00    +0.000 A 
ATOM     31  O   UNL     1      49.623   3.893  17.115  0.00  0.00    +0.000 OA
ATOM     32  C   UNL     1      48.898   5.876  18.179  0.00  0.00    +0.000 A 
ATOM     33  H   UNL     1      49.423   2.841  19.335  0.00  0.00    +0.000 HD
ENDBRANCH  20  23
ENDBRANCH  18  19
ENDBRANCH   4  18
TORSDOF 5
ENDMDL
MODEL 3
REMARK VINA RESULT:    -8.780      2.099      2.484
REMARK INTER + INTRA:         -10.855
REMARK INTER:                 -11.102
REMARK INTRA:                   0.246
REMARK UNBOUND:                 0.491
REMARK  Name = 
REMARK  7 active torsions:
REMARK  status: ('A' for Active; 'I' for Inactive)
REMARK    1  A    between atoms: C_1  and  C_2
REMARK    2  A    between atoms: N_7  and  C_8
REMARK    3  A    between atoms: C_8  and  C_9
REMARK    4  A    between atoms: C_8  and  C_10
REMARK    5  A    between atoms: C_13  and  C_14
REMARK    6  A    between atoms: C_14  and  N_15
REMARK    7  A    between atoms: C_16  and  C_18
REMARK                            x       y       z     vdW  Elec       q    Type
REMARK                         _______ _______ _______ _____ _____    ______ ____
ROOT
ATOM      1  C   UNL     1      44.784   5.217  11.488  0.00  0.00    +0.000 A 
ATOM      2  C   UNL     1      45.304   6.472  11.160  0.00  0.00    +0.000 A 
ATOM      3  C   UNL     1      46.420   6.951  11.849  0.00  0.00    +0.000 A 
ATOM      4  C   UNL     1      47.001   6.176  12.853  0.00  0.00    +0.000 A 
ATOM      5  C   UNL     1      46.402   4.956  13.135  0.00  0.00    +0.000 A 
ATOM      6  N   UNL     1      45.334   4.457  12.471  0.00  0.00    +0.000 NA
ENDROOT
BRANCH   1   7
ATOM      7  C   UNL     1      43.601   4.616  10.724  0.00  0.00    +0.000 C 
ATOM      8  C   UNL     1      43.324   3.193  11.224  0.00  0.00    +0.000 C 
BRANCH   7  15
ATOM      9  C   UNL     1      46.963   3.541   5.889  0.00  0.00    +0.000 C 
ATOM     10  C   UNL     1      46.240   3.115   7.130  0.00  0.00    +0.000 A 
ATOM     11  C   UNL     1      46.405   1.850   7.646  0.00  0.00    +0.000 A 
ATOM     12  C   UNL     1      45.681   1.575   8.783  0.00  0.00    +0.000 A 
ATOM     13  N   UNL     1      44.855   2.457   9.373  0.00  0.00    +0.000 NA
ATOM     14  C   UNL     1      44.741   3.659   8.795  0.00  0.00    +0.000 A 
ATOM     15  N   UNL     1      43.870   4.613   9.290  0.00  0.00    +0.000 N 
ATOM     16  N   UNL     1      45.416   4.024   7.695  0.00  0.00    +0.000 NA
ATOM     17  H   UNL     1      44.122   5.496   8.872  0.00  0.00    +0.000 HD
ENDBRANCH   7  15
ENDBRANCH   1   7
BRANCH   4  18
ATOM     18  C   UNL     1      48.192   6.647  13.634  0.00  0.00    +0.000 C 
BRANCH  18  19
ATOM     19  N   UNL     1      48.043   6.359  15.036  0.00  0.00    +0.000 N 
ATOM     20  C   UNL     1      49.121   6.367  15.884  0.00  0.00    +0.000 C 
ATOM     21  O   UNL     1      50.246   6.675  15.499  0.00  0.00    +0.000 OA
ATOM     22  H   UNL     1      47.188   5.892  15.326  0.00  0.00    +0.000 HD
BRANCH  20  23
ATOM     23  C   UNL     1      48.852   6.048  17.292  0.00  0.00    +0.000 A 
ATOM     24  C   UNL     1      49.061   4.756  17.756  0.00  0.00    +0.000 A 
ATOM     25  S   UNL     1      48.753   4.570  19.424  0.00  0.00    +0.000 S 
ATOM     26  C   UNL     1      48.278   6.196  19.573  0.00  0.00    +0.000 A 
ATOM     27  N   UNL     1      47.861   6.697  20.767  0.00  0.00    +0.000 NA
ATOM     28  C   UNL     1      47.503   7.937  20.730  0.00  0.00    +0.000 A 
ATOM     29  N   UNL     1      47.528   8.725  19.609  0.00  0.00    +0.000 N 
ATOM     30  C   UNL     1      47.964   8.270  18.388  0.00  0.00    +0.000 A 
ATOM     31  O   UNL     1      48.007   9.005  17.408  0.00  0.00    +0.000 OA
ATOM     32  C   UNL     1      48.370   6.877  18.372  0.00  0.00    +0.000 A 
ATOM     33  H   UNL     1      47.241   9.692  19.647  0.00  0.00    +0.000 HD
ENDBRANCH  20  23
ENDBRANCH  18  19
ENDBRANCH   4  18
TORSDOF 5
ENDMDL
MODEL 4
REMARK VINA RESULT:    -8.724      3.307      8.455
REMARK INTER + INTRA:         -10.783
REMARK INTER:                  -9.856
REMARK INTRA:                  -0.927
REMARK UNBOUND:                 0.491
REMARK  Name = 
REMARK  7 active torsions:
REMARK  status: ('A' for Active; 'I' for Inactive)
REMARK    1  A    between atoms: C_1  and  C_2
REMARK    2  A    between atoms: N_7  and  C_8
REMARK    3  A    between atoms: C_8  and  C_9
REMARK    4  A    between atoms: C_8  and  C_10
REMARK    5  A    between atoms: C_13  and  C_14
REMARK    6  A    between atoms: C_14  and  N_15
REMARK    7  A    between atoms: C_16  and  C_18
REMARK                            x       y       z     vdW  Elec       q    Type
REMARK                         _______ _______ _______ _____ _____    ______ ____
ROOT
ATOM      1  C   UNL     1      49.844   6.380  16.272  0.00  0.00    +0.000 A 
ATOM      2  C   UNL     1      50.579   7.323  15.549  0.00  0.00    +0.000 A 
ATOM      3  C   UNL     1      50.079   7.794  14.334  0.00  0.00    +0.000 A 
ATOM      4  C   UNL     1      48.858   7.319  13.856  0.00  0.00    +0.000 A 
ATOM      5  C   UNL     1      48.209   6.360  14.622  0.00  0.00    +0.000 A 
ATOM      6  N   UNL     1      48.659   5.901  15.812  0.00  0.00    +0.000 NA
ENDROOT
BRANCH   1   7
ATOM      7  C   UNL     1      50.314   5.875  17.639  0.00  0.00    +0.000 C 
ATOM      8  C   UNL     1      50.411   7.046  18.624  0.00  0.00    +0.000 C 
BRANCH   7  15
ATOM      9  C   UNL     1      54.118   1.346  18.567  0.00  0.00    +0.000 C 
ATOM     10  C   UNL     1      52.840   1.926  18.043  0.00  0.00    +0.000 A 
ATOM     11  C   UNL     1      51.833   1.112  17.577  0.00  0.00    +0.000 A 
ATOM     12  C   UNL     1      50.713   1.763  17.113  0.00  0.00    +0.000 A 
ATOM     13  N   UNL     1      50.581   3.101  17.096  0.00  0.00    +0.000 NA
ATOM     14  C   UNL     1      51.617   3.817  17.552  0.00  0.00    +0.000 A 
ATOM     15  N   UNL     1      51.602   5.200  17.517  0.00  0.00    +0.000 N 
ATOM     16  N   UNL     1      52.742   3.273  18.037  0.00  0.00    +0.000 NA
ATOM     17  H   UNL     1      52.344   5.524  18.119  0.00  0.00    +0.000 HD
ENDBRANCH   7  15
ENDBRANCH   1   7
BRANCH   4  18
ATOM     18  C   UNL     1      48.280   7.779  12.550  0.00  0.00    +0.000 C 
BRANCH  18  19
ATOM     19  N   UNL     1      47.571   6.715  11.890  0.00  0.00    +0.000 N 
ATOM     20  C   UNL     1      46.258   6.857  11.518  0.00  0.00    +0.000 C 
ATOM     21  O   UNL     1      45.649   7.912  11.680  0.00  0.00    +0.000 OA
ATOM     22  H   UNL     1      47.970   5.784  11.950  0.00  0.00    +0.000 HD
BRANCH  20  23
ATOM     23  C   UNL     1      45.633   5.702  10.861  0.00  0.00    +0.000 A 
ATOM     24  C   UNL     1      45.766   5.537   9.488  0.00  0.00    +0.000 A 
ATOM     25  S   UNL     1      45.029   4.119   8.895  0.00  0.00    +0.000 S 
ATOM     26  C   UNL     1      44.460   3.702  10.442  0.00  0.00    +0.000 A 
ATOM     27  N   UNL     1      43.715   2.580  10.636  0.00  0.00    +0.000 NA
ATOM     28  C   UNL     1      43.326   2.401  11.854  0.00  0.00    +0.000 A 
ATOM     29  N   UNL     1      43.618   3.238  12.899  0.00  0.00    +0.000 N 
ATOM     30  C   UNL     1      44.386   4.369  12.756  0.00  0.00    +0.000 A 
ATOM     31  O   UNL     1      44.659   5.083  13.714  0.00  0.00    +0.000 OA
ATOM     32  C   UNL     1      44.842   4.622  11.402  0.00  0.00    +0.000 A 
ATOM     33  H   UNL     1      43.289   3.038  13.832  0.00  0.00    +0.000 HD
ENDBRANCH  20  23
ENDBRANCH  18  19
ENDBRANCH   4  18
TORSDOF 5
ENDMDL
MODEL 5
REMARK VINA RESULT:    -8.240      3.358      8.865
REMARK INTER + INTRA:         -10.157
REMARK INTER:                  -9.204
REMARK INTRA:                  -0.953
REMARK UNBOUND:                 0.491
REMARK  Name = 
REMARK  7 active torsions:
REMARK  status: ('A' for Active; 'I' for Inactive)
REMARK    1  A    between atoms: C_1  and  C_2
REMARK    2  A    between atoms: N_7  and  C_8
REMARK    3  A    between atoms: C_8  and  C_9
REMARK    4  A    between atoms: C_8  and  C_10
REMARK    5  A    between atoms: C_13  and  C_14
REMARK    6  A    between atoms: C_14  and  N_15
REMARK    7  A    between atoms: C_16  and  C_18
REMARK                            x       y       z     vdW  Elec       q    Type
REMARK                         _______ _______ _______ _____ _____    ______ ____
ROOT
ATOM      1  C   UNL     1      49.514   5.947  16.636  0.00  0.00    +0.000 A 
ATOM      2  C   UNL     1      49.938   7.115  15.996  0.00  0.00    +0.000 A 
ATOM      3  C   UNL     1      49.292   7.528  14.830  0.00  0.00    +0.000 A 
ATOM      4  C   UNL     1      48.235   6.776  14.317  0.00  0.00    +0.000 A 
ATOM      5  C   UNL     1      47.899   5.613  14.999  0.00  0.00    +0.000 A 
ATOM      6  N   UNL     1      48.493   5.199  16.141  0.00  0.00    +0.000 NA
ENDROOT
BRANCH   1   7
ATOM      7  C   UNL     1      50.145   5.480  17.950  0.00  0.00    +0.000 C 
ATOM      8  C   UNL     1      50.134   6.623  18.971  0.00  0.00    +0.000 C 
BRANCH   7  15
ATOM      9  C   UNL     1      54.634   1.552  18.467  0.00  0.00    +0.000 C 
ATOM     10  C   UNL     1      53.251   1.946  18.047  0.00  0.00    +0.000 A 
ATOM     11  C   UNL     1      52.346   1.003  17.617  0.00  0.00    +0.000 A 
ATOM     12  C   UNL     1      51.112   1.489  17.250  0.00  0.00    +0.000 A 
ATOM     13  N   UNL     1      50.782   2.792  17.290  0.00  0.00    +0.000 NA
ATOM     14  C   UNL     1      51.729   3.644  17.704  0.00  0.00    +0.000 A 
ATOM     15  N   UNL     1      51.508   5.009  17.721  0.00  0.00    +0.000 N 
ATOM     16  N   UNL     1      52.954   3.263  18.096  0.00  0.00    +0.000 NA
ATOM     17  H   UNL     1      52.233   5.425  18.286  0.00  0.00    +0.000 HD
ENDBRANCH   7  15
ENDBRANCH   1   7
BRANCH   4  18
ATOM     18  C   UNL     1      47.514   7.166  13.061  0.00  0.00    +0.000 C 
BRANCH  18  19
ATOM     19  N   UNL     1      46.829   6.040  12.482  0.00  0.00    +0.000 N 
ATOM     20  C   UNL     1      45.460   6.010  12.391  0.00  0.00    +0.000 C 
ATOM     21  O   UNL     1      44.766   6.960  12.744  0.00  0.00    +0.000 OA
ATOM     22  H   UNL     1      47.350   5.173  12.396  0.00  0.00    +0.000 HD
BRANCH  20  23
ATOM     23  C   UNL     1      44.869   4.806  11.792  0.00  0.00    +0.000 A 
ATOM     24  C   UNL     1      44.112   3.948  12.579  0.00  0.00    +0.000 A 
ATOM     25  S   UNL     1      43.454   2.631  11.717  0.00  0.00    +0.000 S 
ATOM     26  C   UNL     1      44.202   3.131  10.274  0.00  0.00    +0.000 A 
ATOM     27  N   UNL     1      44.061   2.414   9.128  0.00  0.00    +0.000 NA
ATOM     28  C   UNL     1      44.706   2.892   8.116  0.00  0.00    +0.000 A 
ATOM     29  N   UNL     1      45.474   4.026   8.144  0.00  0.00    +0.000 N 
ATOM     30  C   UNL     1      45.626   4.796   9.272  0.00  0.00    +0.000 A 
ATOM     31  O   UNL     1      46.293   5.825   9.262  0.00  0.00    +0.000 OA
ATOM     32  C   UNL     1      44.929   4.297  10.442  0.00  0.00    +0.000 A 
ATOM     33  H   UNL     1      45.949   4.353   7.315  0.00  0.00    +0.000 HD
ENDBRANCH  20  23
ENDBRANCH  18  19
ENDBRANCH   4  18
TORSDOF 5
ENDMDL
MODEL 6
REMARK VINA RESULT:    -8.122      2.213      3.276
REMARK INTER + INTRA:         -10.005
REMARK INTER:                  -9.087
REMARK INTRA:                  -0.918
REMARK UNBOUND:                 0.491
REMARK  Name = 
REMARK  7 active torsions:
REMARK  status: ('A' for Active; 'I' for Inactive)
REMARK    1  A    between atoms: C_1  and  C_2
REMARK    2  A    between atoms: N_7  and  C_8
REMARK    3  A    between atoms: C_8  and  C_9
REMARK    4  A    between atoms: C_8  and  C_10
REMARK    5  A    between atoms: C_13  and  C_14
REMARK    6  A    between atoms: C_14  and  N_15
REMARK    7  A    between atoms: C_16  and  C_18
REMARK                            x       y       z     vdW  Elec       q    Type
REMARK                         _______ _______ _______ _____ _____    ______ ____
ROOT
ATOM      1  C   UNL     1      44.977   5.135  11.498  0.00  0.00    +0.000 A 
ATOM      2  C   UNL     1      44.851   6.473  11.117  0.00  0.00    +0.000 A 
ATOM      3  C   UNL     1      45.604   7.445  11.777  0.00  0.00    +0.000 A 
ATOM      4  C   UNL     1      46.470   7.072  12.806  0.00  0.00    +0.000 A 
ATOM      5  C   UNL     1      46.509   5.725  13.141  0.00  0.00    +0.000 A 
ATOM      6  N   UNL     1      45.807   4.759  12.505  0.00  0.00    +0.000 NA
ENDROOT
BRANCH   1   7
ATOM      7  C   UNL     1      44.222   4.020  10.768  0.00  0.00    +0.000 C 
ATOM      8  C   UNL     1      43.015   3.573  11.602  0.00  0.00    +0.000 C 
BRANCH   7  15
ATOM      9  C   UNL     1      46.779  -0.101   7.258  0.00  0.00    +0.000 C 
ATOM     10  C   UNL     1      46.466   1.313   7.642  0.00  0.00    +0.000 A 
ATOM     11  C   UNL     1      46.764   2.358   6.797  0.00  0.00    +0.000 A 
ATOM     12  C   UNL     1      46.438   3.610   7.266  0.00  0.00    +0.000 A 
ATOM     13  N   UNL     1      45.871   3.834   8.465  0.00  0.00    +0.000 NA
ATOM     14  C   UNL     1      45.631   2.761   9.230  0.00  0.00    +0.000 A 
ATOM     15  N   UNL     1      45.110   2.892  10.504  0.00  0.00    +0.000 N 
ATOM     16  N   UNL     1      45.900   1.502   8.854  0.00  0.00    +0.000 NA
ATOM     17  H   UNL     1      44.785   1.981  10.792  0.00  0.00    +0.000 HD
ENDBRANCH   7  15
ENDBRANCH   1   7
BRANCH   4  18
ATOM     18  C   UNL     1      47.292   8.075  13.559  0.00  0.00    +0.000 C 
BRANCH  18  19
ATOM     19  N   UNL     1      48.344   7.434  14.303  0.00  0.00    +0.000 N 
ATOM     20  C   UNL     1      48.740   7.907  15.529  0.00  0.00    +0.000 C 
ATOM     21  O   UNL     1      48.179   8.857  16.069  0.00  0.00    +0.000 OA
ATOM     22  H   UNL     1      48.958   6.807  13.793  0.00  0.00    +0.000 HD
BRANCH  20  23
ATOM     23  C   UNL     1      49.830   7.180  16.192  0.00  0.00    +0.000 A 
ATOM     24  C   UNL     1      49.567   6.447  17.342  0.00  0.00    +0.000 A 
ATOM     25  S   UNL     1      50.928   5.620  17.952  0.00  0.00    +0.000 S 
ATOM     26  C   UNL     1      51.929   6.255  16.733  0.00  0.00    +0.000 A 
ATOM     27  N   UNL     1      53.255   5.954  16.688  0.00  0.00    +0.000 NA
ATOM     28  C   UNL     1      53.900   6.527  15.727  0.00  0.00    +0.000 A 
ATOM     29  N   UNL     1      53.339   7.369  14.803  0.00  0.00    +0.000 N 
ATOM     30  C   UNL     1      52.001   7.683  14.794  0.00  0.00    +0.000 A 
ATOM     31  O   UNL     1      51.520   8.414  13.936  0.00  0.00    +0.000 OA
ATOM     32  C   UNL     1      51.231   7.071  15.861  0.00  0.00    +0.000 A 
ATOM     33  H   UNL     1      53.898   7.781  14.069  0.00  0.00    +0.000 HD
ENDBRANCH  20  23
ENDBRANCH  18  19
ENDBRANCH   4  18
TORSDOF 5
ENDMDL
MODEL 7
REMARK VINA RESULT:    -7.897      1.728      2.332
REMARK INTER + INTRA:          -9.714
REMARK INTER:                  -8.774
REMARK INTRA:                  -0.940
REMARK UNBOUND:                 0.491
REMARK  Name = 
REMARK  7 active torsions:
REMARK  status: ('A' for Active; 'I' for Inactive)
REMARK    1  A    between atoms: C_1  and  C_2
REMARK    2  A    between atoms: N_7  and  C_8
REMARK    3  A    between atoms: C_8  and  C_9
REMARK    4  A    between atoms: C_8  and  C_10
REMARK    5  A    between atoms: C_13  and  C_14
REMARK    6  A    between atoms: C_14  and  N_15
REMARK    7  A    between atoms: C_16  and  C_18
REMARK                            x       y       z     vdW  Elec       q    Type
REMARK                         _______ _______ _______ _____ _____    ______ ____
ROOT
ATOM      1  C   UNL     1      45.024   6.452  11.803  0.00  0.00    +0.000 A 
ATOM      2  C   UNL     1      44.776   7.827  11.833  0.00  0.00    +0.000 A 
ATOM      3  C   UNL     1      45.604   8.654  12.593  0.00  0.00    +0.000 A 
ATOM      4  C   UNL     1      46.664   8.103  13.313  0.00  0.00    +0.000 A 
ATOM      5  C   UNL     1      46.820   6.725  13.252  0.00  0.00    +0.000 A 
ATOM      6  N   UNL     1      46.047   5.901  12.508  0.00  0.00    +0.000 NA
ENDROOT
BRANCH   1   7
ATOM      7  C   UNL     1      44.187   5.505  10.938  0.00  0.00    +0.000 C 
ATOM      8  C   UNL     1      42.792   5.334  11.551  0.00  0.00    +0.000 C 
BRANCH   7  15
ATOM      9  C   UNL     1      46.087   0.723   7.878  0.00  0.00    +0.000 C 
ATOM     10  C   UNL     1      46.034   2.195   8.150  0.00  0.00    +0.000 A 
ATOM     11  C   UNL     1      46.575   3.099   7.264  0.00  0.00    +0.000 A 
ATOM     12  C   UNL     1      46.473   4.421   7.630  0.00  0.00    +0.000 A 
ATOM     13  N   UNL     1      45.895   4.837   8.770  0.00  0.00    +0.000 NA
ATOM     14  C   UNL     1      45.409   3.890   9.583  0.00  0.00    +0.000 A 
ATOM     15  N   UNL     1      44.853   4.213  10.807  0.00  0.00    +0.000 N 
ATOM     16  N   UNL     1      45.450   2.579   9.306  0.00  0.00    +0.000 NA
ATOM     17  H   UNL     1      44.342   3.404  11.129  0.00  0.00    +0.000 HD
ENDBRANCH   7  15
ENDBRANCH   1   7
BRANCH   4  18
ATOM     18  C   UNL     1      47.577   8.943  14.157  0.00  0.00    +0.000 C 
BRANCH  18  19
ATOM     19  N   UNL     1      48.651   8.157  14.704  0.00  0.00    +0.000 N 
ATOM     20  C   UNL     1      48.919   8.157  16.050  0.00  0.00    +0.000 C 
ATOM     21  O   UNL     1      48.222   8.777  16.850  0.00  0.00    +0.000 OA
ATOM     22  H   UNL     1      49.361   7.827  14.058  0.00  0.00    +0.000 HD
BRANCH  20  23
ATOM     23  C   UNL     1      50.045   7.326  16.494  0.00  0.00    +0.000 A 
ATOM     24  C   UNL     1      51.324   7.867  16.535  0.00  0.00    +0.000 A 
ATOM     25  S   UNL     1      52.505   6.787  17.126  0.00  0.00    +0.000 S 
ATOM     26  C   UNL     1      51.359   5.542  17.297  0.00  0.00    +0.000 A 
ATOM     27  N   UNL     1      51.725   4.312  17.748  0.00  0.00    +0.000 NA
ATOM     28  C   UNL     1      50.760   3.455  17.802  0.00  0.00    +0.000 A 
ATOM     29  N   UNL     1      49.461   3.717  17.452  0.00  0.00    +0.000 N 
ATOM     30  C   UNL     1      49.041   4.950  17.015  0.00  0.00    +0.000 A 
ATOM     31  O   UNL     1      47.866   5.166  16.739  0.00  0.00    +0.000 OA
ATOM     32  C   UNL     1      50.090   5.949  16.927  0.00  0.00    +0.000 A 
ATOM     33  H   UNL     1      48.750   3.004  17.524  0.00  0.00    +0.000 HD
ENDBRANCH  20  23
ENDBRANCH  18  19
ENDBRANCH   4  18
TORSDOF 5
ENDMDL
MODEL 8
REMARK VINA RESULT:    -7.749      3.731      9.999
REMARK INTER + INTRA:          -9.522
REMARK INTER:                  -8.635
REMARK INTRA:                  -0.887
REMARK UNBOUND:                 0.491
REMARK  Name = 
REMARK  7 active torsions:
REMARK  status: ('A' for Active; 'I' for Inactive)
REMARK    1  A    between atoms: C_1  and  C_2
REMARK    2  A    between atoms: N_7  and  C_8
REMARK    3  A    between atoms: C_8  and  C_9
REMARK    4  A    between atoms: C_8  and  C_10
REMARK    5  A    between atoms: C_13  and  C_14
REMARK    6  A    between atoms: C_14  and  N_15
REMARK    7  A    between atoms: C_16  and  C_18
REMARK                            x       y       z     vdW  Elec       q    Type
REMARK                         _______ _______ _______ _____ _____    ______ ____
ROOT
ATOM      1  C   UNL     1      51.412   4.544  17.518  0.00  0.00    +0.000 A 
ATOM      2  C   UNL     1      51.027   3.210  17.677  0.00  0.00    +0.000 A 
ATOM      3  C   UNL     1      49.717   2.836  17.379  0.00  0.00    +0.000 A 
ATOM      4  C   UNL     1      48.808   3.793  16.927  0.00  0.00    +0.000 A 
ATOM      5  C   UNL     1      49.265   5.101  16.827  0.00  0.00    +0.000 A 
ATOM      6  N   UNL     1      50.534   5.488  17.090  0.00  0.00    +0.000 NA
ENDROOT
BRANCH   1   7
ATOM      7  C   UNL     1      52.852   4.998  17.771  0.00  0.00    +0.000 C 
ATOM      8  C   UNL     1      53.745   3.781  18.038  0.00  0.00    +0.000 C 
BRANCH   7  15
ATOM      9  C   UNL     1      55.085   9.653  20.803  0.00  0.00    +0.000 C 
ATOM     10  C   UNL     1      54.462   9.027  19.593  0.00  0.00    +0.000 A 
ATOM     11  C   UNL     1      54.363   9.721  18.409  0.00  0.00    +0.000 A 
ATOM     12  C   UNL     1      53.763   9.043  17.373  0.00  0.00    +0.000 A 
ATOM     13  N   UNL     1      53.290   7.788  17.477  0.00  0.00    +0.000 NA
ATOM     14  C   UNL     1      53.413   7.193  18.671  0.00  0.00    +0.000 A 
ATOM     15  N   UNL     1      52.902   5.928  18.896  0.00  0.00    +0.000 N 
ATOM     16  N   UNL     1      53.995   7.767  19.734  0.00  0.00    +0.000 NA
ATOM     17  H   UNL     1      53.313   5.585  19.751  0.00  0.00    +0.000 HD
ENDBRANCH   7  15
ENDBRANCH   1   7
BRANCH   4  18
ATOM     18  C   UNL     1      47.383   3.450  16.604  0.00  0.00    +0.000 C 
BRANCH  18  19
ATOM     19  N   UNL     1      46.806   4.413  15.704  0.00  0.00    +0.000 N 
ATOM     20  C   UNL     1      46.759   4.186  14.352  0.00  0.00    +0.000 C 
ATOM     21  O   UNL     1      47.152   3.132  13.858  0.00  0.00    +0.000 OA
ATOM     22  H   UNL     1      46.687   5.360  16.051  0.00  0.00    +0.000 HD
BRANCH  20  23
ATOM     23  C   UNL     1      46.157   5.243  13.529  0.00  0.00    +0.000 A 
ATOM     24  C   UNL     1      46.845   6.433  13.329  0.00  0.00    +0.000 A 
ATOM     25  S   UNL     1      46.031   7.529  12.306  0.00  0.00    +0.000 S 
ATOM     26  C   UNL     1      44.707   6.474  12.137  0.00  0.00    +0.000 A 
ATOM     27  N   UNL     1      43.626   6.822  11.390  0.00  0.00    +0.000 NA
ATOM     28  C   UNL     1      42.683   5.940  11.372  0.00  0.00    +0.000 A 
ATOM     29  N   UNL     1      42.725   4.738  12.029  0.00  0.00    +0.000 N 
ATOM     30  C   UNL     1      43.805   4.334  12.776  0.00  0.00    +0.000 A 
ATOM     31  O   UNL     1      43.830   3.239  13.328  0.00  0.00    +0.000 OA
ATOM     32  C   UNL     1      44.891   5.295  12.836  0.00  0.00    +0.000 A 
ATOM     33  H   UNL     1      41.956   4.086  11.970  0.00  0.00    +0.000 HD
ENDBRANCH  20  23
ENDBRANCH  18  19
ENDBRANCH   4  18
TORSDOF 5
ENDMDL
MODEL 9
REMARK VINA RESULT:    -7.621      5.031      7.753
REMARK INTER + INTRA:          -9.357
REMARK INTER:                  -8.410
REMARK INTRA:                  -0.947
REMARK UNBOUND:                 0.491
REMARK  Name = 
REMARK  7 active torsions:
REMARK  status: ('A' for Active; 'I' for Inactive)
REMARK    1  A    between atoms: C_1  and  C_2
REMARK    2  A    between atoms: N_7  and  C_8
REMARK    3  A    between atoms: C_8  and  C_9
REMARK    4  A    between atoms: C_8  and  C_10
REMARK    5  A    between atoms: C_13  and  C_14
REMARK    6  A    between atoms: C_14  and  N_15
REMARK    7  A    between atoms: C_16  and  C_18
REMARK                            x       y       z     vdW  Elec       q    Type
REMARK                         _______ _______ _______ _____ _____    ______ ____
ROOT
ATOM      1  C   UNL     1      50.396   8.757  11.764  0.00  0.00    +0.000 A 
ATOM      2  C   UNL     1      49.478   9.787  11.541  0.00  0.00    +0.000 A 
ATOM      3  C   UNL     1      48.136   9.589  11.868  0.00  0.00    +0.000 A 
ATOM      4  C   UNL     1      47.726   8.372  12.410  0.00  0.00    +0.000 A 
ATOM      5  C   UNL     1      48.697   7.392  12.570  0.00  0.00    +0.000 A 
ATOM      6  N   UNL     1      50.008   7.562  12.281  0.00  0.00    +0.000 NA
ENDROOT
BRANCH   1   7
ATOM      7  C   UNL     1      51.890   8.940  11.482  0.00  0.00    +0.000 C 
ATOM      8  C   UNL     1      52.388  10.240  12.125  0.00  0.00    +0.000 C 
BRANCH   7  15
ATOM      9  C   UNL     1      55.038   7.631   6.561  0.00  0.00    +0.000 C 
ATOM     10  C   UNL     1      54.287   7.254   7.801  0.00  0.00    +0.000 A 
ATOM     11  C   UNL     1      54.306   5.962   8.275  0.00  0.00    +0.000 A 
ATOM     12  C   UNL     1      53.570   5.738   9.415  0.00  0.00    +0.000 A 
ATOM     13  N   UNL     1      52.862   6.692  10.045  0.00  0.00    +0.000 NA
ATOM     14  C   UNL     1      52.884   7.918   9.506  0.00  0.00    +0.000 A 
ATOM     15  N   UNL     1      52.138   8.951  10.043  0.00  0.00    +0.000 N 
ATOM     16  N   UNL     1      53.583   8.235   8.407  0.00  0.00    +0.000 NA
ATOM     17  H   UNL     1      52.488   9.812   9.649  0.00  0.00    +0.000 HD
ENDBRANCH   7  15
ENDBRANCH   1   7
BRANCH   4  18
ATOM     18  C   UNL     1      46.295   8.100  12.767  0.00  0.00    +0.000 C 
BRANCH  18  19
ATOM     19  N   UNL     1      45.912   6.760  12.405  0.00  0.00    +0.000 N 
ATOM     20  C   UNL     1      44.779   6.516  11.673  0.00  0.00    +0.000 C 
ATOM     21  O   UNL     1      44.074   7.427  11.246  0.00  0.00    +0.000 OA
ATOM     22  H   UNL     1      46.340   5.999  12.924  0.00  0.00    +0.000 HD
BRANCH  20  23
ATOM     23  C   UNL     1      44.482   5.110  11.371  0.00  0.00    +0.000 A 
ATOM     24  C   UNL     1      43.747   4.353  12.275  0.00  0.00    +0.000 A 
ATOM     25  S   UNL     1      43.446   2.760  11.748  0.00  0.00    +0.000 S 
ATOM     26  C   UNL     1      44.331   3.007  10.317  0.00  0.00    +0.000 A 
ATOM     27  N   UNL     1      44.487   2.007   9.408  0.00  0.00    +0.000 NA
ATOM     28  C   UNL     1      45.205   2.325   8.383  0.00  0.00    +0.000 A 
ATOM     29  N   UNL     1      45.777   3.553   8.180  0.00  0.00    +0.000 N 
ATOM     30  C   UNL     1      45.626   4.600   9.057  0.00  0.00    +0.000 A 
ATOM     31  O   UNL     1      46.122   5.700   8.835  0.00  0.00    +0.000 OA
ATOM     32  C   UNL     1      44.834   4.293  10.233  0.00  0.00    +0.000 A 
ATOM     33  H   UNL     1      46.323   3.742   7.352  0.00  0.00    +0.000 HD
ENDBRANCH  20  23
ENDBRANCH  18  19
ENDBRANCH   4  18
TORSDOF 5
ENDMDL
