MODEL 1
REMARK VINA RESULT:    -8.903      0.000      0.000
REMARK INTER + INTRA:         -12.996
REMARK INTER:                 -12.026
REMARK INTRA:                  -0.970
REMARK UNBOUND:                -0.970
REMARK  Name = 
REMARK  6 active torsions:
REMARK  status: ('A' for Active; 'I' for Inactive)
REMARK    1  A    between atoms: C_2  and  C_22
REMARK    2  A    between atoms: N_3  and  C_4
REMARK    3  A    between atoms: C_4  and  C_5
REMARK    4  A    between atoms: C_8  and  C_9
REMARK    5  A    between atoms: C_9  and  C_10
REMARK    6  A    between atoms: C_13  and  C_14
REMARK                            x       y       z     vdW  Elec       q    Type
REMARK                         _______ _______ _______ _____ _____    ______ ____
ROOT
ATOM      1  C   UNL     1      46.396   7.418  12.851  0.00  0.00    +0.000 A 
ATOM      2  C   UNL     1      45.284   7.937  12.203  0.00  0.00    +0.000 A 
ATOM      3  C   UNL     1      44.483   7.081  11.455  0.00  0.00    +0.000 A 
ATOM      4  C   UNL     1      44.817   5.736  11.394  0.00  0.00    +0.000 A 
ATOM      5  N   UNL     1      45.898   5.257  12.048  0.00  0.00    +0.000 NA
ATOM      6  N   UNL     1      46.690   6.101  12.783  0.00  0.00    +0.000 NA
ENDROOT
BRANCH   1   7
ATOM      7  C   UNL     1      47.300   8.296  13.674  0.00  0.00    +0.000 C 
BRANCH   7  10
ATOM      8  O   UNL     1      49.806   7.071  13.983  0.00  0.00    +0.000 OA
ATOM      9  C   UNL     1      49.039   7.091  14.942  0.00  0.00    +0.000 C 
ATOM     10  N   UNL     1      47.781   7.629  14.861  0.00  0.00    +0.000 N 
ATOM     11  H   UNL     1      47.276   7.841  15.717  0.00  0.00    +0.000 HD
BRANCH   9  12
ATOM     12  C   UNL     1      49.406   6.501  16.231  0.00  0.00    +0.000 A 
ATOM     13  C   UNL     1      50.334   7.129  17.050  0.00  0.00    +0.000 A 
ATOM     14  S   UNL     1      50.605   6.310  18.523  0.00  0.00    +0.000 S 
ATOM     15  C   UNL     1      49.471   5.103  18.126  0.00  0.00    +0.000 A 
ATOM     16  N   UNL     1      49.182   4.094  18.990  0.00  0.00    +0.000 NA
ATOM     17  C   UNL     1      48.282   3.269  18.566  0.00  0.00    +0.000 A 
ATOM     18  N   UNL     1      47.658   3.353  17.347  0.00  0.00    +0.000 N 
ATOM     19  C   UNL     1      47.966   4.314  16.419  0.00  0.00    +0.000 A 
ATOM     20  O   UNL     1      47.485   4.286  15.292  0.00  0.00    +0.000 OA
ATOM     21  C   UNL     1      48.928   5.301  16.870  0.00  0.00    +0.000 A 
ATOM     22  H   UNL     1      46.991   2.654  17.055  0.00  0.00    +0.000 HD
ENDBRANCH   9  12
ENDBRANCH   7  10
ENDBRANCH   1   7
BRANCH   4  23
ATOM     23  C   UNL     1      43.994   4.747  10.611  0.00  0.00    +0.000 C 
BRANCH  23  24
ATOM     24  C   UNL     1      44.744   3.981   9.549  0.00  0.00    +0.000 A 
ATOM     25  C   UNL     1      44.793   2.586   9.554  0.00  0.00    +0.000 A 
ATOM     26  C   UNL     1      45.565   1.912   8.607  0.00  0.00    +0.000 A 
ATOM     27  C   UNL     1      46.278   2.645   7.657  0.00  0.00    +0.000 A 
ATOM     28  N   UNL     1      46.233   4.006   7.632  0.00  0.00    +0.000 NA
ATOM     29  C   UNL     1      45.482   4.637   8.568  0.00  0.00    +0.000 A 
BRANCH  27  30
ATOM     30  C   UNL     1      47.132   1.919   6.624  0.00  0.00    +0.000 C 
ATOM     31  F   UNL     1      46.970   2.407   5.356  0.00  0.00    +0.000 F 
ATOM     32  F   UNL     1      48.470   2.007   6.873  0.00  0.00    +0.000 F 
ATOM     33  F   UNL     1      46.851   0.588   6.531  0.00  0.00    +0.000 F 
ENDBRANCH  27  30
ENDBRANCH  23  24
ENDBRANCH   4  23
TORSDOF 6
ENDMDL
MODEL 2
REMARK VINA RESULT:    -8.346      2.503      3.145
REMARK INTER + INTRA:         -12.243
REMARK INTER:                 -11.253
REMARK INTRA:                  -0.989
REMARK UNBOUND:                -0.970
REMARK  Name = 
REMARK  6 active torsions:
REMARK  status: ('A' for Active; 'I' for Inactive)
REMARK    1  A    between atoms: C_2  and  C_22
REMARK    2  A    between atoms: N_3  and  C_4
REMARK    3  A    between atoms: C_4  and  C_5
REMARK    4  A    between atoms: C_8  and  C_9
REMARK    5  A    between atoms: C_9  and  C_10
REMARK    6  A    between atoms: C_13  and  C_14
REMARK                            x       y       z     vdW  Elec       q    Type
REMARK                         _______ _______ _______ _____ _____    ______ ____
ROOT
ATOM      1  C   UNL     1      46.943   4.764  14.310  0.00  0.00    +0.000 A 
ATOM      2  C   UNL     1      46.749   5.927  13.579  0.00  0.00    +0.000 A 
ATOM      3  C   UNL     1      45.928   5.887  12.457  0.00  0.00    +0.000 A 
ATOM      4  C   UNL     1      45.322   4.687  12.116  0.00  0.00    +0.000 A 
ATOM      5  N   UNL     1      45.517   3.573  12.856  0.00  0.00    +0.000 NA
ATOM      6  N   UNL     1      46.329   3.612  13.960  0.00  0.00    +0.000 NA
ENDROOT
BRANCH   1   7
ATOM      7  C   UNL     1      47.820   4.746  15.533  0.00  0.00    +0.000 C 
BRANCH   7  10
ATOM      8  O   UNL     1      50.094   6.379  15.738  0.00  0.00    +0.000 OA
ATOM      9  C   UNL     1      49.032   6.789  16.199  0.00  0.00    +0.000 C 
ATOM     10  N   UNL     1      47.887   6.036  16.180  0.00  0.00    +0.000 N 
ATOM     11  H   UNL     1      46.992   6.488  16.347  0.00  0.00    +0.000 HD
BRANCH   9  12
ATOM     12  C   UNL     1      48.929   8.102  16.839  0.00  0.00    +0.000 A 
ATOM     13  C   UNL     1      49.314   9.247  16.155  0.00  0.00    +0.000 A 
ATOM     14  S   UNL     1      49.088  10.682  17.051  0.00  0.00    +0.000 S 
ATOM     15  C   UNL     1      48.445   9.822  18.373  0.00  0.00    +0.000 A 
ATOM     16  N   UNL     1      48.003  10.466  19.486  0.00  0.00    +0.000 NA
ATOM     17  C   UNL     1      47.515   9.687  20.395  0.00  0.00    +0.000 A 
ATOM     18  N   UNL     1      47.447   8.321  20.298  0.00  0.00    +0.000 N 
ATOM     19  C   UNL     1      47.940   7.626  19.224  0.00  0.00    +0.000 A 
ATOM     20  O   UNL     1      47.980   6.402  19.223  0.00  0.00    +0.000 OA
ATOM     21  C   UNL     1      48.444   8.458  18.149  0.00  0.00    +0.000 A 
ATOM     22  H   UNL     1      47.090   7.763  21.059  0.00  0.00    +0.000 HD
ENDBRANCH   9  12
ENDBRANCH   7  10
ENDBRANCH   1   7
BRANCH   4  23
ATOM     23  C   UNL     1      44.414   4.567  10.919  0.00  0.00    +0.000 C 
BRANCH  23  24
ATOM     24  C   UNL     1      45.044   3.957   9.691  0.00  0.00    +0.000 A 
ATOM     25  C   UNL     1      45.078   2.574   9.499  0.00  0.00    +0.000 A 
ATOM     26  C   UNL     1      45.743   2.040   8.395  0.00  0.00    +0.000 A 
ATOM     27  C   UNL     1      46.362   2.900   7.487  0.00  0.00    +0.000 A 
ATOM     28  N   UNL     1      46.329   4.251   7.653  0.00  0.00    +0.000 NA
ATOM     29  C   UNL     1      45.684   4.745   8.739  0.00  0.00    +0.000 A 
BRANCH  27  30
ATOM     30  C   UNL     1      47.098   2.326   6.281  0.00  0.00    +0.000 C 
ATOM     31  F   UNL     1      46.941   0.973   6.150  0.00  0.00    +0.000 F 
ATOM     32  F   UNL     1      46.677   2.851   5.094  0.00  0.00    +0.000 F 
ATOM     33  F   UNL     1      48.446   2.526   6.326  0.00  0.00    +0.000 F 
ENDBRANCH  27  30
ENDBRANCH  23  24
ENDBRANCH   4  23
TORSDOF 6
ENDMDL
MODEL 3
REMARK VINA RESULT:    -8.305      2.230      3.812
REMARK INTER + INTRA:         -12.188
REMARK INTER:                 -11.017
REMARK INTRA:                  -1.171
REMARK UNBOUND:                -0.970
REMARK  Name = 
REMARK  6 active torsions:
REMARK  status: ('A' for Active; 'I' for Inactive)
REMARK    1  A    between atoms: C_2  and  C_22
REMARK    2  A    between atoms: N_3  and  C_4
REMARK    3  A    between atoms: C_4  and  C_5
REMARK    4  A    between atoms: C_8  and  C_9
REMARK    5  A    between atoms: C_9  and  C_10
REMARK    6  A    between atoms: C_13  and  C_14
REMARK                            x       y       z     vdW  Elec       q    Type
REMARK                         _______ _______ _______ _____ _____    ______ ____
ROOT
ATOM      1  C   UNL     1      46.630   4.903  14.124  0.00  0.00    +0.000 A 
ATOM      2  C   UNL     1      46.207   5.950  13.319  0.00  0.00    +0.000 A 
ATOM      3  C   UNL     1      45.400   5.670  12.221  0.00  0.00    +0.000 A 
ATOM      4  C   UNL     1      45.036   4.354  11.978  0.00  0.00    +0.000 A 
ATOM      5  N   UNL     1      45.452   3.356  12.789  0.00  0.00    +0.000 NA
ATOM      6  N   UNL     1      46.250   3.631  13.868  0.00  0.00    +0.000 NA
ENDROOT
BRANCH   1   7
ATOM      7  C   UNL     1      47.505   5.145  15.325  0.00  0.00    +0.000 C 
BRANCH   7  10
ATOM      8  O   UNL     1      50.059   5.665  16.367  0.00  0.00    +0.000 OA
ATOM      9  C   UNL     1      49.486   6.554  15.741  0.00  0.00    +0.000 C 
ATOM     10  N   UNL     1      48.221   6.396  15.240  0.00  0.00    +0.000 N 
ATOM     11  H   UNL     1      47.881   7.048  14.538  0.00  0.00    +0.000 HD
BRANCH   9  12
ATOM     12  C   UNL     1      50.107   7.863  15.526  0.00  0.00    +0.000 A 
ATOM     13  C   UNL     1      50.514   8.631  16.608  0.00  0.00    +0.000 A 
ATOM     14  S   UNL     1      51.247  10.105  16.156  0.00  0.00    +0.000 S 
ATOM     15  C   UNL     1      51.068   9.752  14.500  0.00  0.00    +0.000 A 
ATOM     16  N   UNL     1      51.532  10.600  13.544  0.00  0.00    +0.000 NA
ATOM     17  C   UNL     1      51.352  10.188  12.332  0.00  0.00    +0.000 A 
ATOM     18  N   UNL     1      50.732   9.012  11.991  0.00  0.00    +0.000 N 
ATOM     19  C   UNL     1      50.191   8.161  12.919  0.00  0.00    +0.000 A 
ATOM     20  O   UNL     1      49.533   7.185  12.579  0.00  0.00    +0.000 OA
ATOM     21  C   UNL     1      50.420   8.548  14.298  0.00  0.00    +0.000 A 
ATOM     22  H   UNL     1      50.585   8.764  11.024  0.00  0.00    +0.000 HD
ENDBRANCH   9  12
ENDBRANCH   7  10
ENDBRANCH   1   7
BRANCH   4  23
ATOM     23  C   UNL     1      44.159   3.974  10.814  0.00  0.00    +0.000 C 
BRANCH  23  24
ATOM     24  C   UNL     1      44.892   3.510   9.579  0.00  0.00    +0.000 A 
ATOM     25  C   UNL     1      45.165   2.158   9.358  0.00  0.00    +0.000 A 
ATOM     26  C   UNL     1      45.918   1.771   8.249  0.00  0.00    +0.000 A 
ATOM     27  C   UNL     1      46.386   2.745   7.366  0.00  0.00    +0.000 A 
ATOM     28  N   UNL     1      46.120   4.067   7.560  0.00  0.00    +0.000 NA
ATOM     29  C   UNL     1      45.393   4.417   8.650  0.00  0.00    +0.000 A 
BRANCH  27  30
ATOM     30  C   UNL     1      47.217   2.334   6.155  0.00  0.00    +0.000 C 
ATOM     31  F   UNL     1      48.548   2.621   6.295  0.00  0.00    +0.000 F 
ATOM     32  F   UNL     1      47.165   0.995   5.896  0.00  0.00    +0.000 F 
ATOM     33  F   UNL     1      46.837   2.958   5.003  0.00  0.00    +0.000 F 
ENDBRANCH  27  30
ENDBRANCH  23  24
ENDBRANCH   4  23
TORSDOF 6
ENDMDL
MODEL 4
REMARK VINA RESULT:    -7.611      3.121      4.464
REMARK INTER + INTRA:         -11.250
REMARK INTER:                 -10.029
REMARK INTRA:                  -1.221
REMARK UNBOUND:                -0.970
REMARK  Name = 
REMARK  6 active torsions:
REMARK  status: ('A' for Active; 'I' for Inactive)
REMARK    1  A    between atoms: C_2  and  C_22
REMARK    2  A    between atoms: N_3  and  C_4
REMARK    3  A    between atoms: C_4  and  C_5
REMARK    4  A    between atoms: C_8  and  C_9
REMARK    5  A    between atoms: C_9  and  C_10
REMARK    6  A    between atoms: C_13  and  C_14
REMARK                            x       y       z     vdW  Elec       q    Type
REMARK                         _______ _______ _______ _____ _____    ______ ____
ROOT
ATOM      1  C   UNL     1      47.201   6.171  13.765  0.00  0.00    +0.000 A 
ATOM      2  C   UNL     1      46.821   4.840  13.855  0.00  0.00    +0.000 A 
ATOM      3  C   UNL     1      45.911   4.336  12.931  0.00  0.00    +0.000 A 
ATOM      4  C   UNL     1      45.426   5.181  11.944  0.00  0.00    +0.000 A 
ATOM      5  N   UNL     1      45.825   6.470  11.872  0.00  0.00    +0.000 NA
ATOM      6  N   UNL     1      46.719   6.967  12.785  0.00  0.00    +0.000 NA
ENDROOT
BRANCH   1   7
ATOM      7  C   UNL     1      48.181   6.771  14.737  0.00  0.00    +0.000 C 
BRANCH   7  10
ATOM      8  O   UNL     1      49.388   9.304  14.804  0.00  0.00    +0.000 OA
ATOM      9  C   UNL     1      49.968   8.390  14.222  0.00  0.00    +0.000 C 
ATOM     10  N   UNL     1      49.427   7.138  14.105  0.00  0.00    +0.000 N 
ATOM     11  H   UNL     1      50.025   6.361  13.835  0.00  0.00    +0.000 HD
BRANCH   9  12
ATOM     12  C   UNL     1      51.267   8.595  13.576  0.00  0.00    +0.000 A 
ATOM     13  C   UNL     1      52.325   9.143  14.289  0.00  0.00    +0.000 A 
ATOM     14  S   UNL     1      53.763   9.270  13.378  0.00  0.00    +0.000 S 
ATOM     15  C   UNL     1      53.026   8.573  12.011  0.00  0.00    +0.000 A 
ATOM     16  N   UNL     1      53.728   8.350  10.867  0.00  0.00    +0.000 NA
ATOM     17  C   UNL     1      53.046   7.789   9.924  0.00  0.00    +0.000 A 
ATOM     18  N   UNL     1      51.720   7.447  10.015  0.00  0.00    +0.000 N 
ATOM     19  C   UNL     1      50.958   7.714  11.122  0.00  0.00    +0.000 A 
ATOM     20  O   UNL     1      49.750   7.513  11.126  0.00  0.00    +0.000 OA
ATOM     21  C   UNL     1      51.692   8.289  12.234  0.00  0.00    +0.000 A 
ATOM     22  H   UNL     1      51.231   7.047   9.228  0.00  0.00    +0.000 HD
ENDBRANCH   9  12
ENDBRANCH   7  10
ENDBRANCH   1   7
BRANCH   4  23
ATOM     23  C   UNL     1      44.444   4.707  10.904  0.00  0.00    +0.000 C 
BRANCH  23  24
ATOM     24  C   UNL     1      45.053   4.016   9.709  0.00  0.00    +0.000 A 
ATOM     25  C   UNL     1      45.074   2.624   9.604  0.00  0.00    +0.000 A 
ATOM     26  C   UNL     1      45.721   2.016   8.527  0.00  0.00    +0.000 A 
ATOM     27  C   UNL     1      46.335   2.812   7.559  0.00  0.00    +0.000 A 
ATOM     28  N   UNL     1      46.315   4.172   7.641  0.00  0.00    +0.000 NA
ATOM     29  C   UNL     1      45.687   4.737   8.702  0.00  0.00    +0.000 A 
BRANCH  27  30
ATOM     30  C   UNL     1      47.051   2.158   6.383  0.00  0.00    +0.000 C 
ATOM     31  F   UNL     1      46.605   2.602   5.168  0.00  0.00    +0.000 F 
ATOM     32  F   UNL     1      48.396   2.389   6.375  0.00  0.00    +0.000 F 
ATOM     33  F   UNL     1      46.900   0.803   6.345  0.00  0.00    +0.000 F 
ENDBRANCH  27  30
ENDBRANCH  23  24
ENDBRANCH   4  23
TORSDOF 6
ENDMDL
MODEL 5
REMARK VINA RESULT:    -7.587      2.324      3.480
REMARK INTER + INTRA:         -11.218
REMARK INTER:                 -10.660
REMARK INTRA:                  -0.558
REMARK UNBOUND:                -0.970
REMARK  Name = 
REMARK  6 active torsions:
REMARK  status: ('A' for Active; 'I' for Inactive)
REMARK    1  A    between atoms: C_2  and  C_22
REMARK    2  A    between atoms: N_3  and  C_4
REMARK    3  A    between atoms: C_4  and  C_5
REMARK    4  A    between atoms: C_8  and  C_9
REMARK    5  A    between atoms: C_9  and  C_10
REMARK    6  A    between atoms: C_13  and  C_14
REMARK                            x       y       z     vdW  Elec       q    Type
REMARK                         _______ _______ _______ _____ _____    ______ ____
ROOT
ATOM      1  C   UNL     1      46.786   4.852  14.241  0.00  0.00    +0.000 A 
ATOM      2  C   UNL     1      46.813   5.951  13.394  0.00  0.00    +0.000 A 
ATOM      3  C   UNL     1      46.040   5.927  12.238  0.00  0.00    +0.000 A 
ATOM      4  C   UNL     1      45.258   4.810  11.980  0.00  0.00    +0.000 A 
ATOM      5  N   UNL     1      45.240   3.761  12.832  0.00  0.00    +0.000 NA
ATOM      6  N   UNL     1      46.005   3.783  13.969  0.00  0.00    +0.000 NA
ENDROOT
BRANCH   1   7
ATOM      7  C   UNL     1      47.602   4.820  15.505  0.00  0.00    +0.000 C 
BRANCH   7  10
ATOM      8  O   UNL     1      49.995   5.399  16.853  0.00  0.00    +0.000 OA
ATOM      9  C   UNL     1      49.269   6.332  16.515  0.00  0.00    +0.000 C 
ATOM     10  N   UNL     1      48.065   6.133  15.893  0.00  0.00    +0.000 N 
ATOM     11  H   UNL     1      47.614   6.912  15.422  0.00  0.00    +0.000 HD
BRANCH   9  12
ATOM     12  C   UNL     1      49.630   7.724  16.792  0.00  0.00    +0.000 A 
ATOM     13  C   UNL     1      48.660   8.632  17.192  0.00  0.00    +0.000 A 
ATOM     14  S   UNL     1      49.278  10.193  17.502  0.00  0.00    +0.000 S 
ATOM     15  C   UNL     1      50.866   9.698  17.137  0.00  0.00    +0.000 A 
ATOM     16  N   UNL     1      51.915  10.558  17.243  0.00  0.00    +0.000 NA
ATOM     17  C   UNL     1      53.063  10.035  16.963  0.00  0.00    +0.000 A 
ATOM     18  N   UNL     1      53.254   8.735  16.567  0.00  0.00    +0.000 N 
ATOM     19  C   UNL     1      52.220   7.855  16.383  0.00  0.00    +0.000 A 
ATOM     20  O   UNL     1      52.410   6.742  15.908  0.00  0.00    +0.000 OA
ATOM     21  C   UNL     1      50.915   8.374  16.743  0.00  0.00    +0.000 A 
ATOM     22  H   UNL     1      54.173   8.396  16.323  0.00  0.00    +0.000 HD
ENDBRANCH   9  12
ENDBRANCH   7  10
ENDBRANCH   1   7
BRANCH   4  23
ATOM     23  C   UNL     1      44.389   4.715  10.753  0.00  0.00    +0.000 C 
BRANCH  23  24
ATOM     24  C   UNL     1      45.020   4.026   9.568  0.00  0.00    +0.000 A 
ATOM     25  C   UNL     1      45.038   2.634   9.458  0.00  0.00    +0.000 A 
ATOM     26  C   UNL     1      45.704   2.027   8.393  0.00  0.00    +0.000 A 
ATOM     27  C   UNL     1      46.341   2.824   7.441  0.00  0.00    +0.000 A 
ATOM     28  N   UNL     1      46.324   4.184   7.527  0.00  0.00    +0.000 NA
ATOM     29  C   UNL     1      45.677   4.748   8.577  0.00  0.00    +0.000 A 
BRANCH  27  30
ATOM     30  C   UNL     1      47.078   2.172   6.277  0.00  0.00    +0.000 C 
ATOM     31  F   UNL     1      46.634   2.595   5.054  0.00  0.00    +0.000 F 
ATOM     32  F   UNL     1      48.419   2.427   6.278  0.00  0.00    +0.000 F 
ATOM     33  F   UNL     1      46.952   0.814   6.251  0.00  0.00    +0.000 F 
ENDBRANCH  27  30
ENDBRANCH  23  24
ENDBRANCH   4  23
TORSDOF 6
ENDMDL
MODEL 6
REMARK VINA RESULT:    -7.569      5.069      8.854
REMARK INTER + INTRA:         -11.194
REMARK INTER:                 -10.168
REMARK INTRA:                  -1.026
REMARK UNBOUND:                -0.970
REMARK  Name = 
REMARK  6 active torsions:
REMARK  status: ('A' for Active; 'I' for Inactive)
REMARK    1  A    between atoms: C_2  and  C_22
REMARK    2  A    between atoms: N_3  and  C_4
REMARK    3  A    between atoms: C_4  and  C_5
REMARK    4  A    between atoms: C_8  and  C_9
REMARK    5  A    between atoms: C_9  and  C_10
REMARK    6  A    between atoms: C_13  and  C_14
REMARK                            x       y       z     vdW  Elec       q    Type
REMARK                         _______ _______ _______ _____ _____    ______ ____
ROOT
ATOM      1  C   UNL     1      48.535   6.572  14.682  0.00  0.00    +0.000 A 
ATOM      2  C   UNL     1      49.632   7.111  15.338  0.00  0.00    +0.000 A 
ATOM      3  C   UNL     1      50.092   6.494  16.496  0.00  0.00    +0.000 A 
ATOM      4  C   UNL     1      49.445   5.352  16.947  0.00  0.00    +0.000 A 
ATOM      5  N   UNL     1      48.388   4.842  16.278  0.00  0.00    +0.000 NA
ATOM      6  N   UNL     1      47.932   5.452  15.138  0.00  0.00    +0.000 NA
ENDROOT
BRANCH   1   7
ATOM      7  C   UNL     1      47.992   7.197  13.424  0.00  0.00    +0.000 C 
BRANCH   7  10
ATOM      8  O   UNL     1      46.021   7.864  11.541  0.00  0.00    +0.000 OA
ATOM      9  C   UNL     1      46.297   6.678  11.710  0.00  0.00    +0.000 C 
ATOM     10  N   UNL     1      47.214   6.266  12.640  0.00  0.00    +0.000 N 
ATOM     11  H   UNL     1      47.585   5.322  12.587  0.00  0.00    +0.000 HD
BRANCH   9  12
ATOM     12  C   UNL     1      45.628   5.620  10.950  0.00  0.00    +0.000 A 
ATOM     13  C   UNL     1      45.767   5.554   9.570  0.00  0.00    +0.000 A 
ATOM     14  S   UNL     1      44.945   4.233   8.867  0.00  0.00    +0.000 S 
ATOM     15  C   UNL     1      44.400   3.692  10.386  0.00  0.00    +0.000 A 
ATOM     16  N   UNL     1      43.659   2.557  10.507  0.00  0.00    +0.000 NA
ATOM     17  C   UNL     1      43.342   2.254  11.722  0.00  0.00    +0.000 A 
ATOM     18  N   UNL     1      43.683   2.993  12.826  0.00  0.00    +0.000 N 
ATOM     19  C   UNL     1      44.370   4.176  12.746  0.00  0.00    +0.000 A 
ATOM     20  O   UNL     1      44.548   4.877  13.735  0.00  0.00    +0.000 OA
ATOM     21  C   UNL     1      44.803   4.531  11.408  0.00  0.00    +0.000 A 
ATOM     22  H   UNL     1      43.370   2.725  13.748  0.00  0.00    +0.000 HD
ENDBRANCH   9  12
ENDBRANCH   7  10
ENDBRANCH   1   7
BRANCH   4  23
ATOM     23  C   UNL     1      49.889   4.625  18.189  0.00  0.00    +0.000 C 
BRANCH  23  24
ATOM     24  C   UNL     1      50.896   3.524  17.966  0.00  0.00    +0.000 A 
ATOM     25  C   UNL     1      50.524   2.296  17.414  0.00  0.00    +0.000 A 
ATOM     26  C   UNL     1      51.462   1.269  17.300  0.00  0.00    +0.000 A 
ATOM     27  C   UNL     1      52.771   1.487  17.733  0.00  0.00    +0.000 A 
ATOM     28  N   UNL     1      53.154   2.682  18.263  0.00  0.00    +0.000 NA
ATOM     29  C   UNL     1      52.221   3.660  18.371  0.00  0.00    +0.000 A 
BRANCH  27  30
ATOM     30  C   UNL     1      53.802   0.370  17.620  0.00  0.00    +0.000 C 
ATOM     31  F   UNL     1      55.075   0.782  17.909  0.00  0.00    +0.000 F 
ATOM     32  F   UNL     1      53.563  -0.671  18.470  0.00  0.00    +0.000 F 
ATOM     33  F   UNL     1      53.877  -0.171  16.371  0.00  0.00    +0.000 F 
ENDBRANCH  27  30
ENDBRANCH  23  24
ENDBRANCH   4  23
TORSDOF 6
ENDMDL
MODEL 7
REMARK VINA RESULT:    -7.563      2.041      2.848
REMARK INTER + INTRA:         -11.186
REMARK INTER:                 -10.551
REMARK INTRA:                  -0.635
REMARK UNBOUND:                -0.970
REMARK  Name = 
REMARK  6 active torsions:
REMARK  status: ('A' for Active; 'I' for Inactive)
REMARK    1  A    between atoms: C_2  and  C_22
REMARK    2  A    between atoms: N_3  and  C_4
REMARK    3  A    between atoms: C_4  and  C_5
REMARK    4  A    between atoms: C_8  and  C_9
REMARK    5  A    between atoms: C_9  and  C_10
REMARK    6  A    between atoms: C_13  and  C_14
REMARK                            x       y       z     vdW  Elec       q    Type
REMARK                         _______ _______ _______ _____ _____    ______ ____
ROOT
ATOM      1  C   UNL     1      46.922   6.726  13.279  0.00  0.00    +0.000 A 
ATOM      2  C   UNL     1      46.374   5.569  13.812  0.00  0.00    +0.000 A 
ATOM      3  C   UNL     1      45.501   4.817  13.032  0.00  0.00    +0.000 A 
ATOM      4  C   UNL     1      45.220   5.246  11.743  0.00  0.00    +0.000 A 
ATOM      5  N   UNL     1      45.780   6.371  11.246  0.00  0.00    +0.000 NA
ATOM      6  N   UNL     1      46.637   7.113  12.015  0.00  0.00    +0.000 NA
ENDROOT
BRANCH   1   7
ATOM      7  C   UNL     1      47.871   7.580  14.076  0.00  0.00    +0.000 C 
BRANCH   7  10
ATOM      8  O   UNL     1      48.598   7.971  16.759  0.00  0.00    +0.000 OA
ATOM      9  C   UNL     1      49.091   7.026  16.147  0.00  0.00    +0.000 C 
ATOM     10  N   UNL     1      48.823   6.792  14.824  0.00  0.00    +0.000 N 
ATOM     11  H   UNL     1      49.051   5.886  14.424  0.00  0.00    +0.000 HD
BRANCH   9  12
ATOM     12  C   UNL     1      50.033   6.106  16.787  0.00  0.00    +0.000 A 
ATOM     13  C   UNL     1      49.567   5.048  17.557  0.00  0.00    +0.000 A 
ATOM     14  S   UNL     1      50.813   4.068  18.189  0.00  0.00    +0.000 S 
ATOM     15  C   UNL     1      52.014   5.008  17.433  0.00  0.00    +0.000 A 
ATOM     16  N   UNL     1      53.331   4.685  17.535  0.00  0.00    +0.000 NA
ATOM     17  C   UNL     1      54.125   5.472  16.885  0.00  0.00    +0.000 A 
ATOM     18  N   UNL     1      53.721   6.563  16.158  0.00  0.00    +0.000 N 
ATOM     19  C   UNL     1      52.413   6.963  16.083  0.00  0.00    +0.000 A 
ATOM     20  O   UNL     1      52.099   8.012  15.533  0.00  0.00    +0.000 OA
ATOM     21  C   UNL     1      51.473   6.078  16.745  0.00  0.00    +0.000 A 
ATOM     22  H   UNL     1      54.394   7.163  15.705  0.00  0.00    +0.000 HD
ENDBRANCH   9  12
ENDBRANCH   7  10
ENDBRANCH   1   7
BRANCH   4  23
ATOM     23  C   UNL     1      44.290   4.482  10.837  0.00  0.00    +0.000 C 
BRANCH  23  24
ATOM     24  C   UNL     1      44.942   3.842   9.636  0.00  0.00    +0.000 A 
ATOM     25  C   UNL     1      45.085   2.456   9.536  0.00  0.00    +0.000 A 
ATOM     26  C   UNL     1      45.768   1.902   8.453  0.00  0.00    +0.000 A 
ATOM     27  C   UNL     1      46.297   2.744   7.474  0.00  0.00    +0.000 A 
ATOM     28  N   UNL     1      46.158   4.097   7.550  0.00  0.00    +0.000 NA
ATOM     29  C   UNL     1      45.497   4.610   8.617  0.00  0.00    +0.000 A 
BRANCH  27  30
ATOM     30  C   UNL     1      47.052   2.150   6.290  0.00  0.00    +0.000 C 
ATOM     31  F   UNL     1      46.942   0.788   6.212  0.00  0.00    +0.000 F 
ATOM     32  F   UNL     1      46.614   2.613   5.084  0.00  0.00    +0.000 F 
ATOM     33  F   UNL     1      48.393   2.398   6.326  0.00  0.00    +0.000 F 
ENDBRANCH  27  30
ENDBRANCH  23  24
ENDBRANCH   4  23
TORSDOF 6
ENDMDL
MODEL 8
REMARK VINA RESULT:    -7.367      1.665      1.956
REMARK INTER + INTRA:         -10.921
REMARK INTER:                  -9.872
REMARK INTRA:                  -1.048
REMARK UNBOUND:                -0.970
REMARK  Name = 
REMARK  6 active torsions:
REMARK  status: ('A' for Active; 'I' for Inactive)
REMARK    1  A    between atoms: C_2  and  C_22
REMARK    2  A    between atoms: N_3  and  C_4
REMARK    3  A    between atoms: C_4  and  C_5
REMARK    4  A    between atoms: C_8  and  C_9
REMARK    5  A    between atoms: C_9  and  C_10
REMARK    6  A    between atoms: C_13  and  C_14
REMARK                            x       y       z     vdW  Elec       q    Type
REMARK                         _______ _______ _______ _____ _____    ______ ____
ROOT
ATOM      1  C   UNL     1      47.254   7.586  13.604  0.00  0.00    +0.000 A 
ATOM      2  C   UNL     1      47.510   6.232  13.447  0.00  0.00    +0.000 A 
ATOM      3  C   UNL     1      46.604   5.455  12.734  0.00  0.00    +0.000 A 
ATOM      4  C   UNL     1      45.481   6.064  12.193  0.00  0.00    +0.000 A 
ATOM      5  N   UNL     1      45.265   7.389  12.350  0.00  0.00    +0.000 NA
ATOM      6  N   UNL     1      46.157   8.155  13.055  0.00  0.00    +0.000 NA
ENDROOT
BRANCH   1   7
ATOM      7  C   UNL     1      48.198   8.478  14.366  0.00  0.00    +0.000 C 
BRANCH   7  10
ATOM      8  O   UNL     1      48.563   7.910  17.090  0.00  0.00    +0.000 OA
ATOM      9  C   UNL     1      49.381   7.475  16.283  0.00  0.00    +0.000 C 
ATOM     10  N   UNL     1      49.301   7.744  14.942  0.00  0.00    +0.000 N 
ATOM     11  H   UNL     1      49.842   7.183  14.290  0.00  0.00    +0.000 HD
BRANCH   9  12
ATOM     12  C   UNL     1      50.526   6.669  16.712  0.00  0.00    +0.000 A 
ATOM     13  C   UNL     1      51.767   7.261  16.906  0.00  0.00    +0.000 A 
ATOM     14  S   UNL     1      52.966   6.168  17.438  0.00  0.00    +0.000 S 
ATOM     15  C   UNL     1      51.859   4.874  17.451  0.00  0.00    +0.000 A 
ATOM     16  N   UNL     1      52.233   3.631  17.857  0.00  0.00    +0.000 NA
ATOM     17  C   UNL     1      51.281   2.756  17.842  0.00  0.00    +0.000 A 
ATOM     18  N   UNL     1      49.995   3.009  17.440  0.00  0.00    +0.000 N 
ATOM     19  C   UNL     1      49.591   4.228  16.962  0.00  0.00    +0.000 A 
ATOM     20  O   UNL     1      48.471   4.388  16.492  0.00  0.00    +0.000 OA
ATOM     21  C   UNL     1      50.607   5.262  17.015  0.00  0.00    +0.000 A 
ATOM     22  H   UNL     1      49.305   2.273  17.413  0.00  0.00    +0.000 HD
ENDBRANCH   9  12
ENDBRANCH   7  10
ENDBRANCH   1   7
BRANCH   4  23
ATOM     23  C   UNL     1      44.459   5.290  11.403  0.00  0.00    +0.000 C 
BRANCH  23  24
ATOM     24  C   UNL     1      44.998   4.543  10.208  0.00  0.00    +0.000 A 
ATOM     25  C   UNL     1      44.870   3.157  10.096  0.00  0.00    +0.000 A 
ATOM     26  C   UNL     1      45.455   2.488   9.020  0.00  0.00    +0.000 A 
ATOM     27  C   UNL     1      46.157   3.217   8.059  0.00  0.00    +0.000 A 
ATOM     28  N   UNL     1      46.282   4.571   8.148  0.00  0.00    +0.000 NA
ATOM     29  C   UNL     1      45.712   5.196   9.208  0.00  0.00    +0.000 A 
BRANCH  27  30
ATOM     30  C   UNL     1      46.806   2.495   6.884  0.00  0.00    +0.000 C 
ATOM     31  F   UNL     1      48.163   2.667   6.831  0.00  0.00    +0.000 F 
ATOM     32  F   UNL     1      46.618   1.144   6.912  0.00  0.00    +0.000 F 
ATOM     33  F   UNL     1      46.346   2.917   5.671  0.00  0.00    +0.000 F 
ENDBRANCH  27  30
ENDBRANCH  23  24
ENDBRANCH   4  23
TORSDOF 6
ENDMDL
MODEL 9
REMARK VINA RESULT:    -7.110      2.075      3.492
REMARK INTER + INTRA:         -10.573
REMARK INTER:                  -9.674
REMARK INTRA:                  -0.899
REMARK UNBOUND:                -0.970
REMARK  Name = 
REMARK  6 active torsions:
REMARK  status: ('A' for Active; 'I' for Inactive)
REMARK    1  A    between atoms: C_2  and  C_22
REMARK    2  A    between atoms: N_3  and  C_4
REMARK    3  A    between atoms: C_4  and  C_5
REMARK    4  A    between atoms: C_8  and  C_9
REMARK    5  A    between atoms: C_9  and  C_10
REMARK    6  A    between atoms: C_13  and  C_14
REMARK                            x       y       z     vdW  Elec       q    Type
REMARK                         _______ _______ _______ _____ _____    ______ ____
ROOT
ATOM      1  C   UNL     1      46.823   4.782  14.235  0.00  0.00    +0.000 A 
ATOM      2  C   UNL     1      45.797   3.876  14.010  0.00  0.00    +0.000 A 
ATOM      3  C   UNL     1      45.052   3.982  12.839  0.00  0.00    +0.000 A 
ATOM      4  C   UNL     1      45.372   4.981  11.933  0.00  0.00    +0.000 A 
ATOM      5  N   UNL     1      46.388   5.840  12.172  0.00  0.00    +0.000 NA
ATOM      6  N   UNL     1      47.119   5.739  13.327  0.00  0.00    +0.000 NA
ENDROOT
BRANCH   1   7
ATOM      7  C   UNL     1      47.662   4.717  15.483  0.00  0.00    +0.000 C 
BRANCH   7  10
ATOM      8  O   UNL     1      49.830   5.463  17.102  0.00  0.00    +0.000 OA
ATOM      9  C   UNL     1      48.993   6.313  16.812  0.00  0.00    +0.000 C 
ATOM     10  N   UNL     1      47.882   6.021  16.065  0.00  0.00    +0.000 N 
ATOM     11  H   UNL     1      47.349   6.781  15.650  0.00  0.00    +0.000 HD
BRANCH   9  12
ATOM     12  C   UNL     1      49.107   7.695  17.284  0.00  0.00    +0.000 A 
ATOM     13  C   UNL     1      49.396   7.958  18.616  0.00  0.00    +0.000 A 
ATOM     14  S   UNL     1      49.524   9.624  18.967  0.00  0.00    +0.000 S 
ATOM     15  C   UNL     1      49.225  10.046  17.345  0.00  0.00    +0.000 A 
ATOM     16  N   UNL     1      49.235  11.344  16.940  0.00  0.00    +0.000 NA
ATOM     17  C   UNL     1      49.021  11.511  15.676  0.00  0.00    +0.000 A 
ATOM     18  N   UNL     1      48.780  10.497  14.785  0.00  0.00    +0.000 N 
ATOM     19  C   UNL     1      48.696   9.182  15.160  0.00  0.00    +0.000 A 
ATOM     20  O   UNL     1      48.354   8.315  14.365  0.00  0.00    +0.000 OA
ATOM     21  C   UNL     1      48.988   8.934  16.559  0.00  0.00    +0.000 A 
ATOM     22  H   UNL     1      48.580  10.694  13.815  0.00  0.00    +0.000 HD
ENDBRANCH   9  12
ENDBRANCH   7  10
ENDBRANCH   1   7
BRANCH   4  23
ATOM     23  C   UNL     1      44.616   5.154  10.641  0.00  0.00    +0.000 C 
BRANCH  23  24
ATOM     24  C   UNL     1      45.189   4.417   9.455  0.00  0.00    +0.000 A 
ATOM     25  C   UNL     1      44.955   3.054   9.262  0.00  0.00    +0.000 A 
ATOM     26  C   UNL     1      45.569   2.385   8.202  0.00  0.00    +0.000 A 
ATOM     27  C   UNL     1      46.408   3.093   7.339  0.00  0.00    +0.000 A 
ATOM     28  N   UNL     1      46.638   4.425   7.507  0.00  0.00    +0.000 NA
ATOM     29  C   UNL     1      46.036   5.049   8.550  0.00  0.00    +0.000 A 
BRANCH  27  30
ATOM     30  C   UNL     1      47.090   2.370   6.183  0.00  0.00    +0.000 C 
ATOM     31  F   UNL     1      46.739   2.868   4.958  0.00  0.00    +0.000 F 
ATOM     32  F   UNL     1      48.451   2.452   6.226  0.00  0.00    +0.000 F 
ATOM     33  F   UNL     1      46.792   1.041   6.127  0.00  0.00    +0.000 F 
ENDBRANCH  27  30
ENDBRANCH  23  24
ENDBRANCH   4  23
TORSDOF 6
ENDMDL
