MODEL 1
REMARK VINA RESULT:    -8.660      0.000      0.000
REMARK INTER + INTRA:         -14.546
REMARK INTER:                 -13.722
REMARK INTRA:                  -0.824
REMARK UNBOUND:                -0.824
REMARK  Name = 
REMARK  11 active torsions:
REMARK  status: ('A' for Active; 'I' for Inactive)
REMARK    1  A    between atoms: N_1  and  C_2
REMARK    2  A    between atoms: C_2  and  C_3
REMARK    3  A    between atoms: C_3  and  N_4
REMARK    4  A    between atoms: C_3  and  C_28
REMARK    5  A    between atoms: N_4  and  CA_5
REMARK    6  A    between atoms: CA_5  and  C_6
REMARK    7  A    between atoms: CA_5  and  C_8
REMARK    8  A    between atoms: C_6  and  O_7
REMARK    9  A    between atoms: C_11  and  C_12
REMARK   10  A    between atoms: C_12  and  N_13
REMARK   11  A    between atoms: C_14  and  C_16
REMARK                            x       y       z     vdW  Elec       q    Type
REMARK                         _______ _______ _______ _____ _____    ______ ____
ROOT
ATOM      1  C   UNL     1      44.727   6.090  11.704  0.00  0.00    +0.000 A 
ATOM      2  C   UNL     1      45.637   7.044  11.245  0.00  0.00    +0.000 A 
ATOM      3  C   UNL     1      46.829   7.228  11.938  0.00  0.00    +0.000 A 
ATOM      4  C   UNL     1      47.103   6.452  13.063  0.00  0.00    +0.000 A 
ATOM      5  C   UNL     1      46.129   5.541  13.462  0.00  0.00    +0.000 A 
ATOM      6  N   UNL     1      44.956   5.338  12.815  0.00  0.00    +0.000 NA
ENDROOT
BRANCH   1   7
ATOM      7  CA  UNL     1      43.446   5.807  10.911  0.00  0.00    +0.000 C 
BRANCH   7   8
ATOM      8  N   UNL     1      43.721   4.764   9.908  0.00  0.00    +0.000 NA
ATOM      9  H   UNL     1      44.111   5.204   9.072  0.00  0.00    +0.000 HD
BRANCH   8  10
ATOM     10  C   UNL     1      44.587   3.642  10.309  0.00  0.00    +0.000 C 
BRANCH  10  11
ATOM     11  C   UNL     1      45.360   3.173   9.071  0.00  0.00    +0.000 A 
ATOM     12  C   UNL     1      45.656   1.813   8.890  0.00  0.00    +0.000 A 
ATOM     13  C   UNL     1      46.379   1.379   7.774  0.00  0.00    +0.000 A 
ATOM     14  C   UNL     1      46.816   2.297   6.821  0.00  0.00    +0.000 A 
ATOM     15  C   UNL     1      46.529   3.651   6.982  0.00  0.00    +0.000 A 
ATOM     16  C   UNL     1      45.806   4.084   8.096  0.00  0.00    +0.000 A 
ENDBRANCH  10  11
BRANCH  10  17
ATOM     17  C   UNL     1      43.802   2.456  10.962  0.00  0.00    +0.000 C 
BRANCH  17  18
ATOM     18  N   UNL     1      43.772   2.471  12.430  0.00  0.00    +0.000 NA
ATOM     19  H   UNL     1      43.887   1.519  12.775  0.00  0.00    +0.000 HD
ATOM     20  H   UNL     1      42.855   2.781  12.750  0.00  0.00    +0.000 HD
ENDBRANCH  17  18
ENDBRANCH  10  17
ENDBRANCH   8  10
ENDBRANCH   7   8
BRANCH   7  21
ATOM     21  C   UNL     1      42.275   5.533  11.892  0.00  0.00    +0.000 C 
BRANCH  21  22
ATOM     22  O   UNL     1      42.653   5.514  13.267  0.00  0.00    +0.000 OA
ATOM     23  H   UNL     1      43.594   5.773  13.310  0.00  0.00    +0.000 HD
ENDBRANCH  21  22
ENDBRANCH   7  21
ENDBRANCH   1   7
BRANCH   4  24
ATOM     24  C   UNL     1      48.376   6.615  13.840  0.00  0.00    +0.000 C 
BRANCH  24  25
ATOM     25  N   UNL     1      48.108   6.846  15.234  0.00  0.00    +0.000 N 
ATOM     26  C   UNL     1      49.069   6.613  16.196  0.00  0.00    +0.000 C 
ATOM     27  O   UNL     1      50.207   6.265  15.892  0.00  0.00    +0.000 OA
ATOM     28  H   UNL     1      47.137   6.916  15.520  0.00  0.00    +0.000 HD
BRANCH  26  29
ATOM     29  C   UNL     1      48.677   6.856  17.590  0.00  0.00    +0.000 A 
ATOM     30  C   UNL     1      48.340   8.142  17.988  0.00  0.00    +0.000 A 
ATOM     31  S   UNL     1      47.863   8.247  19.620  0.00  0.00    +0.000 S 
ATOM     32  C   UNL     1      48.142   6.586  19.866  0.00  0.00    +0.000 A 
ATOM     33  N   UNL     1      47.945   6.017  21.086  0.00  0.00    +0.000 NA
ATOM     34  C   UNL     1      48.226   4.758  21.139  0.00  0.00    +0.000 A 
ATOM     35  N   UNL     1      48.679   4.013  20.080  0.00  0.00    +0.000 N 
ATOM     36  C   UNL     1      48.856   4.538  18.822  0.00  0.00    +0.000 A 
ATOM     37  O   UNL     1      49.208   3.836  17.880  0.00  0.00    +0.000 OA
ATOM     38  C   UNL     1      48.574   5.955  18.714  0.00  0.00    +0.000 A 
ATOM     39  H   UNL     1      48.865   3.028  20.184  0.00  0.00    +0.000 HD
ENDBRANCH  26  29
ENDBRANCH  24  25
ENDBRANCH   4  24
TORSDOF 11
ENDMDL
MODEL 2
REMARK VINA RESULT:    -8.493      1.315      2.193
REMARK INTER + INTRA:         -14.283
REMARK INTER:                 -13.243
REMARK INTRA:                  -1.039
REMARK UNBOUND:                -0.824
REMARK  Name = 
REMARK  11 active torsions:
REMARK  status: ('A' for Active; 'I' for Inactive)
REMARK    1  A    between atoms: N_1  and  C_2
REMARK    2  A    between atoms: C_2  and  C_3
REMARK    3  A    between atoms: C_3  and  N_4
REMARK    4  A    between atoms: C_3  and  C_28
REMARK    5  A    between atoms: N_4  and  CA_5
REMARK    6  A    between atoms: CA_5  and  C_6
REMARK    7  A    between atoms: CA_5  and  C_8
REMARK    8  A    between atoms: C_6  and  O_7
REMARK    9  A    between atoms: C_11  and  C_12
REMARK   10  A    between atoms: C_12  and  N_13
REMARK   11  A    between atoms: C_14  and  C_16
REMARK                            x       y       z     vdW  Elec       q    Type
REMARK                         _______ _______ _______ _____ _____    ______ ____
ROOT
ATOM      1  C   UNL     1      44.659   6.215  11.765  0.00  0.00    +0.000 A 
ATOM      2  C   UNL     1      45.387   7.374  11.488  0.00  0.00    +0.000 A 
ATOM      3  C   UNL     1      46.575   7.605  12.174  0.00  0.00    +0.000 A 
ATOM      4  C   UNL     1      47.026   6.675  13.110  0.00  0.00    +0.000 A 
ATOM      5  C   UNL     1      46.226   5.560  13.339  0.00  0.00    +0.000 A 
ATOM      6  N   UNL     1      45.062   5.305  12.693  0.00  0.00    +0.000 NA
ENDROOT
BRANCH   1   7
ATOM      7  CA  UNL     1      43.393   5.894  10.962  0.00  0.00    +0.000 C 
BRANCH   7   8
ATOM      8  N   UNL     1      43.713   4.879   9.944  0.00  0.00    +0.000 NA
ATOM      9  H   UNL     1      44.155   5.340   9.146  0.00  0.00    +0.000 HD
BRANCH   8  10
ATOM     10  C   UNL     1      44.542   3.733  10.357  0.00  0.00    +0.000 C 
BRANCH  10  11
ATOM     11  C   UNL     1      45.345   3.264   9.139  0.00  0.00    +0.000 A 
ATOM     12  C   UNL     1      45.803   4.190   8.189  0.00  0.00    +0.000 A 
ATOM     13  C   UNL     1      46.518   3.768   7.063  0.00  0.00    +0.000 A 
ATOM     14  C   UNL     1      46.788   2.415   6.871  0.00  0.00    +0.000 A 
ATOM     15  C   UNL     1      46.344   1.481   7.804  0.00  0.00    +0.000 A 
ATOM     16  C   UNL     1      45.630   1.902   8.929  0.00  0.00    +0.000 A 
ENDBRANCH  10  11
BRANCH  10  17
ATOM     17  C   UNL     1      43.711   2.556  10.968  0.00  0.00    +0.000 C 
BRANCH  17  18
ATOM     18  N   UNL     1      43.755   2.464  12.432  0.00  0.00    +0.000 NA
ATOM     19  H   UNL     1      44.592   1.952  12.708  0.00  0.00    +0.000 HD
ATOM     20  H   UNL     1      42.962   1.915  12.764  0.00  0.00    +0.000 HD
ENDBRANCH  17  18
ENDBRANCH  10  17
ENDBRANCH   8  10
ENDBRANCH   7   8
BRANCH   7  21
ATOM     21  C   UNL     1      42.231   5.556  11.935  0.00  0.00    +0.000 C 
BRANCH  21  22
ATOM     22  O   UNL     1      42.604   5.540  13.312  0.00  0.00    +0.000 OA
ATOM     23  H   UNL     1      42.564   4.610  13.609  0.00  0.00    +0.000 HD
ENDBRANCH  21  22
ENDBRANCH   7  21
ENDBRANCH   1   7
BRANCH   4  24
ATOM     24  C   UNL     1      48.302   6.883  13.872  0.00  0.00    +0.000 C 
BRANCH  24  25
ATOM     25  N   UNL     1      48.064   6.889  15.290  0.00  0.00    +0.000 N 
ATOM     26  C   UNL     1      49.051   6.527  16.183  0.00  0.00    +0.000 C 
ATOM     27  O   UNL     1      50.187   6.252  15.804  0.00  0.00    +0.000 OA
ATOM     28  H   UNL     1      47.100   6.897  15.604  0.00  0.00    +0.000 HD
BRANCH  26  29
ATOM     29  C   UNL     1      48.691   6.543  17.606  0.00  0.00    +0.000 A 
ATOM     30  C   UNL     1      48.809   5.378  18.351  0.00  0.00    +0.000 A 
ATOM     31  S   UNL     1      48.400   5.575  19.993  0.00  0.00    +0.000 S 
ATOM     32  C   UNL     1      47.998   7.211  19.754  0.00  0.00    +0.000 A 
ATOM     33  N   UNL     1      47.539   7.976  20.781  0.00  0.00    +0.000 NA
ATOM     34  C   UNL     1      47.243   9.189  20.452  0.00  0.00    +0.000 A 
ATOM     35  N   UNL     1      47.369   9.710  19.190  0.00  0.00    +0.000 N 
ATOM     36  C   UNL     1      47.864   8.985  18.132  0.00  0.00    +0.000 A 
ATOM     37  O   UNL     1      48.019   9.493  17.026  0.00  0.00    +0.000 OA
ATOM     38  C   UNL     1      48.192   7.609  18.444  0.00  0.00    +0.000 A 
ATOM     39  H   UNL     1      47.134  10.672  19.002  0.00  0.00    +0.000 HD
ENDBRANCH  26  29
ENDBRANCH  24  25
ENDBRANCH   4  24
TORSDOF 11
ENDMDL
MODEL 3
REMARK VINA RESULT:    -7.983      1.478      2.010
REMARK INTER + INTRA:         -13.474
REMARK INTER:                 -13.161
REMARK INTRA:                  -0.313
REMARK UNBOUND:                -0.824
REMARK  Name = 
REMARK  11 active torsions:
REMARK  status: ('A' for Active; 'I' for Inactive)
REMARK    1  A    between atoms: N_1  and  C_2
REMARK    2  A    between atoms: C_2  and  C_3
REMARK    3  A    between atoms: C_3  and  N_4
REMARK    4  A    between atoms: C_3  and  C_28
REMARK    5  A    between atoms: N_4  and  CA_5
REMARK    6  A    between atoms: CA_5  and  C_6
REMARK    7  A    between atoms: CA_5  and  C_8
REMARK    8  A    between atoms: C_6  and  O_7
REMARK    9  A    between atoms: C_11  and  C_12
REMARK   10  A    between atoms: C_12  and  N_13
REMARK   11  A    between atoms: C_14  and  C_16
REMARK                            x       y       z     vdW  Elec       q    Type
REMARK                         _______ _______ _______ _____ _____    ______ ____
ROOT
ATOM      1  C   UNL     1      45.390   4.366  12.238  0.00  0.00    +0.000 A 
ATOM      2  C   UNL     1      45.640   5.672  11.815  0.00  0.00    +0.000 A 
ATOM      3  C   UNL     1      46.628   6.413  12.456  0.00  0.00    +0.000 A 
ATOM      4  C   UNL     1      47.361   5.837  13.493  0.00  0.00    +0.000 A 
ATOM      5  C   UNL     1      47.029   4.537  13.864  0.00  0.00    +0.000 A 
ATOM      6  N   UNL     1      46.071   3.789  13.265  0.00  0.00    +0.000 NA
ENDROOT
BRANCH   1   7
ATOM      7  CA  UNL     1      44.367   3.500  11.493  0.00  0.00    +0.000 C 
BRANCH   7   8
ATOM      8  N   UNL     1      45.047   2.783  10.400  0.00  0.00    +0.000 NA
ATOM      9  H   UNL     1      44.987   1.779  10.577  0.00  0.00    +0.000 HD
BRANCH   8  10
ATOM     10  C   UNL     1      44.602   3.056   9.023  0.00  0.00    +0.000 C 
BRANCH  10  11
ATOM     11  C   UNL     1      45.671   2.520   8.064  0.00  0.00    +0.000 A 
ATOM     12  C   UNL     1      46.076   3.277   6.954  0.00  0.00    +0.000 A 
ATOM     13  C   UNL     1      47.035   2.787   6.063  0.00  0.00    +0.000 A 
ATOM     14  C   UNL     1      47.606   1.532   6.267  0.00  0.00    +0.000 A 
ATOM     15  C   UNL     1      47.219   0.767   7.365  0.00  0.00    +0.000 A 
ATOM     16  C   UNL     1      46.262   1.257   8.256  0.00  0.00    +0.000 A 
ENDBRANCH  10  11
BRANCH  10  17
ATOM     17  C   UNL     1      44.315   4.570   8.753  0.00  0.00    +0.000 C 
BRANCH  17  18
ATOM     18  N   UNL     1      45.506   5.429   8.722  0.00  0.00    +0.000 NA
ATOM     19  H   UNL     1      46.117   5.177   9.498  0.00  0.00    +0.000 HD
ATOM     20  H   UNL     1      45.233   6.398   8.877  0.00  0.00    +0.000 HD
ENDBRANCH  17  18
ENDBRANCH  10  17
ENDBRANCH   8  10
ENDBRANCH   7   8
BRANCH   7  21
ATOM     21  C   UNL     1      43.583   2.628  12.510  0.00  0.00    +0.000 C 
BRANCH  21  22
ATOM     22  O   UNL     1      43.046   1.426  11.961  0.00  0.00    +0.000 OA
ATOM     23  H   UNL     1      43.737   1.036  11.391  0.00  0.00    +0.000 HD
ENDBRANCH  21  22
ENDBRANCH   7  21
ENDBRANCH   1   7
BRANCH   4  24
ATOM     24  C   UNL     1      48.437   6.597  14.211  0.00  0.00    +0.000 C 
BRANCH  24  25
ATOM     25  N   UNL     1      48.232   6.566  15.634  0.00  0.00    +0.000 N 
ATOM     26  C   UNL     1      48.861   7.468  16.467  0.00  0.00    +0.000 C 
ATOM     27  O   UNL     1      49.564   8.371  16.019  0.00  0.00    +0.000 OA
ATOM     28  H   UNL     1      47.846   5.718  16.035  0.00  0.00    +0.000 HD
BRANCH  26  29
ATOM     29  C   UNL     1      48.602   7.328  17.905  0.00  0.00    +0.000 A 
ATOM     30  C   UNL     1      48.179   8.432  18.631  0.00  0.00    +0.000 A 
ATOM     31  S   UNL     1      47.875   8.093  20.273  0.00  0.00    +0.000 S 
ATOM     32  C   UNL     1      48.350   6.470  20.082  0.00  0.00    +0.000 A 
ATOM     33  N   UNL     1      48.348   5.612  21.138  0.00  0.00    +0.000 NA
ATOM     34  C   UNL     1      48.761   4.421  20.859  0.00  0.00    +0.000 A 
ATOM     35  N   UNL     1      49.170   4.007  19.617  0.00  0.00    +0.000 N 
ATOM     36  C   UNL     1      49.153   4.829  18.515  0.00  0.00    +0.000 A 
ATOM     37  O   UNL     1      49.471   4.416  17.404  0.00  0.00    +0.000 OA
ATOM     38  C   UNL     1      48.716   6.184  18.780  0.00  0.00    +0.000 A 
ATOM     39  H   UNL     1      49.467   3.056  19.462  0.00  0.00    +0.000 HD
ENDBRANCH  26  29
ENDBRANCH  24  25
ENDBRANCH   4  24
TORSDOF 11
ENDMDL
MODEL 4
REMARK VINA RESULT:    -7.715      5.419      7.747
REMARK INTER + INTRA:         -13.050
REMARK INTER:                 -11.389
REMARK INTRA:                  -1.660
REMARK UNBOUND:                -0.824
REMARK  Name = 
REMARK  11 active torsions:
REMARK  status: ('A' for Active; 'I' for Inactive)
REMARK    1  A    between atoms: N_1  and  C_2
REMARK    2  A    between atoms: C_2  and  C_3
REMARK    3  A    between atoms: C_3  and  N_4
REMARK    4  A    between atoms: C_3  and  C_28
REMARK    5  A    between atoms: N_4  and  CA_5
REMARK    6  A    between atoms: CA_5  and  C_6
REMARK    7  A    between atoms: CA_5  and  C_8
REMARK    8  A    between atoms: C_6  and  O_7
REMARK    9  A    between atoms: C_11  and  C_12
REMARK   10  A    between atoms: C_12  and  N_13
REMARK   11  A    between atoms: C_14  and  C_16
REMARK                            x       y       z     vdW  Elec       q    Type
REMARK                         _______ _______ _______ _____ _____    ______ ____
ROOT
ATOM      1  C   UNL     1      47.268   6.416  12.937  0.00  0.00    +0.000 A 
ATOM      2  C   UNL     1      47.386   7.101  11.726  0.00  0.00    +0.000 A 
ATOM      3  C   UNL     1      48.588   7.729  11.419  0.00  0.00    +0.000 A 
ATOM      4  C   UNL     1      49.656   7.653  12.312  0.00  0.00    +0.000 A 
ATOM      5  C   UNL     1      49.444   6.968  13.505  0.00  0.00    +0.000 A 
ATOM      6  N   UNL     1      48.285   6.349  13.839  0.00  0.00    +0.000 NA
ENDROOT
BRANCH   1   7
ATOM      7  CA  UNL     1      45.985   5.643  13.261  0.00  0.00    +0.000 C 
BRANCH   7   8
ATOM      8  N   UNL     1      45.037   5.794  12.143  0.00  0.00    +0.000 NA
ATOM      9  H   UNL     1      45.552   6.091  11.312  0.00  0.00    +0.000 HD
BRANCH   8  10
ATOM     10  C   UNL     1      44.196   4.635  11.798  0.00  0.00    +0.000 C 
BRANCH  10  11
ATOM     11  C   UNL     1      44.702   4.058  10.472  0.00  0.00    +0.000 A 
ATOM     12  C   UNL     1      45.354   4.882   9.540  0.00  0.00    +0.000 A 
ATOM     13  C   UNL     1      45.800   4.368   8.318  0.00  0.00    +0.000 A 
ATOM     14  C   UNL     1      45.603   3.024   8.008  0.00  0.00    +0.000 A 
ATOM     15  C   UNL     1      44.961   2.190   8.921  0.00  0.00    +0.000 A 
ATOM     16  C   UNL     1      44.516   2.703  10.142  0.00  0.00    +0.000 A 
ENDBRANCH  10  11
BRANCH  10  17
ATOM     17  C   UNL     1      42.672   4.979  11.715  0.00  0.00    +0.000 C 
BRANCH  17  18
ATOM     18  N   UNL     1      42.365   6.413  11.642  0.00  0.00    +0.000 NA
ATOM     19  H   UNL     1      42.881   6.824  10.866  0.00  0.00    +0.000 HD
ATOM     20  H   UNL     1      42.700   6.877  12.486  0.00  0.00    +0.000 HD
ENDBRANCH  17  18
ENDBRANCH  10  17
ENDBRANCH   8  10
ENDBRANCH   7   8
BRANCH   7  21
ATOM     21  C   UNL     1      46.341   4.190  13.674  0.00  0.00    +0.000 C 
BRANCH  21  22
ATOM     22  O   UNL     1      46.709   4.042  15.045  0.00  0.00    +0.000 OA
ATOM     23  H   UNL     1      47.154   3.177  15.131  0.00  0.00    +0.000 HD
ENDBRANCH  21  22
ENDBRANCH   7  21
ENDBRANCH   1   7
BRANCH   4  24
ATOM     24  C   UNL     1      50.972   8.314  12.022  0.00  0.00    +0.000 C 
BRANCH  24  25
ATOM     25  N   UNL     1      51.420   8.013  10.689  0.00  0.00    +0.000 N 
ATOM     26  C   UNL     1      52.533   8.627  10.152  0.00  0.00    +0.000 C 
ATOM     27  O   UNL     1      53.219   9.401  10.815  0.00  0.00    +0.000 OA
ATOM     28  H   UNL     1      50.763   7.560  10.063  0.00  0.00    +0.000 HD
BRANCH  26  29
ATOM     29  C   UNL     1      52.884   8.266   8.773  0.00  0.00    +0.000 A 
ATOM     30  C   UNL     1      52.827   9.234   7.781  0.00  0.00    +0.000 A 
ATOM     31  S   UNL     1      53.311   8.669   6.248  0.00  0.00    +0.000 S 
ATOM     32  C   UNL     1      53.563   7.096   6.847  0.00  0.00    +0.000 A 
ATOM     33  N   UNL     1      53.971   6.092   6.025  0.00  0.00    +0.000 NA
ATOM     34  C   UNL     1      54.092   4.944   6.604  0.00  0.00    +0.000 A 
ATOM     35  N   UNL     1      53.848   4.709   7.934  0.00  0.00    +0.000 N 
ATOM     36  C   UNL     1      53.471   5.702   8.808  0.00  0.00    +0.000 A 
ATOM     37  O   UNL     1      53.314   5.475  10.003  0.00  0.00    +0.000 OA
ATOM     38  C   UNL     1      53.301   7.007   8.202  0.00  0.00    +0.000 A 
ATOM     39  H   UNL     1      53.977   3.791   8.328  0.00  0.00    +0.000 HD
ENDBRANCH  26  29
ENDBRANCH  24  25
ENDBRANCH   4  24
TORSDOF 11
ENDMDL
MODEL 5
REMARK VINA RESULT:    -7.523      3.418      5.006
REMARK INTER + INTRA:         -12.745
REMARK INTER:                 -11.649
REMARK INTRA:                  -1.096
REMARK UNBOUND:                -0.824
REMARK  Name = 
REMARK  11 active torsions:
REMARK  status: ('A' for Active; 'I' for Inactive)
REMARK    1  A    between atoms: N_1  and  C_2
REMARK    2  A    between atoms: C_2  and  C_3
REMARK    3  A    between atoms: C_3  and  N_4
REMARK    4  A    between atoms: C_3  and  C_28
REMARK    5  A    between atoms: N_4  and  CA_5
REMARK    6  A    between atoms: CA_5  and  C_6
REMARK    7  A    between atoms: CA_5  and  C_8
REMARK    8  A    between atoms: C_6  and  O_7
REMARK    9  A    between atoms: C_11  and  C_12
REMARK   10  A    between atoms: C_12  and  N_13
REMARK   11  A    between atoms: C_14  and  C_16
REMARK                            x       y       z     vdW  Elec       q    Type
REMARK                         _______ _______ _______ _____ _____    ______ ____
ROOT
ATOM      1  C   UNL     1      47.573   5.084  14.671  0.00  0.00    +0.000 A 
ATOM      2  C   UNL     1      47.197   3.911  15.329  0.00  0.00    +0.000 A 
ATOM      3  C   UNL     1      47.546   3.744  16.665  0.00  0.00    +0.000 A 
ATOM      4  C   UNL     1      48.248   4.750  17.328  0.00  0.00    +0.000 A 
ATOM      5  C   UNL     1      48.601   5.875  16.589  0.00  0.00    +0.000 A 
ATOM      6  N   UNL     1      48.282   6.069  15.286  0.00  0.00    +0.000 NA
ENDROOT
BRANCH   1   7
ATOM      7  CA  UNL     1      47.127   5.330  13.226  0.00  0.00    +0.000 C 
BRANCH   7   8
ATOM      8  N   UNL     1      45.658   5.431  13.186  0.00  0.00    +0.000 NA
ATOM      9  H   UNL     1      45.398   6.219  12.590  0.00  0.00    +0.000 HD
BRANCH   8  10
ATOM     10  C   UNL     1      44.901   4.240  12.764  0.00  0.00    +0.000 C 
BRANCH  10  11
ATOM     11  C   UNL     1      45.005   4.127  11.239  0.00  0.00    +0.000 A 
ATOM     12  C   UNL     1      44.692   2.922  10.592  0.00  0.00    +0.000 A 
ATOM     13  C   UNL     1      44.803   2.804   9.203  0.00  0.00    +0.000 A 
ATOM     14  C   UNL     1      45.229   3.889   8.438  0.00  0.00    +0.000 A 
ATOM     15  C   UNL     1      45.541   5.094   9.063  0.00  0.00    +0.000 A 
ATOM     16  C   UNL     1      45.429   5.213  10.450  0.00  0.00    +0.000 A 
ENDBRANCH  10  11
BRANCH  10  17
ATOM     17  C   UNL     1      43.406   4.261  13.225  0.00  0.00    +0.000 C 
BRANCH  17  18
ATOM     18  N   UNL     1      42.779   5.589  13.225  0.00  0.00    +0.000 NA
ATOM     19  H   UNL     1      43.471   6.284  13.500  0.00  0.00    +0.000 HD
ATOM     20  H   UNL     1      42.045   5.620  13.932  0.00  0.00    +0.000 HD
ENDBRANCH  17  18
ENDBRANCH  10  17
ENDBRANCH   8  10
ENDBRANCH   7   8
BRANCH   7  21
ATOM     21  C   UNL     1      47.919   6.525  12.632  0.00  0.00    +0.000 C 
BRANCH  21  22
ATOM     22  O   UNL     1      49.337   6.386  12.708  0.00  0.00    +0.000 OA
ATOM     23  H   UNL     1      49.531   5.429  12.735  0.00  0.00    +0.000 HD
ENDBRANCH  21  22
ENDBRANCH   7  21
ENDBRANCH   1   7
BRANCH   4  24
ATOM     24  C   UNL     1      48.644   4.614  18.769  0.00  0.00    +0.000 C 
BRANCH  24  25
ATOM     25  N   UNL     1      49.881   3.893  18.901  0.00  0.00    +0.000 N 
ATOM     26  C   UNL     1      51.097   4.544  18.861  0.00  0.00    +0.000 C 
ATOM     27  O   UNL     1      51.164   5.769  18.779  0.00  0.00    +0.000 OA
ATOM     28  H   UNL     1      49.859   2.890  18.750  0.00  0.00    +0.000 HD
BRANCH  26  29
ATOM     29  C   UNL     1      52.297   3.708  18.977  0.00  0.00    +0.000 A 
ATOM     30  C   UNL     1      53.357   4.144  19.759  0.00  0.00    +0.000 A 
ATOM     31  S   UNL     1      54.652   3.038  19.830  0.00  0.00    +0.000 S 
ATOM     32  C   UNL     1      53.862   1.961  18.776  0.00  0.00    +0.000 A 
ATOM     33  N   UNL     1      54.451   0.795  18.396  0.00  0.00    +0.000 NA
ATOM     34  C   UNL     1      53.754   0.089  17.570  0.00  0.00    +0.000 A 
ATOM     35  N   UNL     1      52.518   0.440  17.092  0.00  0.00    +0.000 N 
ATOM     36  C   UNL     1      51.869   1.589  17.477  0.00  0.00    +0.000 A 
ATOM     37  O   UNL     1      50.739   1.850  17.077  0.00  0.00    +0.000 OA
ATOM     38  C   UNL     1      52.619   2.428  18.389  0.00  0.00    +0.000 A 
ATOM     39  H   UNL     1      52.018  -0.165  16.458  0.00  0.00    +0.000 HD
ENDBRANCH  26  29
ENDBRANCH  24  25
ENDBRANCH   4  24
TORSDOF 11
ENDMDL
MODEL 6
REMARK VINA RESULT:    -7.300      2.981      8.576
REMARK INTER + INTRA:         -12.391
REMARK INTER:                 -10.505
REMARK INTRA:                  -1.886
REMARK UNBOUND:                -0.824
REMARK  Name = 
REMARK  11 active torsions:
REMARK  status: ('A' for Active; 'I' for Inactive)
REMARK    1  A    between atoms: N_1  and  C_2
REMARK    2  A    between atoms: C_2  and  C_3
REMARK    3  A    between atoms: C_3  and  N_4
REMARK    4  A    between atoms: C_3  and  C_28
REMARK    5  A    between atoms: N_4  and  CA_5
REMARK    6  A    between atoms: CA_5  and  C_6
REMARK    7  A    between atoms: CA_5  and  C_8
REMARK    8  A    between atoms: C_6  and  O_7
REMARK    9  A    between atoms: C_11  and  C_12
REMARK   10  A    between atoms: C_12  and  N_13
REMARK   11  A    between atoms: C_14  and  C_16
REMARK                            x       y       z     vdW  Elec       q    Type
REMARK                         _______ _______ _______ _____ _____    ______ ____
ROOT
ATOM      1  C   UNL     1      48.548   7.851  16.217  0.00  0.00    +0.000 A 
ATOM      2  C   UNL     1      48.686   6.678  15.473  0.00  0.00    +0.000 A 
ATOM      3  C   UNL     1      48.596   6.743  14.086  0.00  0.00    +0.000 A 
ATOM      4  C   UNL     1      48.388   7.973  13.463  0.00  0.00    +0.000 A 
ATOM      5  C   UNL     1      48.239   9.088  14.284  0.00  0.00    +0.000 A 
ATOM      6  N   UNL     1      48.316   9.060  15.637  0.00  0.00    +0.000 NA
ENDROOT
BRANCH   1   7
ATOM      7  CA  UNL     1      48.728   7.819  17.739  0.00  0.00    +0.000 C 
BRANCH   7   8
ATOM      8  N   UNL     1      48.028   6.642  18.283  0.00  0.00    +0.000 NA
ATOM      9  H   UNL     1      47.595   6.131  17.512  0.00  0.00    +0.000 HD
BRANCH   8  10
ATOM     10  C   UNL     1      48.809   5.702  19.104  0.00  0.00    +0.000 C 
BRANCH  10  11
ATOM     11  C   UNL     1      49.046   4.433  18.278  0.00  0.00    +0.000 A 
ATOM     12  C   UNL     1      50.339   3.905  18.138  0.00  0.00    +0.000 A 
ATOM     13  C   UNL     1      50.566   2.759  17.369  0.00  0.00    +0.000 A 
ATOM     14  C   UNL     1      49.505   2.123  16.728  0.00  0.00    +0.000 A 
ATOM     15  C   UNL     1      48.214   2.630  16.857  0.00  0.00    +0.000 A 
ATOM     16  C   UNL     1      47.986   3.774  17.627  0.00  0.00    +0.000 A 
ENDBRANCH  10  11
BRANCH  10  17
ATOM     17  C   UNL     1      48.129   5.362  20.472  0.00  0.00    +0.000 C 
BRANCH  17  18
ATOM     18  N   UNL     1      48.466   4.041  21.018  0.00  0.00    +0.000 NA
ATOM     19  H   UNL     1      47.670   3.687  21.547  0.00  0.00    +0.000 HD
ATOM     20  H   UNL     1      49.233   4.132  21.683  0.00  0.00    +0.000 HD
ENDBRANCH  17  18
ENDBRANCH  10  17
ENDBRANCH   8  10
ENDBRANCH   7   8
BRANCH   7  21
ATOM     21  C   UNL     1      50.234   7.952  18.089  0.00  0.00    +0.000 C 
BRANCH  21  22
ATOM     22  O   UNL     1      50.904   9.012  17.408  0.00  0.00    +0.000 OA
ATOM     23  H   UNL     1      51.719   9.205  17.911  0.00  0.00    +0.000 HD
ENDBRANCH  21  22
ENDBRANCH   7  21
ENDBRANCH   1   7
BRANCH   4  24
ATOM     24  C   UNL     1      48.287   8.092  11.971  0.00  0.00    +0.000 C 
BRANCH  24  25
ATOM     25  N   UNL     1      47.588   6.968  11.408  0.00  0.00    +0.000 N 
ATOM     26  C   UNL     1      46.210   6.943  11.341  0.00  0.00    +0.000 C 
ATOM     27  O   UNL     1      45.534   7.906  11.697  0.00  0.00    +0.000 OA
ATOM     28  H   UNL     1      48.098   6.096  11.315  0.00  0.00    +0.000 HD
BRANCH  26  29
ATOM     29  C   UNL     1      45.600   5.735  10.772  0.00  0.00    +0.000 A 
ATOM     30  C   UNL     1      45.737   5.477   9.416  0.00  0.00    +0.000 A 
ATOM     31  S   UNL     1      45.016   4.014   8.923  0.00  0.00    +0.000 S 
ATOM     32  C   UNL     1      44.449   3.701  10.497  0.00  0.00    +0.000 A 
ATOM     33  N   UNL     1      43.714   2.588  10.767  0.00  0.00    +0.000 NA
ATOM     34  C   UNL     1      43.323   2.491  11.993  0.00  0.00    +0.000 A 
ATOM     35  N   UNL     1      43.604   3.404  12.978  0.00  0.00    +0.000 N 
ATOM     36  C   UNL     1      44.373   4.522  12.759  0.00  0.00    +0.000 A 
ATOM     37  O   UNL     1      44.656   5.292  13.671  0.00  0.00    +0.000 OA
ATOM     38  C   UNL     1      44.821   4.688  11.391  0.00  0.00    +0.000 A 
ATOM     39  H   UNL     1      43.280   3.261  13.922  0.00  0.00    +0.000 HD
ENDBRANCH  26  29
ENDBRANCH  24  25
ENDBRANCH   4  24
TORSDOF 11
ENDMDL
MODEL 7
REMARK VINA RESULT:    -7.223      2.870      9.025
REMARK INTER + INTRA:         -12.271
REMARK INTER:                 -10.820
REMARK INTRA:                  -1.450
REMARK UNBOUND:                -0.824
REMARK  Name = 
REMARK  11 active torsions:
REMARK  status: ('A' for Active; 'I' for Inactive)
REMARK    1  A    between atoms: N_1  and  C_2
REMARK    2  A    between atoms: C_2  and  C_3
REMARK    3  A    between atoms: C_3  and  N_4
REMARK    4  A    between atoms: C_3  and  C_28
REMARK    5  A    between atoms: N_4  and  CA_5
REMARK    6  A    between atoms: CA_5  and  C_6
REMARK    7  A    between atoms: CA_5  and  C_8
REMARK    8  A    between atoms: C_6  and  O_7
REMARK    9  A    between atoms: C_11  and  C_12
REMARK   10  A    between atoms: C_12  and  N_13
REMARK   11  A    between atoms: C_14  and  C_16
REMARK                            x       y       z     vdW  Elec       q    Type
REMARK                         _______ _______ _______ _____ _____    ______ ____
ROOT
ATOM      1  C   UNL     1      49.508   7.695  15.597  0.00  0.00    +0.000 A 
ATOM      2  C   UNL     1      48.828   8.891  15.356  0.00  0.00    +0.000 A 
ATOM      3  C   UNL     1      48.020   8.992  14.228  0.00  0.00    +0.000 A 
ATOM      4  C   UNL     1      47.888   7.901  13.370  0.00  0.00    +0.000 A 
ATOM      5  C   UNL     1      48.619   6.756  13.677  0.00  0.00    +0.000 A 
ATOM      6  N   UNL     1      49.419   6.624  14.763  0.00  0.00    +0.000 NA
ENDROOT
BRANCH   1   7
ATOM      7  CA  UNL     1      50.335   7.528  16.876  0.00  0.00    +0.000 C 
BRANCH   7   8
ATOM      8  N   UNL     1      49.517   6.847  17.894  0.00  0.00    +0.000 NA
ATOM      9  H   UNL     1      48.626   6.576  17.474  0.00  0.00    +0.000 HD
BRANCH   8  10
ATOM     10  C   UNL     1      50.103   5.679  18.573  0.00  0.00    +0.000 C 
BRANCH  10  11
ATOM     11  C   UNL     1      49.622   4.417  17.848  0.00  0.00    +0.000 A 
ATOM     12  C   UNL     1      50.489   3.329  17.663  0.00  0.00    +0.000 A 
ATOM     13  C   UNL     1      50.064   2.182  16.983  0.00  0.00    +0.000 A 
ATOM     14  C   UNL     1      48.768   2.105  16.479  0.00  0.00    +0.000 A 
ATOM     15  C   UNL     1      47.892   3.174  16.655  0.00  0.00    +0.000 A 
ATOM     16  C   UNL     1      48.315   4.319  17.335  0.00  0.00    +0.000 A 
ENDBRANCH  10  11
BRANCH  10  17
ATOM     17  C   UNL     1      49.760   5.613  20.099  0.00  0.00    +0.000 C 
BRANCH  17  18
ATOM     18  N   UNL     1      49.291   4.304  20.571  0.00  0.00    +0.000 NA
ATOM     19  H   UNL     1      49.372   4.268  21.586  0.00  0.00    +0.000 HD
ATOM     20  H   UNL     1      49.900   3.572  20.209  0.00  0.00    +0.000 HD
ENDBRANCH  17  18
ENDBRANCH  10  17
ENDBRANCH   8  10
ENDBRANCH   7   8
BRANCH   7  21
ATOM     21  C   UNL     1      51.699   6.872  16.533  0.00  0.00    +0.000 C 
BRANCH  21  22
ATOM     22  O   UNL     1      52.208   7.214  15.244  0.00  0.00    +0.000 OA
ATOM     23  H   UNL     1      53.174   7.072  15.270  0.00  0.00    +0.000 HD
ENDBRANCH  21  22
ENDBRANCH   7  21
ENDBRANCH   1   7
BRANCH   4  24
ATOM     24  C   UNL     1      47.026   7.964  12.144  0.00  0.00    +0.000 C 
BRANCH  24  25
ATOM     25  N   UNL     1      46.484   6.671  11.823  0.00  0.00    +0.000 N 
ATOM     26  C   UNL     1      45.133   6.494  11.609  0.00  0.00    +0.000 C 
ATOM     27  O   UNL     1      44.354   7.444  11.617  0.00  0.00    +0.000 OA
ATOM     28  H   UNL     1      47.058   5.859  12.024  0.00  0.00    +0.000 HD
BRANCH  26  29
ATOM     29  C   UNL     1      44.686   5.127  11.315  0.00  0.00    +0.000 A 
ATOM     30  C   UNL     1      43.915   4.449  12.248  0.00  0.00    +0.000 A 
ATOM     31  S   UNL     1      43.437   2.895  11.737  0.00  0.00    +0.000 S 
ATOM     32  C   UNL     1      44.289   3.054  10.273  0.00  0.00    +0.000 A 
ATOM     33  N   UNL     1      44.312   2.043   9.364  0.00  0.00    +0.000 NA
ATOM     34  C   UNL     1      45.022   2.286   8.312  0.00  0.00    +0.000 A 
ATOM     35  N   UNL     1      45.707   3.452   8.085  0.00  0.00    +0.000 N 
ATOM     36  C   UNL     1      45.681   4.514   8.958  0.00  0.00    +0.000 A 
ATOM     37  O   UNL     1      46.257   5.567   8.703  0.00  0.00    +0.000 OA
ATOM     38  C   UNL     1      44.914   4.283  10.165  0.00  0.00    +0.000 A 
ATOM     39  H   UNL     1      46.231   3.586   7.234  0.00  0.00    +0.000 HD
ENDBRANCH  26  29
ENDBRANCH  24  25
ENDBRANCH   4  24
TORSDOF 11
ENDMDL
MODEL 8
REMARK VINA RESULT:    -6.850      2.014      2.935
REMARK INTER + INTRA:         -11.679
REMARK INTER:                 -11.016
REMARK INTRA:                  -0.663
REMARK UNBOUND:                -0.824
REMARK  Name = 
REMARK  11 active torsions:
REMARK  status: ('A' for Active; 'I' for Inactive)
REMARK    1  A    between atoms: N_1  and  C_2
REMARK    2  A    between atoms: C_2  and  C_3
REMARK    3  A    between atoms: C_3  and  N_4
REMARK    4  A    between atoms: C_3  and  C_28
REMARK    5  A    between atoms: N_4  and  CA_5
REMARK    6  A    between atoms: CA_5  and  C_6
REMARK    7  A    between atoms: CA_5  and  C_8
REMARK    8  A    between atoms: C_6  and  O_7
REMARK    9  A    between atoms: C_11  and  C_12
REMARK   10  A    between atoms: C_12  and  N_13
REMARK   11  A    between atoms: C_14  and  C_16
REMARK                            x       y       z     vdW  Elec       q    Type
REMARK                         _______ _______ _______ _____ _____    ______ ____
ROOT
ATOM      1  C   UNL     1      46.252   7.735  12.134  0.00  0.00    +0.000 A 
ATOM      2  C   UNL     1      46.319   8.526  13.283  0.00  0.00    +0.000 A 
ATOM      3  C   UNL     1      47.447   8.446  14.093  0.00  0.00    +0.000 A 
ATOM      4  C   UNL     1      48.495   7.597  13.739  0.00  0.00    +0.000 A 
ATOM      5  C   UNL     1      48.334   6.830  12.589  0.00  0.00    +0.000 A 
ATOM      6  N   UNL     1      47.248   6.878  11.779  0.00  0.00    +0.000 NA
ENDROOT
BRANCH   1   7
ATOM      7  CA  UNL     1      45.060   7.867  11.180  0.00  0.00    +0.000 C 
BRANCH   7   8
ATOM      8  N   UNL     1      44.168   6.709  11.360  0.00  0.00    +0.000 NA
ATOM      9  H   UNL     1      43.653   6.551  10.492  0.00  0.00    +0.000 HD
BRANCH   8  10
ATOM     10  C   UNL     1      44.775   5.440  11.797  0.00  0.00    +0.000 C 
BRANCH  10  11
ATOM     11  C   UNL     1      44.863   4.512  10.580  0.00  0.00    +0.000 A 
ATOM     12  C   UNL     1      44.393   3.192  10.656  0.00  0.00    +0.000 A 
ATOM     13  C   UNL     1      44.489   2.333   9.557  0.00  0.00    +0.000 A 
ATOM     14  C   UNL     1      45.054   2.779   8.364  0.00  0.00    +0.000 A 
ATOM     15  C   UNL     1      45.524   4.087   8.268  0.00  0.00    +0.000 A 
ATOM     16  C   UNL     1      45.427   4.946   9.366  0.00  0.00    +0.000 A 
ENDBRANCH  10  11
BRANCH  10  17
ATOM     17  C   UNL     1      43.999   4.754  12.970  0.00  0.00    +0.000 C 
BRANCH  17  18
ATOM     18  N   UNL     1      42.721   5.387  13.319  0.00  0.00    +0.000 NA
ATOM     19  H   UNL     1      42.003   5.067  12.671  0.00  0.00    +0.000 HD
ATOM     20  H   UNL     1      42.793   6.396  13.190  0.00  0.00    +0.000 HD
ENDBRANCH  17  18
ENDBRANCH  10  17
ENDBRANCH   8  10
ENDBRANCH   7   8
BRANCH   7  21
ATOM     21  C   UNL     1      44.414   9.269  11.343  0.00  0.00    +0.000 C 
BRANCH  21  22
ATOM     22  O   UNL     1      43.024   9.317  11.026  0.00  0.00    +0.000 OA
ATOM     23  H   UNL     1      42.679  10.163  11.371  0.00  0.00    +0.000 HD
ENDBRANCH  21  22
ENDBRANCH   7  21
ENDBRANCH   1   7
BRANCH   4  24
ATOM     24  C   UNL     1      49.731   7.481  14.581  0.00  0.00    +0.000 C 
BRANCH  24  25
ATOM     25  N   UNL     1      49.402   7.424  15.980  0.00  0.00    +0.000 N 
ATOM     26  C   UNL     1      48.819   6.302  16.533  0.00  0.00    +0.000 C 
ATOM     27  O   UNL     1      48.621   5.289  15.866  0.00  0.00    +0.000 OA
ATOM     28  H   UNL     1      49.352   8.301  16.487  0.00  0.00    +0.000 HD
BRANCH  26  29
ATOM     29  C   UNL     1      48.500   6.363  17.964  0.00  0.00    +0.000 A 
ATOM     30  C   UNL     1      48.649   5.224  18.743  0.00  0.00    +0.000 A 
ATOM     31  S   UNL     1      48.286   5.473  20.390  0.00  0.00    +0.000 S 
ATOM     32  C   UNL     1      47.867   7.098  20.109  0.00  0.00    +0.000 A 
ATOM     33  N   UNL     1      47.433   7.893  21.123  0.00  0.00    +0.000 NA
ATOM     34  C   UNL     1      47.119   9.093  20.764  0.00  0.00    +0.000 A 
ATOM     35  N   UNL     1      47.205   9.573  19.482  0.00  0.00    +0.000 N 
ATOM     36  C   UNL     1      47.673   8.816  18.434  0.00  0.00    +0.000 A 
ATOM     37  O   UNL     1      47.792   9.288  17.307  0.00  0.00    +0.000 OA
ATOM     38  C   UNL     1      48.019   7.453  18.781  0.00  0.00    +0.000 A 
ATOM     39  H   UNL     1      46.958  10.527  19.270  0.00  0.00    +0.000 HD
ENDBRANCH  26  29
ENDBRANCH  24  25
ENDBRANCH   4  24
TORSDOF 11
ENDMDL
