MODEL 1
REMARK VINA RESULT:    -8.493      0.000      0.000
REMARK INTER + INTRA:          -9.865
REMARK INTER:                  -9.486
REMARK INTRA:                  -0.379
REMARK UNBOUND:                -0.379
REMARK  Name = 
REMARK  2 active torsions:
REMARK  status: ('A' for Active; 'I' for Inactive)
REMARK    1  A    between atoms: N_10  and  C_11
REMARK    2  A    between atoms: C_11  and  C_12
REMARK                            x       y       z     vdW  Elec       q    Type
REMARK                         _______ _______ _______ _____ _____    ______ ____
ROOT
ATOM      1  N   UNL     1      46.171   9.645  12.483  0.00  0.00    +0.000 NA
ATOM      2  C   UNL     1      45.471   8.639  12.097  0.00  0.00    +0.000 C 
ATOM      3  N   UNL     1      44.164   8.767  11.780  0.00  0.00    +0.000 N 
ATOM      4  N   UNL     1      45.936   7.364  12.048  0.00  0.00    +0.000 N 
ATOM      5  C   UNL     1      47.069   6.929  12.897  0.00  0.00    +0.000 C 
ATOM      6  C   UNL     1      46.649   5.707  13.755  0.00  0.00    +0.000 C 
ATOM      7  C   UNL     1      45.953   4.713  12.895  0.00  0.00    +0.000 A 
ATOM      8  N   UNL     1      45.726   3.404  13.200  0.00  0.00    +0.000 NA
ATOM      9  C   UNL     1      45.074   2.928  12.158  0.00  0.00    +0.000 A 
ATOM     10  N   UNL     1      44.859   3.888  11.199  0.00  0.00    +0.000 N 
ATOM     11  C   UNL     1      45.432   5.035  11.663  0.00  0.00    +0.000 A 
ATOM     12  C   UNL     1      45.525   6.377  11.036  0.00  0.00    +0.000 C 
ATOM     13  H   UNL     1      45.607  10.494  12.430  0.00  0.00    +0.000 HD
ATOM     14  H   UNL     1      43.741   9.625  12.106  0.00  0.00    +0.000 HD
ATOM     15  H   UNL     1      43.628   7.972  12.113  0.00  0.00    +0.000 HD
ENDROOT
BRANCH  10  16
ATOM     16  C   UNL     1      44.241   3.664   9.903  0.00  0.00    +0.000 C 
BRANCH  16  17
ATOM     17  C   UNL     1      45.222   3.169   8.866  0.00  0.00    +0.000 A 
ATOM     18  C   UNL     1      45.811   4.052   7.946  0.00  0.00    +0.000 A 
ATOM     19  C   UNL     1      46.673   3.581   6.951  0.00  0.00    +0.000 A 
ATOM     20  C   UNL     1      46.953   2.219   6.857  0.00  0.00    +0.000 A 
ATOM     21  C   UNL     1      46.376   1.333   7.765  0.00  0.00    +0.000 A 
ATOM     22 CL   UNL     1      46.712  -0.349   7.644  0.00  0.00    +0.000 Cl
ATOM     23  C   UNL     1      45.516   1.800   8.764  0.00  0.00    +0.000 A 
ENDBRANCH  16  17
ENDBRANCH  10  16
TORSDOF 2
ENDMDL
MODEL 2
REMARK VINA RESULT:    -6.987      1.155      1.578
REMARK INTER + INTRA:          -8.184
REMARK INTER:                  -7.896
REMARK INTRA:                  -0.288
REMARK UNBOUND:                -0.379
REMARK  Name = 
REMARK  2 active torsions:
REMARK  status: ('A' for Active; 'I' for Inactive)
REMARK    1  A    between atoms: N_10  and  C_11
REMARK    2  A    between atoms: C_11  and  C_12
REMARK                            x       y       z     vdW  Elec       q    Type
REMARK                         _______ _______ _______ _____ _____    ______ ____
ROOT
ATOM      1  N   UNL     1      46.314  10.012  12.100  0.00  0.00    +0.000 NA
ATOM      2  C   UNL     1      45.560   9.000  11.855  0.00  0.00    +0.000 C 
ATOM      3  N   UNL     1      44.229   9.140  11.668  0.00  0.00    +0.000 N 
ATOM      4  N   UNL     1      45.994   7.714  11.843  0.00  0.00    +0.000 N 
ATOM      5  C   UNL     1      47.202   7.307  12.597  0.00  0.00    +0.000 C 
ATOM      6  C   UNL     1      46.853   6.153  13.572  0.00  0.00    +0.000 C 
ATOM      7  C   UNL     1      46.053   5.123  12.856  0.00  0.00    +0.000 A 
ATOM      8  N   UNL     1      45.836   3.842  13.269  0.00  0.00    +0.000 NA
ATOM      9  C   UNL     1      45.070   3.317  12.334  0.00  0.00    +0.000 A 
ATOM     10  N   UNL     1      44.772   4.219  11.341  0.00  0.00    +0.000 N 
ATOM     11  C   UNL     1      45.412   5.379  11.666  0.00  0.00    +0.000 A 
ATOM     12  C   UNL     1      45.462   6.675  10.946  0.00  0.00    +0.000 C 
ATOM     13  H   UNL     1      45.763  10.869  12.050  0.00  0.00    +0.000 HD
ATOM     14  H   UNL     1      43.858  10.027  11.979  0.00  0.00    +0.000 HD
ATOM     15  H   UNL     1      43.717   8.382  12.106  0.00  0.00    +0.000 HD
ENDROOT
BRANCH  10  16
ATOM     16  C   UNL     1      44.019   3.927  10.133  0.00  0.00    +0.000 C 
BRANCH  16  17
ATOM     17  C   UNL     1      44.821   3.151   9.116  0.00  0.00    +0.000 A 
ATOM     18  C   UNL     1      45.039   1.770   9.266  0.00  0.00    +0.000 A 
ATOM     19  C   UNL     1      45.831   1.067   8.354  0.00  0.00    +0.000 A 
ATOM     20  C   UNL     1      46.423   1.734   7.283  0.00  0.00    +0.000 A 
ATOM     21  C   UNL     1      46.213   3.102   7.123  0.00  0.00    +0.000 A 
ATOM     22 CL   UNL     1      46.951   3.929   5.808  0.00  0.00    +0.000 Cl
ATOM     23  C   UNL     1      45.419   3.809   8.030  0.00  0.00    +0.000 A 
ENDBRANCH  16  17
ENDBRANCH  10  16
TORSDOF 2
ENDMDL
MODEL 3
REMARK VINA RESULT:    -6.303      4.676      7.652
REMARK INTER + INTRA:          -7.419
REMARK INTER:                  -7.273
REMARK INTRA:                  -0.146
REMARK UNBOUND:                -0.379
REMARK  Name = 
REMARK  2 active torsions:
REMARK  status: ('A' for Active; 'I' for Inactive)
REMARK    1  A    between atoms: N_10  and  C_11
REMARK    2  A    between atoms: C_11  and  C_12
REMARK                            x       y       z     vdW  Elec       q    Type
REMARK                         _______ _______ _______ _____ _____    ______ ____
ROOT
ATOM      1  N   UNL     1      43.026   5.560  10.671  0.00  0.00    +0.000 NA
ATOM      2  C   UNL     1      43.547   5.473  11.842  0.00  0.00    +0.000 C 
ATOM      3  N   UNL     1      42.788   5.529  12.959  0.00  0.00    +0.000 N 
ATOM      4  N   UNL     1      44.883   5.403  12.077  0.00  0.00    +0.000 N 
ATOM      5  C   UNL     1      45.860   5.931  11.097  0.00  0.00    +0.000 C 
ATOM      6  C   UNL     1      46.784   6.972  11.781  0.00  0.00    +0.000 C 
ATOM      7  C   UNL     1      47.266   6.431  13.080  0.00  0.00    +0.000 A 
ATOM      8  N   UNL     1      48.323   6.898  13.803  0.00  0.00    +0.000 NA
ATOM      9  C   UNL     1      48.360   6.127  14.872  0.00  0.00    +0.000 A 
ATOM     10  N   UNL     1      47.355   5.190  14.871  0.00  0.00    +0.000 N 
ATOM     11  C   UNL     1      46.655   5.374  13.715  0.00  0.00    +0.000 A 
ATOM     12  C   UNL     1      45.485   4.636  13.179  0.00  0.00    +0.000 C 
ATOM     13  H   UNL     1      42.010   5.596  10.750  0.00  0.00    +0.000 HD
ATOM     14  H   UNL     1      41.855   5.888  12.808  0.00  0.00    +0.000 HD
ATOM     15  H   UNL     1      43.249   6.066  13.687  0.00  0.00    +0.000 HD
ENDROOT
BRANCH  10  16
ATOM     16  C   UNL     1      47.172   4.146  15.864  0.00  0.00    +0.000 C 
BRANCH  16  17
ATOM     17  C   UNL     1      47.939   4.411  17.138  0.00  0.00    +0.000 A 
ATOM     18  C   UNL     1      49.223   3.875  17.336  0.00  0.00    +0.000 A 
ATOM     19  C   UNL     1      49.905   4.074  18.540  0.00  0.00    +0.000 A 
ATOM     20  C   UNL     1      49.310   4.804  19.567  0.00  0.00    +0.000 A 
ATOM     21  C   UNL     1      48.038   5.342  19.382  0.00  0.00    +0.000 A 
ATOM     22 CL   UNL     1      47.298   6.235  20.652  0.00  0.00    +0.000 Cl
ATOM     23  C   UNL     1      47.353   5.149  18.179  0.00  0.00    +0.000 A 
ENDBRANCH  16  17
ENDBRANCH  10  16
TORSDOF 2
ENDMDL
MODEL 4
REMARK VINA RESULT:    -6.194      3.013      6.126
REMARK INTER + INTRA:          -7.297
REMARK INTER:                  -6.922
REMARK INTRA:                  -0.375
REMARK UNBOUND:                -0.379
REMARK  Name = 
REMARK  2 active torsions:
REMARK  status: ('A' for Active; 'I' for Inactive)
REMARK    1  A    between atoms: N_10  and  C_11
REMARK    2  A    between atoms: C_11  and  C_12
REMARK                            x       y       z     vdW  Elec       q    Type
REMARK                         _______ _______ _______ _____ _____    ______ ____
ROOT
ATOM      1  N   UNL     1      44.224   3.375   7.969  0.00  0.00    +0.000 NA
ATOM      2  C   UNL     1      45.000   4.113   8.680  0.00  0.00    +0.000 C 
ATOM      3  N   UNL     1      46.125   4.656   8.165  0.00  0.00    +0.000 N 
ATOM      4  N   UNL     1      44.821   4.349  10.005  0.00  0.00    +0.000 N 
ATOM      5  C   UNL     1      44.060   3.403  10.854  0.00  0.00    +0.000 C 
ATOM      6  C   UNL     1      44.935   2.946  12.051  0.00  0.00    +0.000 C 
ATOM      7  C   UNL     1      45.584   4.132  12.672  0.00  0.00    +0.000 A 
ATOM      8  N   UNL     1      46.155   4.180  13.910  0.00  0.00    +0.000 NA
ATOM      9  C   UNL     1      46.606   5.414  14.019  0.00  0.00    +0.000 A 
ATOM     10  N   UNL     1      46.361   6.158  12.889  0.00  0.00    +0.000 N 
ATOM     11  C   UNL     1      45.694   5.341  12.025  0.00  0.00    +0.000 A 
ATOM     12  C   UNL     1      45.160   5.618  10.668  0.00  0.00    +0.000 C 
ATOM     13  H   UNL     1      44.562   3.352   7.007  0.00  0.00    +0.000 HD
ATOM     14  H   UNL     1      46.424   4.241   7.294  0.00  0.00    +0.000 HD
ATOM     15  H   UNL     1      46.885   4.627   8.838  0.00  0.00    +0.000 HD
ENDROOT
BRANCH  10  16
ATOM     16  C   UNL     1      46.661   7.570  12.726  0.00  0.00    +0.000 C 
BRANCH  16  17
ATOM     17  C   UNL     1      48.139   7.868  12.821  0.00  0.00    +0.000 A 
ATOM     18  C   UNL     1      48.679   8.502  13.953  0.00  0.00    +0.000 A 
ATOM     19  C   UNL     1      50.036   8.829  14.012  0.00  0.00    +0.000 A 
ATOM     20  C   UNL     1      50.873   8.533  12.938  0.00  0.00    +0.000 A 
ATOM     21  C   UNL     1      50.351   7.903  11.811  0.00  0.00    +0.000 A 
ATOM     22 CL   UNL     1      51.379   7.545  10.480  0.00  0.00    +0.000 Cl
ATOM     23  C   UNL     1      48.994   7.570  11.748  0.00  0.00    +0.000 A 
ENDBRANCH  16  17
ENDBRANCH  10  16
TORSDOF 2
ENDMDL
MODEL 5
REMARK VINA RESULT:    -6.036      2.029      3.025
REMARK INTER + INTRA:          -7.121
REMARK INTER:                  -7.268
REMARK INTRA:                   0.147
REMARK UNBOUND:                -0.379
REMARK  Name = 
REMARK  2 active torsions:
REMARK  status: ('A' for Active; 'I' for Inactive)
REMARK    1  A    between atoms: N_10  and  C_11
REMARK    2  A    between atoms: C_11  and  C_12
REMARK                            x       y       z     vdW  Elec       q    Type
REMARK                         _______ _______ _______ _____ _____    ______ ____
ROOT
ATOM      1  N   UNL     1      49.800  10.548  13.589  0.00  0.00    +0.000 NA
ATOM      2  C   UNL     1      48.704   9.966  13.257  0.00  0.00    +0.000 C 
ATOM      3  N   UNL     1      47.543  10.650  13.153  0.00  0.00    +0.000 N 
ATOM      4  N   UNL     1      48.583   8.627  13.062  0.00  0.00    +0.000 N 
ATOM      5  C   UNL     1      49.520   7.674  13.699  0.00  0.00    +0.000 C 
ATOM      6  C   UNL     1      48.729   6.636  14.538  0.00  0.00    +0.000 C 
ATOM      7  C   UNL     1      47.587   6.119  13.738  0.00  0.00    +0.000 A 
ATOM      8  N   UNL     1      46.869   4.988  13.998  0.00  0.00    +0.000 NA
ATOM      9  C   UNL     1      45.962   4.945  13.043  0.00  0.00    +0.000 A 
ATOM     10  N   UNL     1      46.059   6.015  12.186  0.00  0.00    +0.000 N 
ATOM     11  C   UNL     1      47.109   6.767  12.622  0.00  0.00    +0.000 A 
ATOM     12  C   UNL     1      47.683   8.018  12.069  0.00  0.00    +0.000 C 
ATOM     13  H   UNL     1      49.642  11.552  13.674  0.00  0.00    +0.000 HD
ATOM     14  H   UNL     1      47.559  11.561  13.590  0.00  0.00    +0.000 HD
ATOM     15  H   UNL     1      46.766  10.108  13.518  0.00  0.00    +0.000 HD
ENDROOT
BRANCH  10  16
ATOM     16  C   UNL     1      45.259   6.214  10.990  0.00  0.00    +0.000 C 
BRANCH  16  17
ATOM     17  C   UNL     1      45.103   4.953  10.174  0.00  0.00    +0.000 A 
ATOM     18  C   UNL     1      44.363   3.862  10.661  0.00  0.00    +0.000 A 
ATOM     19  C   UNL     1      44.270   2.675   9.928  0.00  0.00    +0.000 A 
ATOM     20  C   UNL     1      44.920   2.559   8.701  0.00  0.00    +0.000 A 
ATOM     21  C   UNL     1      45.655   3.634   8.207  0.00  0.00    +0.000 A 
ATOM     22 CL   UNL     1      46.468   3.489   6.698  0.00  0.00    +0.000 Cl
ATOM     23  C   UNL     1      45.749   4.824   8.934  0.00  0.00    +0.000 A 
ENDBRANCH  16  17
ENDBRANCH  10  16
TORSDOF 2
ENDMDL
MODEL 6
REMARK VINA RESULT:    -5.968      3.661      5.886
REMARK INTER + INTRA:          -7.045
REMARK INTER:                  -6.743
REMARK INTRA:                  -0.302
REMARK UNBOUND:                -0.379
REMARK  Name = 
REMARK  2 active torsions:
REMARK  status: ('A' for Active; 'I' for Inactive)
REMARK    1  A    between atoms: N_10  and  C_11
REMARK    2  A    between atoms: C_11  and  C_12
REMARK                            x       y       z     vdW  Elec       q    Type
REMARK                         _______ _______ _______ _____ _____    ______ ____
ROOT
ATOM      1  N   UNL     1      48.767   3.999  19.905  0.00  0.00    +0.000 NA
ATOM      2  C   UNL     1      48.596   3.689  18.669  0.00  0.00    +0.000 C 
ATOM      3  N   UNL     1      48.999   2.497  18.177  0.00  0.00    +0.000 N 
ATOM      4  N   UNL     1      48.084   4.535  17.737  0.00  0.00    +0.000 N 
ATOM      5  C   UNL     1      48.162   6.003  17.913  0.00  0.00    +0.000 C 
ATOM      6  C   UNL     1      48.867   6.645  16.689  0.00  0.00    +0.000 C 
ATOM      7  C   UNL     1      48.294   6.084  15.436  0.00  0.00    +0.000 A 
ATOM      8  N   UNL     1      48.419   6.616  14.187  0.00  0.00    +0.000 NA
ATOM      9  C   UNL     1      47.769   5.778  13.404  0.00  0.00    +0.000 A 
ATOM     10  N   UNL     1      47.243   4.718  14.101  0.00  0.00    +0.000 N 
ATOM     11  C   UNL     1      47.568   4.916  15.411  0.00  0.00    +0.000 A 
ATOM     12  C   UNL     1      47.243   4.103  16.609  0.00  0.00    +0.000 C 
ATOM     13  H   UNL     1      49.161   3.202  20.405  0.00  0.00    +0.000 HD
ATOM     14  H   UNL     1      49.647   2.001  18.773  0.00  0.00    +0.000 HD
ATOM     15  H   UNL     1      49.397   2.601  17.249  0.00  0.00    +0.000 HD
ENDROOT
BRANCH  10  16
ATOM     16  C   UNL     1      46.407   3.669  13.542  0.00  0.00    +0.000 C 
BRANCH  16  17
ATOM     17  C   UNL     1      45.300   4.209  12.668  0.00  0.00    +0.000 A 
ATOM     18  C   UNL     1      44.209   4.898  13.223  0.00  0.00    +0.000 A 
ATOM     19  C   UNL     1      43.157   5.344  12.417  0.00  0.00    +0.000 A 
ATOM     20  C   UNL     1      43.177   5.101  11.046  0.00  0.00    +0.000 A 
ATOM     21  C   UNL     1      44.254   4.420  10.483  0.00  0.00    +0.000 A 
ATOM     22 CL   UNL     1      44.277   4.110   8.791  0.00  0.00    +0.000 Cl
ATOM     23  C   UNL     1      45.310   3.975  11.283  0.00  0.00    +0.000 A 
ENDBRANCH  16  17
ENDBRANCH  10  16
TORSDOF 2
ENDMDL
MODEL 7
REMARK VINA RESULT:    -5.784      3.737      6.174
REMARK INTER + INTRA:          -6.840
REMARK INTER:                  -6.563
REMARK INTRA:                  -0.276
REMARK UNBOUND:                -0.379
REMARK  Name = 
REMARK  2 active torsions:
REMARK  status: ('A' for Active; 'I' for Inactive)
REMARK    1  A    between atoms: N_10  and  C_11
REMARK    2  A    between atoms: C_11  and  C_12
REMARK                            x       y       z     vdW  Elec       q    Type
REMARK                         _______ _______ _______ _____ _____    ______ ____
ROOT
ATOM      1  N   UNL     1      43.933   4.152   9.105  0.00  0.00    +0.000 NA
ATOM      2  C   UNL     1      44.843   4.829   9.710  0.00  0.00    +0.000 C 
ATOM      3  N   UNL     1      45.799   5.496   9.026  0.00  0.00    +0.000 N 
ATOM      4  N   UNL     1      44.985   4.877  11.060  0.00  0.00    +0.000 N 
ATOM      5  C   UNL     1      44.472   3.786  11.921  0.00  0.00    +0.000 C 
ATOM      6  C   UNL     1      45.620   3.222  12.799  0.00  0.00    +0.000 C 
ATOM      7  C   UNL     1      46.376   4.347  13.411  0.00  0.00    +0.000 A 
ATOM      8  N   UNL     1      47.228   4.261  14.472  0.00  0.00    +0.000 NA
ATOM      9  C   UNL     1      47.668   5.491  14.645  0.00  0.00    +0.000 A 
ATOM     10  N   UNL     1      47.142   6.365  13.724  0.00  0.00    +0.000 N 
ATOM     11  C   UNL     1      46.301   5.636  12.935  0.00  0.00    +0.000 A 
ATOM     12  C   UNL     1      45.450   6.063  11.797  0.00  0.00    +0.000 C 
ATOM     13  H   UNL     1      44.028   4.276   8.098  0.00  0.00    +0.000 HD
ATOM     14  H   UNL     1      45.887   5.217   8.059  0.00  0.00    +0.000 HD
ATOM     15  H   UNL     1      46.700   5.418   9.488  0.00  0.00    +0.000 HD
ENDROOT
BRANCH  10  16
ATOM     16  C   UNL     1      47.365   7.800  13.696  0.00  0.00    +0.000 C 
BRANCH  16  17
ATOM     17  C   UNL     1      48.437   8.206  12.713  0.00  0.00    +0.000 A 
ATOM     18  C   UNL     1      49.494   7.336  12.392  0.00  0.00    +0.000 A 
ATOM     19  C   UNL     1      50.515   7.737  11.527  0.00  0.00    +0.000 A 
ATOM     20  C   UNL     1      50.500   9.016  10.974  0.00  0.00    +0.000 A 
ATOM     21  C   UNL     1      49.457   9.887  11.283  0.00  0.00    +0.000 A 
ATOM     22 CL   UNL     1      49.441  11.470  10.610  0.00  0.00    +0.000 Cl
ATOM     23  C   UNL     1      48.431   9.490  12.145  0.00  0.00    +0.000 A 
ENDBRANCH  16  17
ENDBRANCH  10  16
TORSDOF 2
ENDMDL
MODEL 8
REMARK VINA RESULT:    -5.755      3.804      7.024
REMARK INTER + INTRA:          -6.807
REMARK INTER:                  -6.376
REMARK INTRA:                  -0.431
REMARK UNBOUND:                -0.379
REMARK  Name = 
REMARK  2 active torsions:
REMARK  status: ('A' for Active; 'I' for Inactive)
REMARK    1  A    between atoms: N_10  and  C_11
REMARK    2  A    between atoms: C_11  and  C_12
REMARK                            x       y       z     vdW  Elec       q    Type
REMARK                         _______ _______ _______ _____ _____    ______ ____
ROOT
ATOM      1  N   UNL     1      42.943   3.596  11.324  0.00  0.00    +0.000 NA
ATOM      2  C   UNL     1      43.817   4.035  12.158  0.00  0.00    +0.000 C 
ATOM      3  N   UNL     1      43.942   3.504  13.394  0.00  0.00    +0.000 N 
ATOM      4  N   UNL     1      44.625   5.100  11.923  0.00  0.00    +0.000 N 
ATOM      5  C   UNL     1      44.242   6.151  10.952  0.00  0.00    +0.000 C 
ATOM      6  C   UNL     1      44.249   7.539  11.644  0.00  0.00    +0.000 C 
ATOM      7  C   UNL     1      45.499   7.691  12.437  0.00  0.00    +0.000 A 
ATOM      8  N   UNL     1      46.011   8.862  12.913  0.00  0.00    +0.000 NA
ATOM      9  C   UNL     1      47.105   8.507  13.558  0.00  0.00    +0.000 A 
ATOM     10  N   UNL     1      47.307   7.148  13.527  0.00  0.00    +0.000 N 
ATOM     11  C   UNL     1      46.283   6.620  12.798  0.00  0.00    +0.000 A 
ATOM     12  C   UNL     1      46.006   5.212  12.422  0.00  0.00    +0.000 C 
ATOM     13  H   UNL     1      42.464   2.790  11.723  0.00  0.00    +0.000 HD
ATOM     14  H   UNL     1      43.156   2.937  13.683  0.00  0.00    +0.000 HD
ATOM     15  H   UNL     1      44.117   4.226  14.086  0.00  0.00    +0.000 HD
ENDROOT
BRANCH  10  16
ATOM     16  C   UNL     1      48.460   6.453  14.074  0.00  0.00    +0.000 C 
BRANCH  16  17
ATOM     17  C   UNL     1      48.283   6.080  15.527  0.00  0.00    +0.000 A 
ATOM     18  C   UNL     1      48.675   6.957  16.553  0.00  0.00    +0.000 A 
ATOM     19  C   UNL     1      48.563   6.584  17.896  0.00  0.00    +0.000 A 
ATOM     20  C   UNL     1      48.065   5.328  18.232  0.00  0.00    +0.000 A 
ATOM     21  C   UNL     1      47.671   4.450  17.224  0.00  0.00    +0.000 A 
ATOM     22 CL   UNL     1      47.064   2.895  17.637  0.00  0.00    +0.000 Cl
ATOM     23  C   UNL     1      47.777   4.819  15.880  0.00  0.00    +0.000 A 
ENDBRANCH  16  17
ENDBRANCH  10  16
TORSDOF 2
ENDMDL
MODEL 9
REMARK VINA RESULT:    -5.592      4.239      7.487
REMARK INTER + INTRA:          -6.625
REMARK INTER:                  -6.199
REMARK INTRA:                  -0.426
REMARK UNBOUND:                -0.379
REMARK  Name = 
REMARK  2 active torsions:
REMARK  status: ('A' for Active; 'I' for Inactive)
REMARK    1  A    between atoms: N_10  and  C_11
REMARK    2  A    between atoms: C_11  and  C_12
REMARK                            x       y       z     vdW  Elec       q    Type
REMARK                         _______ _______ _______ _____ _____    ______ ____
ROOT
ATOM      1  N   UNL     1      45.217   2.835  12.539  0.00  0.00    +0.000 NA
ATOM      2  C   UNL     1      45.790   3.918  12.926  0.00  0.00    +0.000 C 
ATOM      3  N   UNL     1      46.371   4.013  14.143  0.00  0.00    +0.000 N 
ATOM      4  N   UNL     1      45.800   5.071  12.210  0.00  0.00    +0.000 N 
ATOM      5  C   UNL     1      44.751   5.355  11.204  0.00  0.00    +0.000 C 
ATOM      6  C   UNL     1      44.060   6.706  11.526  0.00  0.00    +0.000 C 
ATOM      7  C   UNL     1      45.095   7.735  11.819  0.00  0.00    +0.000 A 
ATOM      8  N   UNL     1      44.906   9.085  11.829  0.00  0.00    +0.000 NA
ATOM      9  C   UNL     1      46.084   9.582  12.151  0.00  0.00    +0.000 A 
ATOM     10  N   UNL     1      47.021   8.600  12.363  0.00  0.00    +0.000 N 
ATOM     11  C   UNL     1      46.393   7.410  12.140  0.00  0.00    +0.000 A 
ATOM     12  C   UNL     1      46.921   6.025  12.201  0.00  0.00    +0.000 C 
ATOM     13  H   UNL     1      45.348   2.108  13.241  0.00  0.00    +0.000 HD
ATOM     14  H   UNL     1      46.101   3.284  14.788  0.00  0.00    +0.000 HD
ATOM     15  H   UNL     1      46.197   4.922  14.560  0.00  0.00    +0.000 HD
ENDROOT
BRANCH  10  16
ATOM     16  C   UNL     1      48.427   8.822  12.652  0.00  0.00    +0.000 C 
BRANCH  16  17
ATOM     17  C   UNL     1      48.796   8.462  14.073  0.00  0.00    +0.000 A 
ATOM     18  C   UNL     1      49.677   7.403  14.347  0.00  0.00    +0.000 A 
ATOM     19  C   UNL     1      49.970   7.036  15.663  0.00  0.00    +0.000 A 
ATOM     20  C   UNL     1      49.380   7.719  16.726  0.00  0.00    +0.000 A 
ATOM     21  C   UNL     1      48.506   8.772  16.467  0.00  0.00    +0.000 A 
ATOM     22 CL   UNL     1      47.769   9.609  17.776  0.00  0.00    +0.000 Cl
ATOM     23  C   UNL     1      48.213   9.145  15.152  0.00  0.00    +0.000 A 
ENDBRANCH  16  17
ENDBRANCH  10  16
TORSDOF 2
ENDMDL
