MODEL 1
REMARK VINA RESULT:    -6.666      0.000      0.000
REMARK INTER + INTRA:          -9.313
REMARK INTER:                  -8.614
REMARK INTRA:                  -0.699
REMARK UNBOUND:                -0.699
REMARK  Name = 
REMARK  5 active torsions:
REMARK  status: ('A' for Active; 'I' for Inactive)
REMARK    1  A    between atoms: C_2  and  C_3
REMARK    2  A    between atoms: C_6  and  C_7
REMARK    3  A    between atoms: C_11  and  C_12
REMARK    4  A    between atoms: C_12  and  N_13
REMARK    5  A    between atoms: C_17  and  C_18
REMARK                            x       y       z     vdW  Elec       q    Type
REMARK                         _______ _______ _______ _____ _____    ______ ____
ROOT
ATOM      1  C   UNL     1      49.429   7.224  17.259  0.00  0.00    +0.000 C 
ATOM      2  C   UNL     1      48.165   7.535  18.043  0.00  0.00    +0.000 C 
ATOM      3  C   UNL     1      49.142   8.632  17.782  0.00  0.00    +0.000 C 
ENDROOT
BRANCH   1   4
ATOM      4  N   UNL     1      50.618   6.582  17.869  0.00  0.00    +0.000 N 
ATOM      5  C   UNL     1      50.961   5.240  17.689  0.00  0.00    +0.000 A 
ATOM      6  C   UNL     1      50.037   4.203  17.744  0.00  0.00    +0.000 A 
ATOM      7  C   UNL     1      50.483   2.878  17.741  0.00  0.00    +0.000 A 
ATOM      8  C   UNL     1      51.849   2.618  17.665  0.00  0.00    +0.000 A 
ATOM      9  C   UNL     1      52.704   3.706  17.586  0.00  0.00    +0.000 A 
ATOM     10  N   UNL     1      52.286   4.999  17.593  0.00  0.00    +0.000 NA
ATOM     11  H   UNL     1      51.488   7.101  17.750  0.00  0.00    +0.000 HD
BRANCH   8  12
ATOM     12  C   UNL     1      52.422   1.257  17.725  0.00  0.00    +0.000 C 
ATOM     13  N   UNL     1      51.594   0.238  18.106  0.00  0.00    +0.000 N 
ATOM     14  O   UNL     1      53.590   1.043  17.430  0.00  0.00    +0.000 OA
ATOM     15  H   UNL     1      50.590   0.328  18.161  0.00  0.00    +0.000 HD
ATOM     16  H   UNL     1      51.980  -0.697  18.074  0.00  0.00    +0.000 HD
ENDBRANCH   8  12
ENDBRANCH   1   4
BRANCH   1  21
ATOM     17  C   UNL     1      48.189   6.211  13.930  0.00  0.00    +0.000 A 
ATOM     18  N   UNL     1      49.032   6.787  13.071  0.00  0.00    +0.000 NA
ATOM     19  C   UNL     1      50.013   7.475  13.640  0.00  0.00    +0.000 A 
ATOM     20  N   UNL     1      50.202   7.624  14.944  0.00  0.00    +0.000 NA
ATOM     21  C   UNL     1      49.297   7.027  15.733  0.00  0.00    +0.000 A 
ATOM     22  N   UNL     1      48.273   6.305  15.259  0.00  0.00    +0.000 NA
BRANCH  17  26
ATOM     23  C   UNL     1      45.000   3.892  12.365  0.00  0.00    +0.000 A 
ATOM     24  C   UNL     1      45.160   5.183  11.886  0.00  0.00    +0.000 A 
ATOM     25  C   UNL     1      46.208   5.952  12.394  0.00  0.00    +0.000 A 
ATOM     26  C   UNL     1      47.078   5.431  13.367  0.00  0.00    +0.000 A 
ATOM     27  C   UNL     1      46.820   4.120  13.769  0.00  0.00    +0.000 A 
ATOM     28  N   UNL     1      45.811   3.341  13.299  0.00  0.00    +0.000 NA
BRANCH  23  30
ATOM     29  N   UNL     1      43.073   2.406  11.447  0.00  0.00    +0.000 NA
ATOM     30  C   UNL     1      43.938   3.057  11.878  0.00  0.00    +0.000 C 
ENDBRANCH  23  30
ENDBRANCH  17  26
ENDBRANCH   1  21
TORSDOF 5
ENDMDL
MODEL 2
REMARK VINA RESULT:    -6.222      4.834      6.793
REMARK INTER + INTRA:          -8.740
REMARK INTER:                  -8.904
REMARK INTRA:                   0.163
REMARK UNBOUND:                -0.699
REMARK  Name = 
REMARK  5 active torsions:
REMARK  status: ('A' for Active; 'I' for Inactive)
REMARK    1  A    between atoms: C_2  and  C_3
REMARK    2  A    between atoms: C_6  and  C_7
REMARK    3  A    between atoms: C_11  and  C_12
REMARK    4  A    between atoms: C_12  and  N_13
REMARK    5  A    between atoms: C_17  and  C_18
REMARK                            x       y       z     vdW  Elec       q    Type
REMARK                         _______ _______ _______ _____ _____    ______ ____
ROOT
ATOM      1  C   UNL     1      45.292   7.951  12.432  0.00  0.00    +0.000 C 
ATOM      2  C   UNL     1      44.466   9.211  12.628  0.00  0.00    +0.000 C 
ATOM      3  C   UNL     1      45.509   9.189  11.561  0.00  0.00    +0.000 C 
ENDROOT
BRANCH   1   4
ATOM      4  N   UNL     1      46.450   7.604  13.290  0.00  0.00    +0.000 N 
ATOM      5  C   UNL     1      47.779   7.882  12.961  0.00  0.00    +0.000 A 
ATOM      6  C   UNL     1      48.310   7.671  11.693  0.00  0.00    +0.000 A 
ATOM      7  C   UNL     1      49.688   7.794  11.492  0.00  0.00    +0.000 A 
ATOM      8  C   UNL     1      50.506   8.145  12.563  0.00  0.00    +0.000 A 
ATOM      9  C   UNL     1      49.896   8.364  13.788  0.00  0.00    +0.000 A 
ATOM     10  N   UNL     1      48.559   8.243  14.002  0.00  0.00    +0.000 NA
ATOM     11  H   UNL     1      46.351   7.880  14.268  0.00  0.00    +0.000 HD
BRANCH   8  12
ATOM     12  C   UNL     1      51.978   8.233  12.467  0.00  0.00    +0.000 C 
ATOM     13  N   UNL     1      52.699   8.041  13.613  0.00  0.00    +0.000 N 
ATOM     14  O   UNL     1      52.536   8.453  11.400  0.00  0.00    +0.000 OA
ATOM     15  H   UNL     1      52.305   7.663  14.461  0.00  0.00    +0.000 HD
ATOM     16  H   UNL     1      53.707   8.034  13.519  0.00  0.00    +0.000 HD
ENDBRANCH   8  12
ENDBRANCH   1   4
BRANCH   1  21
ATOM     17  C   UNL     1      44.669   5.006  10.291  0.00  0.00    +0.000 A 
ATOM     18  N   UNL     1      43.445   4.599  10.631  0.00  0.00    +0.000 NA
ATOM     19  C   UNL     1      42.852   5.348  11.551  0.00  0.00    +0.000 A 
ATOM     20  N   UNL     1      43.371   6.423  12.130  0.00  0.00    +0.000 NA
ATOM     21  C   UNL     1      44.612   6.748  11.742  0.00  0.00    +0.000 A 
ATOM     22  N   UNL     1      45.295   6.061  10.817  0.00  0.00    +0.000 NA
BRANCH  17  26
ATOM     23  C   UNL     1      46.772   2.817   7.326  0.00  0.00    +0.000 A 
ATOM     24  C   UNL     1      46.028   2.104   8.255  0.00  0.00    +0.000 A 
ATOM     25  C   UNL     1      45.332   2.817   9.231  0.00  0.00    +0.000 A 
ATOM     26  C   UNL     1      45.384   4.221   9.275  0.00  0.00    +0.000 A 
ATOM     27  C   UNL     1      46.162   4.827   8.288  0.00  0.00    +0.000 A 
ATOM     28  N   UNL     1      46.854   4.169   7.322  0.00  0.00    +0.000 NA
BRANCH  23  30
ATOM     29  N   UNL     1      48.116   1.622   5.448  0.00  0.00    +0.000 NA
ATOM     30  C   UNL     1      47.510   2.135   6.300  0.00  0.00    +0.000 C 
ENDBRANCH  23  30
ENDBRANCH  17  26
ENDBRANCH   1  21
TORSDOF 5
ENDMDL
MODEL 3
REMARK VINA RESULT:    -6.169      2.914      7.751
REMARK INTER + INTRA:          -8.671
REMARK INTER:                  -8.496
REMARK INTRA:                  -0.175
REMARK UNBOUND:                -0.699
REMARK  Name = 
REMARK  5 active torsions:
REMARK  status: ('A' for Active; 'I' for Inactive)
REMARK    1  A    between atoms: C_2  and  C_3
REMARK    2  A    between atoms: C_6  and  C_7
REMARK    3  A    between atoms: C_11  and  C_12
REMARK    4  A    between atoms: C_12  and  N_13
REMARK    5  A    between atoms: C_17  and  C_18
REMARK                            x       y       z     vdW  Elec       q    Type
REMARK                         _______ _______ _______ _____ _____    ______ ____
ROOT
ATOM      1  C   UNL     1      48.267   7.933  13.941  0.00  0.00    +0.000 C 
ATOM      2  C   UNL     1      49.341   7.814  12.873  0.00  0.00    +0.000 C 
ATOM      3  C   UNL     1      48.972   9.169  13.379  0.00  0.00    +0.000 C 
ENDROOT
BRANCH   1   4
ATOM      4  N   UNL     1      46.817   7.873  13.637  0.00  0.00    +0.000 N 
ATOM      5  C   UNL     1      46.226   6.893  12.835  0.00  0.00    +0.000 A 
ATOM      6  C   UNL     1      46.773   6.462  11.632  0.00  0.00    +0.000 A 
ATOM      7  C   UNL     1      46.031   5.619  10.798  0.00  0.00    +0.000 A 
ATOM      8  C   UNL     1      44.761   5.210  11.197  0.00  0.00    +0.000 A 
ATOM      9  C   UNL     1      44.299   5.662  12.423  0.00  0.00    +0.000 A 
ATOM     10  N   UNL     1      45.005   6.486  13.242  0.00  0.00    +0.000 NA
ATOM     11  H   UNL     1      46.208   7.957  14.452  0.00  0.00    +0.000 HD
BRANCH   8  12
ATOM     12  C   UNL     1      43.875   4.378  10.357  0.00  0.00    +0.000 C 
ATOM     13  N   UNL     1      43.915   4.576   9.005  0.00  0.00    +0.000 N 
ATOM     14  O   UNL     1      43.141   3.531  10.848  0.00  0.00    +0.000 OA
ATOM     15  H   UNL     1      44.636   5.110   8.542  0.00  0.00    +0.000 HD
ATOM     16  H   UNL     1      43.356   3.951   8.437  0.00  0.00    +0.000 HD
ENDBRANCH   8  12
ENDBRANCH   1   4
BRANCH   1  21
ATOM     17  C   UNL     1      49.595   6.100  16.860  0.00  0.00    +0.000 A 
ATOM     18  N   UNL     1      49.380   6.917  17.893  0.00  0.00    +0.000 NA
ATOM     19  C   UNL     1      48.765   8.049  17.580  0.00  0.00    +0.000 A 
ATOM     20  N   UNL     1      48.370   8.409  16.366  0.00  0.00    +0.000 NA
ATOM     21  C   UNL     1      48.644   7.537  15.385  0.00  0.00    +0.000 A 
ATOM     22  N   UNL     1      49.255   6.364  15.596  0.00  0.00    +0.000 NA
BRANCH  17  26
ATOM     23  C   UNL     1      51.627   2.467  17.678  0.00  0.00    +0.000 A 
ATOM     24  C   UNL     1      50.269   2.404  17.407  0.00  0.00    +0.000 A 
ATOM     25  C   UNL     1      49.593   3.594  17.135  0.00  0.00    +0.000 A 
ATOM     26  C   UNL     1      50.272   4.825  17.136  0.00  0.00    +0.000 A 
ATOM     27  C   UNL     1      51.637   4.762  17.419  0.00  0.00    +0.000 A 
ATOM     28  N   UNL     1      52.329   3.624  17.689  0.00  0.00    +0.000 NA
BRANCH  23  30
ATOM     29  N   UNL     1      52.938   0.282  18.199  0.00  0.00    +0.000 NA
ATOM     30  C   UNL     1      52.372   1.273  17.966  0.00  0.00    +0.000 C 
ENDBRANCH  23  30
ENDBRANCH  17  26
ENDBRANCH   1  21
TORSDOF 5
ENDMDL
MODEL 4
REMARK VINA RESULT:    -6.060      2.941      4.147
REMARK INTER + INTRA:          -8.530
REMARK INTER:                  -7.923
REMARK INTRA:                  -0.607
REMARK UNBOUND:                -0.699
REMARK  Name = 
REMARK  5 active torsions:
REMARK  status: ('A' for Active; 'I' for Inactive)
REMARK    1  A    between atoms: C_2  and  C_3
REMARK    2  A    between atoms: C_6  and  C_7
REMARK    3  A    between atoms: C_11  and  C_12
REMARK    4  A    between atoms: C_12  and  N_13
REMARK    5  A    between atoms: C_17  and  C_18
REMARK                            x       y       z     vdW  Elec       q    Type
REMARK                         _______ _______ _______ _____ _____    ______ ____
ROOT
ATOM      1  C   UNL     1      50.263   8.407  13.381  0.00  0.00    +0.000 C 
ATOM      2  C   UNL     1      51.165   9.613  13.176  0.00  0.00    +0.000 C 
ATOM      3  C   UNL     1      51.309   8.439  12.266  0.00  0.00    +0.000 C 
ENDROOT
BRANCH   1   4
ATOM      4  N   UNL     1      50.515   7.379  14.419  0.00  0.00    +0.000 N 
ATOM      5  C   UNL     1      49.712   7.191  15.546  0.00  0.00    +0.000 A 
ATOM      6  C   UNL     1      49.225   8.240  16.318  0.00  0.00    +0.000 A 
ATOM      7  C   UNL     1      48.588   7.967  17.532  0.00  0.00    +0.000 A 
ATOM      8  C   UNL     1      48.434   6.645  17.940  0.00  0.00    +0.000 A 
ATOM      9  C   UNL     1      48.923   5.656  17.101  0.00  0.00    +0.000 A 
ATOM     10  N   UNL     1      49.550   5.905  15.921  0.00  0.00    +0.000 NA
ATOM     11  H   UNL     1      50.691   6.442  14.054  0.00  0.00    +0.000 HD
BRANCH   8  12
ATOM     12  C   UNL     1      47.837   6.258  19.235  0.00  0.00    +0.000 C 
ATOM     13  N   UNL     1      46.659   5.565  19.207  0.00  0.00    +0.000 N 
ATOM     14  O   UNL     1      48.383   6.531  20.296  0.00  0.00    +0.000 OA
ATOM     15  H   UNL     1      46.280   5.145  18.371  0.00  0.00    +0.000 HD
ATOM     16  H   UNL     1      46.299   5.245  20.098  0.00  0.00    +0.000 HD
ENDBRANCH   8  12
ENDBRANCH   1   4
BRANCH   1  21
ATOM     17  C   UNL     1      46.794   7.585  12.413  0.00  0.00    +0.000 A 
ATOM     18  N   UNL     1      46.204   8.770  12.250  0.00  0.00    +0.000 NA
ATOM     19  C   UNL     1      47.001   9.813  12.440  0.00  0.00    +0.000 A 
ATOM     20  N   UNL     1      48.285   9.759  12.769  0.00  0.00    +0.000 NA
ATOM     21  C   UNL     1      48.791   8.528  12.932  0.00  0.00    +0.000 A 
ATOM     22  N   UNL     1      48.073   7.411  12.758  0.00  0.00    +0.000 NA
BRANCH  17  26
ATOM     23  C   UNL     1      44.422   4.100  11.933  0.00  0.00    +0.000 A 
ATOM     24  C   UNL     1      44.515   4.976  10.861  0.00  0.00    +0.000 A 
ATOM     25  C   UNL     1      45.295   6.123  11.010  0.00  0.00    +0.000 A 
ATOM     26  C   UNL     1      45.968   6.385  12.216  0.00  0.00    +0.000 A 
ATOM     27  C   UNL     1      45.801   5.432  13.221  0.00  0.00    +0.000 A 
ATOM     28  N   UNL     1      45.051   4.305  13.114  0.00  0.00    +0.000 NA
BRANCH  23  30
ATOM     29  N   UNL     1      42.987   1.936  11.800  0.00  0.00    +0.000 NA
ATOM     30  C   UNL     1      43.632   2.905  11.835  0.00  0.00    +0.000 C 
ENDBRANCH  23  30
ENDBRANCH  17  26
ENDBRANCH   1  21
TORSDOF 5
ENDMDL
MODEL 5
REMARK VINA RESULT:    -5.894      4.533      7.003
REMARK INTER + INTRA:          -8.316
REMARK INTER:                  -7.744
REMARK INTRA:                  -0.571
REMARK UNBOUND:                -0.699
REMARK  Name = 
REMARK  5 active torsions:
REMARK  status: ('A' for Active; 'I' for Inactive)
REMARK    1  A    between atoms: C_2  and  C_3
REMARK    2  A    between atoms: C_6  and  C_7
REMARK    3  A    between atoms: C_11  and  C_12
REMARK    4  A    between atoms: C_12  and  N_13
REMARK    5  A    between atoms: C_17  and  C_18
REMARK                            x       y       z     vdW  Elec       q    Type
REMARK                         _______ _______ _______ _____ _____    ______ ____
ROOT
ATOM      1  C   UNL     1      46.734   4.904  14.426  0.00  0.00    +0.000 C 
ATOM      2  C   UNL     1      47.567   3.672  14.737  0.00  0.00    +0.000 C 
ATOM      3  C   UNL     1      46.496   4.080  15.692  0.00  0.00    +0.000 C 
ENDROOT
BRANCH   1   4
ATOM      4  N   UNL     1      47.211   6.285  14.681  0.00  0.00    +0.000 N 
ATOM      5  C   UNL     1      47.680   7.147  13.688  0.00  0.00    +0.000 A 
ATOM      6  C   UNL     1      48.546   6.745  12.677  0.00  0.00    +0.000 A 
ATOM      7  C   UNL     1      49.117   7.704  11.834  0.00  0.00    +0.000 A 
ATOM      8  C   UNL     1      48.793   9.047  12.010  0.00  0.00    +0.000 A 
ATOM      9  C   UNL     1      47.902   9.363  13.023  0.00  0.00    +0.000 A 
ATOM     10  N   UNL     1      47.343   8.443  13.854  0.00  0.00    +0.000 NA
ATOM     11  H   UNL     1      46.585   6.850  15.256  0.00  0.00    +0.000 HD
BRANCH   8  12
ATOM     12  C   UNL     1      49.396  10.139  11.218  0.00  0.00    +0.000 C 
ATOM     13  N   UNL     1      50.736  10.065  10.955  0.00  0.00    +0.000 N 
ATOM     14  O   UNL     1      48.721  11.068  10.795  0.00  0.00    +0.000 OA
ATOM     15  H   UNL     1      51.287   9.233  11.104  0.00  0.00    +0.000 HD
ATOM     16  H   UNL     1      51.121  10.782  10.352  0.00  0.00    +0.000 HD
ENDBRANCH   8  12
ENDBRANCH   1   4
BRANCH   1  21
ATOM     17  C   UNL     1      45.043   4.282  11.201  0.00  0.00    +0.000 A 
ATOM     18  N   UNL     1      43.749   4.481  11.459  0.00  0.00    +0.000 NA
ATOM     19  C   UNL     1      43.487   4.851  12.705  0.00  0.00    +0.000 A 
ATOM     20  N   UNL     1      44.383   5.025  13.669  0.00  0.00    +0.000 NA
ATOM     21  C   UNL     1      45.656   4.783  13.326  0.00  0.00    +0.000 A 
ATOM     22  N   UNL     1      46.027   4.412  12.094  0.00  0.00    +0.000 NA
BRANCH  17  26
ATOM     23  C   UNL     1      46.114   3.184   7.245  0.00  0.00    +0.000 A 
ATOM     24  C   UNL     1      45.708   2.180   8.111  0.00  0.00    +0.000 A 
ATOM     25  C   UNL     1      45.352   2.533   9.413  0.00  0.00    +0.000 A 
ATOM     26  C   UNL     1      45.404   3.872   9.837  0.00  0.00    +0.000 A 
ATOM     27  C   UNL     1      45.826   4.793   8.878  0.00  0.00    +0.000 A 
ATOM     28  N   UNL     1      46.180   4.489   7.602  0.00  0.00    +0.000 NA
BRANCH  23  30
ATOM     29  N   UNL     1      46.843   2.631   4.812  0.00  0.00    +0.000 NA
ATOM     30  C   UNL     1      46.493   2.878   5.894  0.00  0.00    +0.000 C 
ENDBRANCH  23  30
ENDBRANCH  17  26
ENDBRANCH   1  21
TORSDOF 5
ENDMDL
MODEL 6
REMARK VINA RESULT:    -5.326      3.505      7.315
REMARK INTER + INTRA:          -7.582
REMARK INTER:                  -7.983
REMARK INTRA:                   0.401
REMARK UNBOUND:                -0.699
REMARK  Name = 
REMARK  5 active torsions:
REMARK  status: ('A' for Active; 'I' for Inactive)
REMARK    1  A    between atoms: C_2  and  C_3
REMARK    2  A    between atoms: C_6  and  C_7
REMARK    3  A    between atoms: C_11  and  C_12
REMARK    4  A    between atoms: C_12  and  N_13
REMARK    5  A    between atoms: C_17  and  C_18
REMARK                            x       y       z     vdW  Elec       q    Type
REMARK                         _______ _______ _______ _____ _____    ______ ____
ROOT
ATOM      1  C   UNL     1      47.430   4.284  16.178  0.00  0.00    +0.000 C 
ATOM      2  C   UNL     1      47.644   3.226  17.248  0.00  0.00    +0.000 C 
ATOM      3  C   UNL     1      48.173   2.983  15.873  0.00  0.00    +0.000 C 
ENDROOT
BRANCH   1   4
ATOM      4  N   UNL     1      46.152   4.440  15.442  0.00  0.00    +0.000 N 
ATOM      5  C   UNL     1      46.057   4.541  14.052  0.00  0.00    +0.000 A 
ATOM      6  C   UNL     1      46.908   5.330  13.286  0.00  0.00    +0.000 A 
ATOM      7  C   UNL     1      46.633   5.527  11.930  0.00  0.00    +0.000 A 
ATOM      8  C   UNL     1      45.520   4.913  11.362  0.00  0.00    +0.000 A 
ATOM      9  C   UNL     1      44.737   4.120  12.187  0.00  0.00    +0.000 A 
ATOM     10  N   UNL     1      44.987   3.923  13.509  0.00  0.00    +0.000 NA
ATOM     11  H   UNL     1      45.423   3.780  15.715  0.00  0.00    +0.000 HD
BRANCH   8  12
ATOM     12  C   UNL     1      45.107   5.114   9.958  0.00  0.00    +0.000 C 
ATOM     13  N   UNL     1      43.811   4.826   9.631  0.00  0.00    +0.000 N 
ATOM     14  O   UNL     1      45.889   5.538   9.118  0.00  0.00    +0.000 OA
ATOM     15  H   UNL     1      43.087   4.671  10.317  0.00  0.00    +0.000 HD
ATOM     16  H   UNL     1      43.524   5.036   8.683  0.00  0.00    +0.000 HD
ENDBRANCH   8  12
ENDBRANCH   1   4
BRANCH   1  21
ATOM     17  C   UNL     1      49.530   7.173  15.235  0.00  0.00    +0.000 A 
ATOM     18  N   UNL     1      49.719   7.835  16.378  0.00  0.00    +0.000 NA
ATOM     19  C   UNL     1      49.160   7.271  17.440  0.00  0.00    +0.000 A 
ATOM     20  N   UNL     1      48.455   6.148  17.442  0.00  0.00    +0.000 NA
ATOM     21  C   UNL     1      48.298   5.560  16.247  0.00  0.00    +0.000 A 
ATOM     22  N   UNL     1      48.828   6.044  15.116  0.00  0.00    +0.000 NA
BRANCH  17  26
ATOM     23  C   UNL     1      51.318   8.852  11.773  0.00  0.00    +0.000 A 
ATOM     24  C   UNL     1      50.223   8.019  11.600  0.00  0.00    +0.000 A 
ATOM     25  C   UNL     1      49.628   7.465  12.733  0.00  0.00    +0.000 A 
ATOM     26  C   UNL     1      50.126   7.742  14.018  0.00  0.00    +0.000 A 
ATOM     27  C   UNL     1      51.229   8.595  14.067  0.00  0.00    +0.000 A 
ATOM     28  N   UNL     1      51.835   9.154  12.988  0.00  0.00    +0.000 NA
BRANCH  23  30
ATOM     29  N   UNL     1      52.533   9.905   9.729  0.00  0.00    +0.000 NA
ATOM     30  C   UNL     1      51.970   9.449  10.641  0.00  0.00    +0.000 C 
ENDBRANCH  23  30
ENDBRANCH  17  26
ENDBRANCH   1  21
TORSDOF 5
ENDMDL
MODEL 7
REMARK VINA RESULT:    -5.265      3.791      6.327
REMARK INTER + INTRA:          -7.503
REMARK INTER:                  -7.086
REMARK INTRA:                  -0.417
REMARK UNBOUND:                -0.699
REMARK  Name = 
REMARK  5 active torsions:
REMARK  status: ('A' for Active; 'I' for Inactive)
REMARK    1  A    between atoms: C_2  and  C_3
REMARK    2  A    between atoms: C_6  and  C_7
REMARK    3  A    between atoms: C_11  and  C_12
REMARK    4  A    between atoms: C_12  and  N_13
REMARK    5  A    between atoms: C_17  and  C_18
REMARK                            x       y       z     vdW  Elec       q    Type
REMARK                         _______ _______ _______ _____ _____    ______ ____
ROOT
ATOM      1  C   UNL     1      45.648   8.230  12.095  0.00  0.00    +0.000 C 
ATOM      2  C   UNL     1      44.773   9.194  12.879  0.00  0.00    +0.000 C 
ATOM      3  C   UNL     1      45.033   9.465  11.435  0.00  0.00    +0.000 C 
ENDROOT
BRANCH   1   4
ATOM      4  N   UNL     1      47.129   8.251  12.158  0.00  0.00    +0.000 N 
ATOM      5  C   UNL     1      47.863   8.123  13.339  0.00  0.00    +0.000 A 
ATOM      6  C   UNL     1      47.533   8.786  14.517  0.00  0.00    +0.000 A 
ATOM      7  C   UNL     1      48.419   8.756  15.598  0.00  0.00    +0.000 A 
ATOM      8  C   UNL     1      49.612   8.046  15.484  0.00  0.00    +0.000 A 
ATOM      9  C   UNL     1      49.854   7.392  14.287  0.00  0.00    +0.000 A 
ATOM     10  N   UNL     1      49.006   7.415  13.225  0.00  0.00    +0.000 NA
ATOM     11  H   UNL     1      47.591   7.638  11.486  0.00  0.00    +0.000 HD
BRANCH   8  12
ATOM     12  C   UNL     1      50.641   8.012  16.543  0.00  0.00    +0.000 C 
ATOM     13  N   UNL     1      51.887   8.481  16.230  0.00  0.00    +0.000 N 
ATOM     14  O   UNL     1      50.389   7.596  17.666  0.00  0.00    +0.000 OA
ATOM     15  H   UNL     1      52.088   9.013  15.396  0.00  0.00    +0.000 HD
ATOM     16  H   UNL     1      52.562   8.517  16.984  0.00  0.00    +0.000 HD
ENDBRANCH   8  12
ENDBRANCH   1   4
BRANCH   1  21
ATOM     17  C   UNL     1      45.030   5.005  10.403  0.00  0.00    +0.000 A 
ATOM     18  N   UNL     1      44.014   4.464  11.077  0.00  0.00    +0.000 NA
ATOM     19  C   UNL     1      43.545   5.217  12.063  0.00  0.00    +0.000 A 
ATOM     20  N   UNL     1      43.999   6.414  12.410  0.00  0.00    +0.000 NA
ATOM     21  C   UNL     1      45.035   6.871  11.692  0.00  0.00    +0.000 A 
ATOM     22  N   UNL     1      45.577   6.193  10.672  0.00  0.00    +0.000 NA
BRANCH  17  26
ATOM     23  C   UNL     1      46.709   2.828   7.171  0.00  0.00    +0.000 A 
ATOM     24  C   UNL     1      46.028   2.118   8.148  0.00  0.00    +0.000 A 
ATOM     25  C   UNL     1      45.471   2.827   9.213  0.00  0.00    +0.000 A 
ATOM     26  C   UNL     1      45.598   4.224   9.294  0.00  0.00    +0.000 A 
ATOM     27  C   UNL     1      46.302   4.828   8.253  0.00  0.00    +0.000 A 
ATOM     28  N   UNL     1      46.858   4.173   7.200  0.00  0.00    +0.000 NA
BRANCH  23  30
ATOM     29  N   UNL     1      47.794   1.639   5.129  0.00  0.00    +0.000 NA
ATOM     30  C   UNL     1      47.304   2.149   6.054  0.00  0.00    +0.000 C 
ENDBRANCH  23  30
ENDBRANCH  17  26
ENDBRANCH   1  21
TORSDOF 5
ENDMDL
MODEL 8
REMARK VINA RESULT:    -4.379     10.884     13.719
REMARK INTER + INTRA:          -6.358
REMARK INTER:                  -5.642
REMARK INTRA:                  -0.715
REMARK UNBOUND:                -0.699
REMARK  Name = 
REMARK  5 active torsions:
REMARK  status: ('A' for Active; 'I' for Inactive)
REMARK    1  A    between atoms: C_2  and  C_3
REMARK    2  A    between atoms: C_6  and  C_7
REMARK    3  A    between atoms: C_11  and  C_12
REMARK    4  A    between atoms: C_12  and  N_13
REMARK    5  A    between atoms: C_17  and  C_18
REMARK                            x       y       z     vdW  Elec       q    Type
REMARK                         _______ _______ _______ _____ _____    ______ ____
ROOT
ATOM      1  C   UNL     1      37.056  -2.474  15.867  0.00  0.00    +0.000 C 
ATOM      2  C   UNL     1      36.605  -3.445  16.946  0.00  0.00    +0.000 C 
ATOM      3  C   UNL     1      35.934  -3.483  15.614  0.00  0.00    +0.000 C 
ENDROOT
BRANCH   1   4
ATOM      4  N   UNL     1      36.619  -1.058  15.823  0.00  0.00    +0.000 N 
ATOM      5  C   UNL     1      37.270  -0.018  16.489  0.00  0.00    +0.000 A 
ATOM      6  C   UNL     1      37.725  -0.119  17.799  0.00  0.00    +0.000 A 
ATOM      7  C   UNL     1      38.196   1.022  18.457  0.00  0.00    +0.000 A 
ATOM      8  C   UNL     1      38.218   2.239  17.783  0.00  0.00    +0.000 A 
ATOM      9  C   UNL     1      37.772   2.251  16.470  0.00  0.00    +0.000 A 
ATOM     10  N   UNL     1      37.307   1.153  15.818  0.00  0.00    +0.000 NA
ATOM     11  H   UNL     1      36.430  -0.702  14.885  0.00  0.00    +0.000 HD
BRANCH   8  12
ATOM     12  C   UNL     1      38.632   3.510  18.412  0.00  0.00    +0.000 C 
ATOM     13  N   UNL     1      39.166   4.473  17.602  0.00  0.00    +0.000 N 
ATOM     14  O   UNL     1      38.488   3.705  19.612  0.00  0.00    +0.000 OA
ATOM     15  H   UNL     1      39.120   4.441  16.594  0.00  0.00    +0.000 HD
ATOM     16  H   UNL     1      39.379   5.364  18.034  0.00  0.00    +0.000 HD
ENDBRANCH   8  12
ENDBRANCH   1   4
BRANCH   1  21
ATOM     17  C   UNL     1      40.473  -3.676  15.145  0.00  0.00    +0.000 A 
ATOM     18  N   UNL     1      40.682  -3.340  13.871  0.00  0.00    +0.000 NA
ATOM     19  C   UNL     1      39.677  -2.689  13.301  0.00  0.00    +0.000 A 
ATOM     20  N   UNL     1      38.530  -2.367  13.884  0.00  0.00    +0.000 NA
ATOM     21  C   UNL     1      38.397  -2.762  15.159  0.00  0.00    +0.000 A 
ATOM     22  N   UNL     1      39.355  -3.419  15.827  0.00  0.00    +0.000 NA
BRANCH  17  26
ATOM     23  C   UNL     1      43.581  -5.824  17.075  0.00  0.00    +0.000 A 
ATOM     24  C   UNL     1      43.151  -4.640  17.657  0.00  0.00    +0.000 A 
ATOM     25  C   UNL     1      42.128  -3.929  17.029  0.00  0.00    +0.000 A 
ATOM     26  C   UNL     1      41.548  -4.399  15.838  0.00  0.00    +0.000 A 
ATOM     27  C   UNL     1      42.062  -5.602  15.350  0.00  0.00    +0.000 A 
ATOM     28  N   UNL     1      43.056  -6.322  15.931  0.00  0.00    +0.000 NA
BRANCH  23  30
ATOM     29  N   UNL     1      45.504  -7.224  18.126  0.00  0.00    +0.000 NA
ATOM     30  C   UNL     1      44.632  -6.595  17.678  0.00  0.00    +0.000 C 
ENDBRANCH  23  30
ENDBRANCH  17  26
ENDBRANCH   1  21
TORSDOF 5
ENDMDL
MODEL 9
REMARK VINA RESULT:    -4.226     11.361     13.334
REMARK INTER + INTRA:          -6.160
REMARK INTER:                  -5.480
REMARK INTRA:                  -0.680
REMARK UNBOUND:                -0.699
REMARK  Name = 
REMARK  5 active torsions:
REMARK  status: ('A' for Active; 'I' for Inactive)
REMARK    1  A    between atoms: C_2  and  C_3
REMARK    2  A    between atoms: C_6  and  C_7
REMARK    3  A    between atoms: C_11  and  C_12
REMARK    4  A    between atoms: C_12  and  N_13
REMARK    5  A    between atoms: C_17  and  C_18
REMARK                            x       y       z     vdW  Elec       q    Type
REMARK                         _______ _______ _______ _____ _____    ______ ____
ROOT
ATOM      1  C   UNL     1      39.494  -3.252  11.836  0.00  0.00    +0.000 C 
ATOM      2  C   UNL     1      40.256  -2.207  11.037  0.00  0.00    +0.000 C 
ATOM      3  C   UNL     1      39.281  -3.088  10.330  0.00  0.00    +0.000 C 
ENDROOT
BRANCH   1   4
ATOM      4  N   UNL     1      40.082  -4.555  12.227  0.00  0.00    +0.000 N 
ATOM      5  C   UNL     1      40.555  -4.847  13.509  0.00  0.00    +0.000 A 
ATOM      6  C   UNL     1      41.332  -3.966  14.253  0.00  0.00    +0.000 A 
ATOM      7  C   UNL     1      41.922  -4.402  15.443  0.00  0.00    +0.000 A 
ATOM      8  C   UNL     1      41.706  -5.708  15.875  0.00  0.00    +0.000 A 
ATOM      9  C   UNL     1      40.897  -6.515  15.090  0.00  0.00    +0.000 A 
ATOM     10  N   UNL     1      40.321  -6.108  13.927  0.00  0.00    +0.000 NA
ATOM     11  H   UNL     1      39.531  -5.369  11.951  0.00  0.00    +0.000 HD
BRANCH   8  12
ATOM     12  C   UNL     1      42.340  -6.281  17.080  0.00  0.00    +0.000 C 
ATOM     13  N   UNL     1      43.591  -6.815  16.943  0.00  0.00    +0.000 N 
ATOM     14  O   UNL     1      41.776  -6.266  18.166  0.00  0.00    +0.000 OA
ATOM     15  H   UNL     1      44.171  -6.672  16.130  0.00  0.00    +0.000 HD
ATOM     16  H   UNL     1      44.041  -7.140  17.790  0.00  0.00    +0.000 HD
ENDBRANCH   8  12
ENDBRANCH   1   4
BRANCH   1  21
ATOM     17  C   UNL     1      37.491  -1.293  14.245  0.00  0.00    +0.000 A 
ATOM     18  N   UNL     1      36.288  -1.871  14.225  0.00  0.00    +0.000 NA
ATOM     19  C   UNL     1      36.196  -2.923  13.424  0.00  0.00    +0.000 A 
ATOM     20  N   UNL     1      37.173  -3.416  12.674  0.00  0.00    +0.000 NA
ATOM     21  C   UNL     1      38.341  -2.762  12.740  0.00  0.00    +0.000 A 
ATOM     22  N   UNL     1      38.540  -1.693  13.522  0.00  0.00    +0.000 NA
BRANCH  17  26
ATOM     23  C   UNL     1      37.932   2.139  16.698  0.00  0.00    +0.000 A 
ATOM     24  C   UNL     1      38.525   0.959  17.120  0.00  0.00    +0.000 A 
ATOM     25  C   UNL     1      38.387  -0.174  16.318  0.00  0.00    +0.000 A 
ATOM     26  C   UNL     1      37.664  -0.121  15.113  0.00  0.00    +0.000 A 
ATOM     27  C   UNL     1      37.115   1.121  14.792  0.00  0.00    +0.000 A 
ATOM     28  N   UNL     1      37.228   2.246  15.547  0.00  0.00    +0.000 NA
BRANCH  23  30
ATOM     29  N   UNL     1      38.174   4.298  18.129  0.00  0.00    +0.000 NA
ATOM     30  C   UNL     1      38.042   3.336  17.485  0.00  0.00    +0.000 C 
ENDBRANCH  23  30
ENDBRANCH  17  26
ENDBRANCH   1  21
TORSDOF 5
ENDMDL
