MODEL 1
REMARK VINA RESULT:    -7.687      0.000      0.000
REMARK INTER + INTRA:         -11.885
REMARK INTER:                 -11.507
REMARK INTRA:                  -0.378
REMARK UNBOUND:                -0.378
REMARK  Name = 
REMARK  9 active torsions:
REMARK  status: ('A' for Active; 'I' for Inactive)
REMARK    1  A    between atoms: N_1  and  C_2
REMARK    2  A    between atoms: C_2  and  C_3
REMARK    3  A    between atoms: C_3  and  N_4
REMARK    4  A    between atoms: C_3  and  C_27
REMARK    5  A    between atoms: C_5  and  C_7
REMARK    6  A    between atoms: C_10  and  C_11
REMARK    7  A    between atoms: C_11  and  N_12
REMARK    8  A    between atoms: C_13  and  C_15
REMARK    9  A    between atoms: C_27  and  C_29
REMARK                            x       y       z     vdW  Elec       q    Type
REMARK                         _______ _______ _______ _____ _____    ______ ____
ROOT
ATOM      1  C   UNL     1      45.183   5.342  13.182  0.00  0.00    +0.000 C 
ATOM      2  C   UNL     1      46.413   5.751  14.002  0.00  0.00    +0.000 C 
ATOM      3  C   UNL     1      47.540   6.274  13.110  0.00  0.00    +0.000 C 
ATOM      4  C   UNL     1      47.102   7.454  12.223  0.00  0.00    +0.000 C 
ATOM      5  C   UNL     1      45.838   7.101  11.431  0.00  0.00    +0.000 C 
ATOM      6  C   UNL     1      44.719   6.518  12.303  0.00  0.00    +0.000 C 
ENDROOT
BRANCH   1   8
ATOM      7  N   UNL     1      45.009   4.149  11.031  0.00  0.00    +0.000 N 
ATOM      8  C   UNL     1      45.442   4.094  12.333  0.00  0.00    +0.000 C 
ATOM      9  O   UNL     1      45.995   3.088  12.770  0.00  0.00    +0.000 OA
ATOM     10  H   UNL     1      44.598   4.991  10.638  0.00  0.00    +0.000 HD
BRANCH   7  11
ATOM     11  C   UNL     1      45.100   2.955  10.175  0.00  0.00    +0.000 C 
BRANCH  11  12
ATOM     12  C   UNL     1      45.330   3.405   8.724  0.00  0.00    +0.000 C 
ATOM     13  O   UNL     1      44.718   4.374   8.264  0.00  0.00    +0.000 OA
BRANCH  12  14
ATOM     14  C   UNL     1      46.336   2.715   7.940  0.00  0.00    +0.000 A 
ATOM     15  C   UNL     1      46.663   1.380   7.797  0.00  0.00    +0.000 A 
ATOM     16  N   UNL     1      47.748   1.223   6.965  0.00  0.00    +0.000 NA
ATOM     17  C   UNL     1      48.076   2.435   6.588  0.00  0.00    +0.000 A 
ATOM     18  N   UNL     1      47.235   3.364   7.126  0.00  0.00    +0.000 N 
ATOM     19  H   UNL     1      47.274   4.361   6.982  0.00  0.00    +0.000 HD
ENDBRANCH  12  14
ENDBRANCH  11  12
BRANCH  11  20
ATOM     20  C   UNL     1      43.823   2.095  10.301  0.00  0.00    +0.000 C 
BRANCH  20  21
ATOM     21  N   UNL     1      43.095   2.306  11.555  0.00  0.00    +0.000 NA
ATOM     22  H   UNL     1      42.374   1.587  11.646  0.00  0.00    +0.000 HD
ATOM     23  H   UNL     1      42.581   3.188  11.498  0.00  0.00    +0.000 HD
ENDBRANCH  20  21
ENDBRANCH  11  20
ENDBRANCH   7  11
ENDBRANCH   1   8
BRANCH   4  24
ATOM     24  C   UNL     1      46.897   8.752  13.022  0.00  0.00    +0.000 C 
BRANCH  24  25
ATOM     25  N   UNL     1      47.148   8.534  14.428  0.00  0.00    +0.000 N 
ATOM     26  C   UNL     1      48.293   8.948  15.053  0.00  0.00    +0.000 C 
ATOM     27  O   UNL     1      49.188   9.544  14.460  0.00  0.00    +0.000 OA
ATOM     28  H   UNL     1      46.526   7.890  14.907  0.00  0.00    +0.000 HD
BRANCH  26  29
ATOM     29  C   UNL     1      48.361   8.707  16.499  0.00  0.00    +0.000 A 
ATOM     30  C   UNL     1      47.867   9.666  17.372  0.00  0.00    +0.000 A 
ATOM     31  S   UNL     1      47.994   9.226  19.013  0.00  0.00    +0.000 S 
ATOM     32  C   UNL     1      48.750   7.755  18.616  0.00  0.00    +0.000 A 
ATOM     33  N   UNL     1      49.158   6.897  19.590  0.00  0.00    +0.000 NA
ATOM     34  C   UNL     1      49.748   5.836  19.151  0.00  0.00    +0.000 A 
ATOM     35  N   UNL     1      49.955   5.546  17.828  0.00  0.00    +0.000 N 
ATOM     36  C   UNL     1      49.509   6.355  16.809  0.00  0.00    +0.000 A 
ATOM     37  O   UNL     1      49.621   6.017  15.635  0.00  0.00    +0.000 OA
ATOM     38  C   UNL     1      48.877   7.586  17.249  0.00  0.00    +0.000 A 
ATOM     39  H   UNL     1      50.402   4.685  17.551  0.00  0.00    +0.000 HD
ENDBRANCH  26  29
ENDBRANCH  24  25
ENDBRANCH   4  24
TORSDOF 9
ENDMDL
MODEL 2
REMARK VINA RESULT:    -7.406      3.515      5.057
REMARK INTER + INTRA:         -11.464
REMARK INTER:                 -10.038
REMARK INTRA:                  -1.426
REMARK UNBOUND:                -0.378
REMARK  Name = 
REMARK  9 active torsions:
REMARK  status: ('A' for Active; 'I' for Inactive)
REMARK    1  A    between atoms: N_1  and  C_2
REMARK    2  A    between atoms: C_2  and  C_3
REMARK    3  A    between atoms: C_3  and  N_4
REMARK    4  A    between atoms: C_3  and  C_27
REMARK    5  A    between atoms: C_5  and  C_7
REMARK    6  A    between atoms: C_10  and  C_11
REMARK    7  A    between atoms: C_11  and  N_12
REMARK    8  A    between atoms: C_13  and  C_15
REMARK    9  A    between atoms: C_27  and  C_29
REMARK                            x       y       z     vdW  Elec       q    Type
REMARK                         _______ _______ _______ _____ _____    ______ ____
ROOT
ATOM      1  C   UNL     1      47.696   8.911  12.201  0.00  0.00    +0.000 C 
ATOM      2  C   UNL     1      48.043   9.587  13.534  0.00  0.00    +0.000 C 
ATOM      3  C   UNL     1      48.258   8.564  14.649  0.00  0.00    +0.000 C 
ATOM      4  C   UNL     1      49.342   7.525  14.306  0.00  0.00    +0.000 C 
ATOM      5  C   UNL     1      49.059   6.869  12.949  0.00  0.00    +0.000 C 
ATOM      6  C   UNL     1      48.782   7.883  11.832  0.00  0.00    +0.000 C 
ENDROOT
BRANCH   1   8
ATOM      7  N   UNL     1      46.233   6.987  11.713  0.00  0.00    +0.000 N 
ATOM      8  C   UNL     1      46.311   8.259  12.225  0.00  0.00    +0.000 C 
ATOM      9  O   UNL     1      45.312   8.823  12.664  0.00  0.00    +0.000 OA
ATOM     10  H   UNL     1      47.058   6.486  11.395  0.00  0.00    +0.000 HD
BRANCH   7  11
ATOM     11  C   UNL     1      44.924   6.328  11.578  0.00  0.00    +0.000 C 
BRANCH  11  12
ATOM     12  C   UNL     1      44.630   5.547  12.869  0.00  0.00    +0.000 C 
ATOM     13  O   UNL     1      43.483   5.498  13.323  0.00  0.00    +0.000 OA
BRANCH  12  14
ATOM     14  C   UNL     1      45.713   4.810  13.489  0.00  0.00    +0.000 A 
ATOM     15  C   UNL     1      46.344   3.622  13.170  0.00  0.00    +0.000 A 
ATOM     16  N   UNL     1      47.297   3.301  14.110  0.00  0.00    +0.000 NA
ATOM     17  C   UNL     1      47.269   4.279  14.983  0.00  0.00    +0.000 A 
ATOM     18  N   UNL     1      46.350   5.226  14.635  0.00  0.00    +0.000 N 
ATOM     19  H   UNL     1      46.146   6.075  15.138  0.00  0.00    +0.000 HD
ENDBRANCH  12  14
ENDBRANCH  11  12
BRANCH  11  20
ATOM     20  C   UNL     1      44.905   5.401  10.343  0.00  0.00    +0.000 C 
BRANCH  20  21
ATOM     21  N   UNL     1      43.571   4.889  10.015  0.00  0.00    +0.000 NA
ATOM     22  H   UNL     1      42.928   5.127  10.772  0.00  0.00    +0.000 HD
ATOM     23  H   UNL     1      43.598   3.867  10.006  0.00  0.00    +0.000 HD
ENDBRANCH  20  21
ENDBRANCH  11  20
ENDBRANCH   7  11
ENDBRANCH   1   8
BRANCH   4  24
ATOM     24  C   UNL     1      50.761   8.116  14.338  0.00  0.00    +0.000 C 
BRANCH  24  25
ATOM     25  N   UNL     1      51.669   7.234  15.035  0.00  0.00    +0.000 N 
ATOM     26  C   UNL     1      51.726   7.151  16.399  0.00  0.00    +0.000 C 
ATOM     27  O   UNL     1      51.001   7.820  17.131  0.00  0.00    +0.000 OA
ATOM     28  H   UNL     1      52.405   6.807  14.480  0.00  0.00    +0.000 HD
BRANCH  26  29
ATOM     29  C   UNL     1      52.656   6.156  16.946  0.00  0.00    +0.000 A 
ATOM     30  C   UNL     1      53.996   6.487  17.093  0.00  0.00    +0.000 A 
ATOM     31  S   UNL     1      54.939   5.238  17.766  0.00  0.00    +0.000 S 
ATOM     32  C   UNL     1      53.597   4.196  17.848  0.00  0.00    +0.000 A 
ATOM     33  N   UNL     1      53.730   2.925  18.313  0.00  0.00    +0.000 NA
ATOM     34  C   UNL     1      52.640   2.232  18.288  0.00  0.00    +0.000 A 
ATOM     35  N   UNL     1      51.427   2.698  17.856  0.00  0.00    +0.000 N 
ATOM     36  C   UNL     1      51.233   3.992  17.432  0.00  0.00    +0.000 A 
ATOM     37  O   UNL     1      50.114   4.405  17.148  0.00  0.00    +0.000 OA
ATOM     38  C   UNL     1      52.438   4.802  17.398  0.00  0.00    +0.000 A 
ATOM     39  H   UNL     1      50.607   2.111  17.886  0.00  0.00    +0.000 HD
ENDBRANCH  26  29
ENDBRANCH  24  25
ENDBRANCH   4  24
TORSDOF 9
ENDMDL
MODEL 3
REMARK VINA RESULT:    -7.351      2.179      2.406
REMARK INTER + INTRA:         -11.382
REMARK INTER:                 -10.219
REMARK INTRA:                  -1.162
REMARK UNBOUND:                -0.378
REMARK  Name = 
REMARK  9 active torsions:
REMARK  status: ('A' for Active; 'I' for Inactive)
REMARK    1  A    between atoms: N_1  and  C_2
REMARK    2  A    between atoms: C_2  and  C_3
REMARK    3  A    between atoms: C_3  and  N_4
REMARK    4  A    between atoms: C_3  and  C_27
REMARK    5  A    between atoms: C_5  and  C_7
REMARK    6  A    between atoms: C_10  and  C_11
REMARK    7  A    between atoms: C_11  and  N_12
REMARK    8  A    between atoms: C_13  and  C_15
REMARK    9  A    between atoms: C_27  and  C_29
REMARK                            x       y       z     vdW  Elec       q    Type
REMARK                         _______ _______ _______ _____ _____    ______ ____
ROOT
ATOM      1  C   UNL     1      46.008   5.687  13.538  0.00  0.00    +0.000 C 
ATOM      2  C   UNL     1      47.465   5.878  13.979  0.00  0.00    +0.000 C 
ATOM      3  C   UNL     1      48.388   6.136  12.789  0.00  0.00    +0.000 C 
ATOM      4  C   UNL     1      47.949   7.345  11.941  0.00  0.00    +0.000 C 
ATOM      5  C   UNL     1      46.477   7.216  11.530  0.00  0.00    +0.000 C 
ATOM      6  C   UNL     1      45.545   6.897  12.706  0.00  0.00    +0.000 C 
ENDROOT
BRANCH   1   8
ATOM      7  N   UNL     1      45.128   4.485  11.572  0.00  0.00    +0.000 N 
ATOM      8  C   UNL     1      45.804   4.382  12.764  0.00  0.00    +0.000 C 
ATOM      9  O   UNL     1      46.203   3.293  13.168  0.00  0.00    +0.000 OA
ATOM     10  H   UNL     1      44.838   5.383  11.198  0.00  0.00    +0.000 HD
BRANCH   7  11
ATOM     11  C   UNL     1      44.775   3.270  10.821  0.00  0.00    +0.000 C 
BRANCH  11  12
ATOM     12  C   UNL     1      44.804   3.594   9.318  0.00  0.00    +0.000 C 
ATOM     13  O   UNL     1      44.117   4.513   8.862  0.00  0.00    +0.000 OA
BRANCH  12  14
ATOM     14  C   UNL     1      45.714   2.849   8.472  0.00  0.00    +0.000 A 
ATOM     15  C   UNL     1      46.008   1.503   8.363  0.00  0.00    +0.000 A 
ATOM     16  N   UNL     1      46.999   1.286   7.433  0.00  0.00    +0.000 NA
ATOM     17  C   UNL     1      47.301   2.472   6.963  0.00  0.00    +0.000 A 
ATOM     18  N   UNL     1      46.532   3.442   7.537  0.00  0.00    +0.000 N 
ATOM     19  H   UNL     1      46.567   4.430   7.338  0.00  0.00    +0.000 HD
ENDBRANCH  12  14
ENDBRANCH  11  12
BRANCH  11  20
ATOM     20  C   UNL     1      43.389   2.744  11.254  0.00  0.00    +0.000 C 
BRANCH  20  21
ATOM     21  N   UNL     1      43.431   1.897  12.450  0.00  0.00    +0.000 NA
ATOM     22  H   UNL     1      42.476   1.732  12.773  0.00  0.00    +0.000 HD
ATOM     23  H   UNL     1      43.879   2.415  13.210  0.00  0.00    +0.000 HD
ENDBRANCH  20  21
ENDBRANCH  11  20
ENDBRANCH   7  11
ENDBRANCH   1   8
BRANCH   4  24
ATOM     24  C   UNL     1      48.199   8.687  12.649  0.00  0.00    +0.000 C 
BRANCH  24  25
ATOM     25  N   UNL     1      49.491   8.692  13.295  0.00  0.00    +0.000 N 
ATOM     26  C   UNL     1      49.649   8.868  14.643  0.00  0.00    +0.000 C 
ATOM     27  O   UNL     1      48.697   9.027  15.402  0.00  0.00    +0.000 OA
ATOM     28  H   UNL     1      50.304   8.750  12.689  0.00  0.00    +0.000 HD
BRANCH  26  29
ATOM     29  C   UNL     1      51.024   8.780  15.148  0.00  0.00    +0.000 A 
ATOM     30  C   UNL     1      51.898   9.835  14.926  0.00  0.00    +0.000 A 
ATOM     31  S   UNL     1      53.445   9.593  15.598  0.00  0.00    +0.000 S 
ATOM     32  C   UNL     1      53.014   8.052  16.174  0.00  0.00    +0.000 A 
ATOM     33  N   UNL     1      53.917   7.276  16.832  0.00  0.00    +0.000 NA
ATOM     34  C   UNL     1      53.468   6.117  17.183  0.00  0.00    +0.000 A 
ATOM     35  N   UNL     1      52.195   5.669  16.951  0.00  0.00    +0.000 N 
ATOM     36  C   UNL     1      51.232   6.440  16.343  0.00  0.00    +0.000 A 
ATOM     37  O   UNL     1      50.075   6.046  16.242  0.00  0.00    +0.000 OA
ATOM     38  C   UNL     1      51.698   7.737  15.887  0.00  0.00    +0.000 A 
ATOM     39  H   UNL     1      51.900   4.760  17.275  0.00  0.00    +0.000 HD
ENDBRANCH  26  29
ENDBRANCH  24  25
ENDBRANCH   4  24
TORSDOF 9
ENDMDL
MODEL 4
REMARK VINA RESULT:    -7.285      1.454      2.122
REMARK INTER + INTRA:         -11.282
REMARK INTER:                 -10.929
REMARK INTRA:                  -0.353
REMARK UNBOUND:                -0.378
REMARK  Name = 
REMARK  9 active torsions:
REMARK  status: ('A' for Active; 'I' for Inactive)
REMARK    1  A    between atoms: N_1  and  C_2
REMARK    2  A    between atoms: C_2  and  C_3
REMARK    3  A    between atoms: C_3  and  N_4
REMARK    4  A    between atoms: C_3  and  C_27
REMARK    5  A    between atoms: C_5  and  C_7
REMARK    6  A    between atoms: C_10  and  C_11
REMARK    7  A    between atoms: C_11  and  N_12
REMARK    8  A    between atoms: C_13  and  C_15
REMARK    9  A    between atoms: C_27  and  C_29
REMARK                            x       y       z     vdW  Elec       q    Type
REMARK                         _______ _______ _______ _____ _____    ______ ____
ROOT
ATOM      1  C   UNL     1      45.425   5.179  13.233  0.00  0.00    +0.000 C 
ATOM      2  C   UNL     1      46.527   5.220  14.300  0.00  0.00    +0.000 C 
ATOM      3  C   UNL     1      47.905   5.455  13.682  0.00  0.00    +0.000 C 
ATOM      4  C   UNL     1      47.969   6.739  12.834  0.00  0.00    +0.000 C 
ATOM      5  C   UNL     1      46.843   6.761  11.792  0.00  0.00    +0.000 C 
ATOM      6  C   UNL     1      45.461   6.466  12.387  0.00  0.00    +0.000 C 
ENDROOT
BRANCH   1   8
ATOM      7  N   UNL     1      45.139   4.098  11.034  0.00  0.00    +0.000 N 
ATOM      8  C   UNL     1      45.526   3.937  12.343  0.00  0.00    +0.000 C 
ATOM      9  O   UNL     1      45.918   2.848  12.753  0.00  0.00    +0.000 OA
ATOM     10  H   UNL     1      44.863   5.004  10.665  0.00  0.00    +0.000 HD
BRANCH   7  11
ATOM     11  C   UNL     1      45.083   2.934  10.136  0.00  0.00    +0.000 C 
BRANCH  11  12
ATOM     12  C   UNL     1      45.353   3.406   8.699  0.00  0.00    +0.000 C 
ATOM     13  O   UNL     1      44.775   4.400   8.247  0.00  0.00    +0.000 OA
BRANCH  12  14
ATOM     14  C   UNL     1      46.356   2.707   7.922  0.00  0.00    +0.000 A 
ATOM     15  C   UNL     1      46.666   1.368   7.775  0.00  0.00    +0.000 A 
ATOM     16  N   UNL     1      47.757   1.199   6.953  0.00  0.00    +0.000 NA
ATOM     17  C   UNL     1      48.105   2.408   6.585  0.00  0.00    +0.000 A 
ATOM     18  N   UNL     1      47.272   3.347   7.119  0.00  0.00    +0.000 N 
ATOM     19  H   UNL     1      47.326   4.344   6.979  0.00  0.00    +0.000 HD
ENDBRANCH  12  14
ENDBRANCH  11  12
BRANCH  11  20
ATOM     20  C   UNL     1      43.714   2.226  10.247  0.00  0.00    +0.000 C 
BRANCH  20  21
ATOM     21  N   UNL     1      43.123   2.298  11.586  0.00  0.00    +0.000 NA
ATOM     22  H   UNL     1      43.044   3.278  11.863  0.00  0.00    +0.000 HD
ATOM     23  H   UNL     1      43.773   1.887  12.260  0.00  0.00    +0.000 HD
ENDBRANCH  20  21
ENDBRANCH  11  20
ENDBRANCH   7  11
ENDBRANCH   1   8
BRANCH   4  24
ATOM     24  C   UNL     1      47.941   8.017  13.688  0.00  0.00    +0.000 C 
BRANCH  24  25
ATOM     25  N   UNL     1      47.858   7.692  15.094  0.00  0.00    +0.000 N 
ATOM     26  C   UNL     1      48.917   7.816  15.951  0.00  0.00    +0.000 C 
ATOM     27  O   UNL     1      50.017   8.220  15.584  0.00  0.00    +0.000 OA
ATOM     28  H   UNL     1      47.032   7.183  15.395  0.00  0.00    +0.000 HD
BRANCH  26  29
ATOM     29  C   UNL     1      48.647   7.507  17.359  0.00  0.00    +0.000 A 
ATOM     30  C   UNL     1      48.903   6.229  17.836  0.00  0.00    +0.000 A 
ATOM     31  S   UNL     1      48.564   6.037  19.495  0.00  0.00    +0.000 S 
ATOM     32  C   UNL     1      48.023   7.645  19.625  0.00  0.00    +0.000 A 
ATOM     33  N   UNL     1      47.552   8.127  20.807  0.00  0.00    +0.000 NA
ATOM     34  C   UNL     1      47.142   9.351  20.756  0.00  0.00    +0.000 A 
ATOM     35  N   UNL     1      47.173  10.141  19.638  0.00  0.00    +0.000 N 
ATOM     36  C   UNL     1      47.694   9.714  18.438  0.00  0.00    +0.000 A 
ATOM     37  O   UNL     1      47.801  10.480  17.485  0.00  0.00    +0.000 OA
ATOM     38  C   UNL     1      48.129   8.329  18.428  0.00  0.00    +0.000 A 
ATOM     39  H   UNL     1      46.860  11.099  19.672  0.00  0.00    +0.000 HD
ENDBRANCH  26  29
ENDBRANCH  24  25
ENDBRANCH   4  24
TORSDOF 9
ENDMDL
MODEL 5
REMARK VINA RESULT:    -7.251      3.283      8.262
REMARK INTER + INTRA:         -11.232
REMARK INTER:                 -10.128
REMARK INTRA:                  -1.104
REMARK UNBOUND:                -0.378
REMARK  Name = 
REMARK  9 active torsions:
REMARK  status: ('A' for Active; 'I' for Inactive)
REMARK    1  A    between atoms: N_1  and  C_2
REMARK    2  A    between atoms: C_2  and  C_3
REMARK    3  A    between atoms: C_3  and  N_4
REMARK    4  A    between atoms: C_3  and  C_27
REMARK    5  A    between atoms: C_5  and  C_7
REMARK    6  A    between atoms: C_10  and  C_11
REMARK    7  A    between atoms: C_11  and  N_12
REMARK    8  A    between atoms: C_13  and  C_15
REMARK    9  A    between atoms: C_27  and  C_29
REMARK                            x       y       z     vdW  Elec       q    Type
REMARK                         _______ _______ _______ _____ _____    ______ ____
ROOT
ATOM      1  C   UNL     1      49.998   7.181  14.964  0.00  0.00    +0.000 C 
ATOM      2  C   UNL     1      48.904   6.353  14.278  0.00  0.00    +0.000 C 
ATOM      3  C   UNL     1      47.529   7.006  14.414  0.00  0.00    +0.000 C 
ATOM      4  C   UNL     1      47.494   8.447  13.871  0.00  0.00    +0.000 C 
ATOM      5  C   UNL     1      48.613   9.291  14.492  0.00  0.00    +0.000 C 
ATOM      6  C   UNL     1      49.991   8.621  14.417  0.00  0.00    +0.000 C 
ENDROOT
BRANCH   1   8
ATOM      7  N   UNL     1      49.263   6.066  17.037  0.00  0.00    +0.000 N 
ATOM      8  C   UNL     1      49.859   7.175  16.489  0.00  0.00    +0.000 C 
ATOM      9  O   UNL     1      50.242   8.100  17.201  0.00  0.00    +0.000 OA
ATOM     10  H   UNL     1      48.989   5.269  16.469  0.00  0.00    +0.000 HD
BRANCH   7  11
ATOM     11  C   UNL     1      48.972   6.025  18.479  0.00  0.00    +0.000 C 
BRANCH  11  12
ATOM     12  C   UNL     1      49.194   4.590  18.986  0.00  0.00    +0.000 C 
ATOM     13  O   UNL     1      49.063   4.323  20.184  0.00  0.00    +0.000 OA
BRANCH  12  14
ATOM     14  C   UNL     1      49.479   3.553  18.015  0.00  0.00    +0.000 A 
ATOM     15  C   UNL     1      48.746   3.011  16.976  0.00  0.00    +0.000 A 
ATOM     16  N   UNL     1      49.438   1.993  16.360  0.00  0.00    +0.000 NA
ATOM     17  C   UNL     1      50.583   1.918  16.993  0.00  0.00    +0.000 A 
ATOM     18  N   UNL     1      50.666   2.858  17.979  0.00  0.00    +0.000 N 
ATOM     19  H   UNL     1      51.446   3.008  18.599  0.00  0.00    +0.000 HD
ENDBRANCH  12  14
ENDBRANCH  11  12
BRANCH  11  20
ATOM     20  C   UNL     1      47.531   6.503  18.759  0.00  0.00    +0.000 C 
BRANCH  20  21
ATOM     21  N   UNL     1      46.533   5.431  18.690  0.00  0.00    +0.000 NA
ATOM     22  H   UNL     1      46.005   5.524  17.820  0.00  0.00    +0.000 HD
ATOM     23  H   UNL     1      45.843   5.570  19.432  0.00  0.00    +0.000 HD
ENDBRANCH  20  21
ENDBRANCH  11  20
ENDBRANCH   7  11
ENDBRANCH   1   8
BRANCH   4  24
ATOM     24  C   UNL     1      47.561   8.503  12.336  0.00  0.00    +0.000 C 
BRANCH  24  25
ATOM     25  N   UNL     1      47.027   7.293  11.755  0.00  0.00    +0.000 N 
ATOM     26  C   UNL     1      45.705   7.142  11.431  0.00  0.00    +0.000 C 
ATOM     27  O   UNL     1      44.879   8.033  11.607  0.00  0.00    +0.000 OA
ATOM     28  H   UNL     1      47.631   6.477  11.766  0.00  0.00    +0.000 HD
BRANCH  26  29
ATOM     29  C   UNL     1      45.340   5.875  10.788  0.00  0.00    +0.000 A 
ATOM     30  C   UNL     1      45.667   5.670   9.454  0.00  0.00    +0.000 A 
ATOM     31  S   UNL     1      45.201   4.142   8.863  0.00  0.00    +0.000 S 
ATOM     32  C   UNL     1      44.508   3.715  10.357  0.00  0.00    +0.000 A 
ATOM     33  N   UNL     1      43.893   2.513  10.521  0.00  0.00    +0.000 NA
ATOM     34  C   UNL     1      43.381   2.333  11.693  0.00  0.00    +0.000 A 
ATOM     35  N   UNL     1      43.440   3.238  12.720  0.00  0.00    +0.000 N 
ATOM     36  C   UNL     1      44.101   4.439  12.618  0.00  0.00    +0.000 A 
ATOM     37  O   UNL     1      44.223   5.181  13.588  0.00  0.00    +0.000 OA
ATOM     38  C   UNL     1      44.658   4.712  11.305  0.00  0.00    +0.000 A 
ATOM     39  H   UNL     1      43.040   3.024  13.621  0.00  0.00    +0.000 HD
ENDBRANCH  26  29
ENDBRANCH  24  25
ENDBRANCH   4  24
TORSDOF 9
ENDMDL
MODEL 6
REMARK VINA RESULT:    -7.105      2.733      3.751
REMARK INTER + INTRA:         -11.014
REMARK INTER:                 -10.493
REMARK INTRA:                  -0.521
REMARK UNBOUND:                -0.378
REMARK  Name = 
REMARK  9 active torsions:
REMARK  status: ('A' for Active; 'I' for Inactive)
REMARK    1  A    between atoms: N_1  and  C_2
REMARK    2  A    between atoms: C_2  and  C_3
REMARK    3  A    between atoms: C_3  and  N_4
REMARK    4  A    between atoms: C_3  and  C_27
REMARK    5  A    between atoms: C_5  and  C_7
REMARK    6  A    between atoms: C_10  and  C_11
REMARK    7  A    between atoms: C_11  and  N_12
REMARK    8  A    between atoms: C_13  and  C_15
REMARK    9  A    between atoms: C_27  and  C_29
REMARK                            x       y       z     vdW  Elec       q    Type
REMARK                         _______ _______ _______ _____ _____    ______ ____
ROOT
ATOM      1  C   UNL     1      47.141   6.851  11.941  0.00  0.00    +0.000 C 
ATOM      2  C   UNL     1      47.351   8.346  12.212  0.00  0.00    +0.000 C 
ATOM      3  C   UNL     1      47.274   8.668  13.704  0.00  0.00    +0.000 C 
ATOM      4  C   UNL     1      48.275   7.852  14.544  0.00  0.00    +0.000 C 
ATOM      5  C   UNL     1      48.133   6.353  14.255  0.00  0.00    +0.000 C 
ATOM      6  C   UNL     1      48.148   6.020  12.758  0.00  0.00    +0.000 C 
ENDROOT
BRANCH   1   8
ATOM      7  N   UNL     1      45.308   5.228  11.644  0.00  0.00    +0.000 N 
ATOM      8  C   UNL     1      45.704   6.406  12.228  0.00  0.00    +0.000 C 
ATOM      9  O   UNL     1      44.930   7.051  12.930  0.00  0.00    +0.000 OA
ATOM     10  H   UNL     1      45.951   4.655  11.105  0.00  0.00    +0.000 HD
BRANCH   7  11
ATOM     11  C   UNL     1      43.910   4.784  11.760  0.00  0.00    +0.000 C 
BRANCH  11  12
ATOM     12  C   UNL     1      43.784   3.384  11.139  0.00  0.00    +0.000 C 
ATOM     13  O   UNL     1      43.012   2.551  11.624  0.00  0.00    +0.000 OA
BRANCH  12  14
ATOM     14  C   UNL     1      44.530   3.097   9.931  0.00  0.00    +0.000 A 
ATOM     15  C   UNL     1      44.873   3.864   8.833  0.00  0.00    +0.000 A 
ATOM     16  N   UNL     1      45.555   3.117   7.900  0.00  0.00    +0.000 NA
ATOM     17  C   UNL     1      45.647   1.916   8.416  0.00  0.00    +0.000 A 
ATOM     18  N   UNL     1      45.070   1.863   9.652  0.00  0.00    +0.000 N 
ATOM     19  H   UNL     1      45.019   1.056  10.254  0.00  0.00    +0.000 HD
ENDBRANCH  12  14
ENDBRANCH  11  12
BRANCH  11  20
ATOM     20  C   UNL     1      42.960   5.790  11.074  0.00  0.00    +0.000 C 
BRANCH  20  21
ATOM     21  N   UNL     1      41.921   6.317  11.964  0.00  0.00    +0.000 NA
ATOM     22  H   UNL     1      42.139   6.047  12.925  0.00  0.00    +0.000 HD
ATOM     23  H   UNL     1      41.035   5.852  11.755  0.00  0.00    +0.000 HD
ENDBRANCH  20  21
ENDBRANCH  11  20
ENDBRANCH   7  11
ENDBRANCH   1   8
BRANCH   4  24
ATOM     24  C   UNL     1      49.729   8.309  14.343  0.00  0.00    +0.000 C 
BRANCH  24  25
ATOM     25  N   UNL     1      50.649   7.362  14.931  0.00  0.00    +0.000 N 
ATOM     26  C   UNL     1      51.068   7.440  16.232  0.00  0.00    +0.000 C 
ATOM     27  O   UNL     1      50.684   8.322  16.995  0.00  0.00    +0.000 OA
ATOM     28  H   UNL     1      51.129   6.736  14.291  0.00  0.00    +0.000 HD
BRANCH  26  29
ATOM     29  C   UNL     1      51.951   6.361  16.690  0.00  0.00    +0.000 A 
ATOM     30  C   UNL     1      53.326   6.542  16.642  0.00  0.00    +0.000 A 
ATOM     31  S   UNL     1      54.212   5.213  17.235  0.00  0.00    +0.000 S 
ATOM     32  C   UNL     1      52.789   4.332  17.538  0.00  0.00    +0.000 A 
ATOM     33  N   UNL     1      52.846   3.066  18.034  0.00  0.00    +0.000 NA
ATOM     34  C   UNL     1      51.694   2.501  18.184  0.00  0.00    +0.000 A 
ATOM     35  N   UNL     1      50.491   3.089  17.898  0.00  0.00    +0.000 N 
ATOM     36  C   UNL     1      50.382   4.385  17.451  0.00  0.00    +0.000 A 
ATOM     37  O   UNL     1      49.286   4.915  17.303  0.00  0.00    +0.000 OA
ATOM     38  C   UNL     1      51.651   5.053  17.222  0.00  0.00    +0.000 A 
ATOM     39  H   UNL     1      49.624   2.600  18.063  0.00  0.00    +0.000 HD
ENDBRANCH  26  29
ENDBRANCH  24  25
ENDBRANCH   4  24
TORSDOF 9
ENDMDL
MODEL 7
REMARK VINA RESULT:    -7.091      2.805      8.665
REMARK INTER + INTRA:         -10.992
REMARK INTER:                  -9.642
REMARK INTRA:                  -1.350
REMARK UNBOUND:                -0.378
REMARK  Name = 
REMARK  9 active torsions:
REMARK  status: ('A' for Active; 'I' for Inactive)
REMARK    1  A    between atoms: N_1  and  C_2
REMARK    2  A    between atoms: C_2  and  C_3
REMARK    3  A    between atoms: C_3  and  N_4
REMARK    4  A    between atoms: C_3  and  C_27
REMARK    5  A    between atoms: C_5  and  C_7
REMARK    6  A    between atoms: C_10  and  C_11
REMARK    7  A    between atoms: C_11  and  N_12
REMARK    8  A    between atoms: C_13  and  C_15
REMARK    9  A    between atoms: C_27  and  C_29
REMARK                            x       y       z     vdW  Elec       q    Type
REMARK                         _______ _______ _______ _____ _____    ______ ____
ROOT
ATOM      1  C   UNL     1      50.020   8.068  13.899  0.00  0.00    +0.000 C 
ATOM      2  C   UNL     1      49.111   6.856  13.658  0.00  0.00    +0.000 C 
ATOM      3  C   UNL     1      47.658   7.154  14.029  0.00  0.00    +0.000 C 
ATOM      4  C   UNL     1      47.089   8.375  13.283  0.00  0.00    +0.000 C 
ATOM      5  C   UNL     1      48.004   9.594  13.453  0.00  0.00    +0.000 C 
ATOM      6  C   UNL     1      49.476   9.294  13.143  0.00  0.00    +0.000 C 
ENDROOT
BRANCH   1   8
ATOM      7  N   UNL     1      49.499   7.568  16.258  0.00  0.00    +0.000 N 
ATOM      8  C   UNL     1      50.191   8.377  15.389  0.00  0.00    +0.000 C 
ATOM      9  O   UNL     1      50.893   9.293  15.808  0.00  0.00    +0.000 OA
ATOM     10  H   UNL     1      48.957   6.773  15.932  0.00  0.00    +0.000 HD
BRANCH   7  11
ATOM     11  C   UNL     1      49.502   7.865  17.699  0.00  0.00    +0.000 C 
BRANCH  11  12
ATOM     12  C   UNL     1      49.325   6.549  18.474  0.00  0.00    +0.000 C 
ATOM     13  O   UNL     1      49.527   6.508  19.692  0.00  0.00    +0.000 OA
BRANCH  12  14
ATOM     14  C   UNL     1      48.842   5.387  17.756  0.00  0.00    +0.000 A 
ATOM     15  C   UNL     1      49.452   4.217  17.344  0.00  0.00    +0.000 A 
ATOM     16  N   UNL     1      48.576   3.425  16.636  0.00  0.00    +0.000 NA
ATOM     17  C   UNL     1      47.443   4.083  16.625  0.00  0.00    +0.000 A 
ATOM     18  N   UNL     1      47.546   5.257  17.313  0.00  0.00    +0.000 N 
ATOM     19  H   UNL     1      46.813   5.934  17.455  0.00  0.00    +0.000 HD
ENDBRANCH  12  14
ENDBRANCH  11  12
BRANCH  11  20
ATOM     20  C   UNL     1      48.388   8.877  18.049  0.00  0.00    +0.000 C 
BRANCH  20  21
ATOM     21  N   UNL     1      47.169   8.251  18.571  0.00  0.00    +0.000 NA
ATOM     22  H   UNL     1      47.086   7.311  18.180  0.00  0.00    +0.000 HD
ATOM     23  H   UNL     1      46.356   8.757  18.214  0.00  0.00    +0.000 HD
ENDBRANCH  20  21
ENDBRANCH  11  20
ENDBRANCH   7  11
ENDBRANCH   1   8
BRANCH   4  24
ATOM     24  C   UNL     1      46.832   8.093  11.793  0.00  0.00    +0.000 C 
BRANCH  24  25
ATOM     25  N   UNL     1      46.290   6.767  11.609  0.00  0.00    +0.000 N 
ATOM     26  C   UNL     1      44.952   6.524  11.451  0.00  0.00    +0.000 C 
ATOM     27  O   UNL     1      44.116   7.424  11.450  0.00  0.00    +0.000 OA
ATOM     28  H   UNL     1      46.918   5.989  11.789  0.00  0.00    +0.000 HD
BRANCH  26  29
ATOM     29  C   UNL     1      44.574   5.128  11.208  0.00  0.00    +0.000 A 
ATOM     30  C   UNL     1      43.782   4.467  12.136  0.00  0.00    +0.000 A 
ATOM     31  S   UNL     1      43.407   2.864  11.696  0.00  0.00    +0.000 S 
ATOM     32  C   UNL     1      44.326   2.983  10.270  0.00  0.00    +0.000 A 
ATOM     33  N   UNL     1      44.450   1.920   9.431  0.00  0.00    +0.000 NA
ATOM     34  C   UNL     1      45.203   2.137   8.404  0.00  0.00    +0.000 A 
ATOM     35  N   UNL     1      45.830   3.324   8.132  0.00  0.00    +0.000 N 
ATOM     36  C   UNL     1      45.686   4.441   8.920  0.00  0.00    +0.000 A 
ATOM     37  O   UNL     1      46.179   5.516   8.592  0.00  0.00    +0.000 OA
ATOM     38  C   UNL     1      44.885   4.239  10.113  0.00  0.00    +0.000 A 
ATOM     39  H   UNL     1      46.386   3.435   7.297  0.00  0.00    +0.000 HD
ENDBRANCH  26  29
ENDBRANCH  24  25
ENDBRANCH   4  24
TORSDOF 9
ENDMDL
MODEL 8
REMARK VINA RESULT:    -6.995      3.354      8.684
REMARK INTER + INTRA:         -10.849
REMARK INTER:                  -9.167
REMARK INTRA:                  -1.682
REMARK UNBOUND:                -0.378
REMARK  Name = 
REMARK  9 active torsions:
REMARK  status: ('A' for Active; 'I' for Inactive)
REMARK    1  A    between atoms: N_1  and  C_2
REMARK    2  A    between atoms: C_2  and  C_3
REMARK    3  A    between atoms: C_3  and  N_4
REMARK    4  A    between atoms: C_3  and  C_27
REMARK    5  A    between atoms: C_5  and  C_7
REMARK    6  A    between atoms: C_10  and  C_11
REMARK    7  A    between atoms: C_11  and  N_12
REMARK    8  A    between atoms: C_13  and  C_15
REMARK    9  A    between atoms: C_27  and  C_29
REMARK                            x       y       z     vdW  Elec       q    Type
REMARK                         _______ _______ _______ _____ _____    ______ ____
ROOT
ATOM      1  C   UNL     1      48.864   9.549  15.315  0.00  0.00    +0.000 C 
ATOM      2  C   UNL     1      49.894   9.715  14.190  0.00  0.00    +0.000 C 
ATOM      3  C   UNL     1      50.445   8.368  13.724  0.00  0.00    +0.000 C 
ATOM      4  C   UNL     1      49.342   7.396  13.266  0.00  0.00    +0.000 C 
ATOM      5  C   UNL     1      48.262   7.250  14.345  0.00  0.00    +0.000 C 
ATOM      6  C   UNL     1      47.741   8.596  14.867  0.00  0.00    +0.000 C 
ENDROOT
BRANCH   1   8
ATOM      7  N   UNL     1      48.677   8.389  17.484  0.00  0.00    +0.000 N 
ATOM      8  C   UNL     1      49.504   9.065  16.620  0.00  0.00    +0.000 C 
ATOM      9  O   UNL     1      50.682   9.265  16.904  0.00  0.00    +0.000 OA
ATOM     10  H   UNL     1      47.715   8.169  17.242  0.00  0.00    +0.000 HD
BRANCH   7  11
ATOM     11  C   UNL     1      49.168   7.996  18.814  0.00  0.00    +0.000 C 
BRANCH  11  12
ATOM     12  C   UNL     1      48.535   6.648  19.195  0.00  0.00    +0.000 C 
ATOM     13  O   UNL     1      48.113   6.456  20.339  0.00  0.00    +0.000 OA
BRANCH  12  14
ATOM     14  C   UNL     1      48.377   5.646  18.161  0.00  0.00    +0.000 A 
ATOM     15  C   UNL     1      49.281   4.961  17.369  0.00  0.00    +0.000 A 
ATOM     16  N   UNL     1      48.633   4.134  16.480  0.00  0.00    +0.000 NA
ATOM     17  C   UNL     1      47.355   4.291  16.727  0.00  0.00    +0.000 A 
ATOM     18  N   UNL     1      47.153   5.169  17.751  0.00  0.00    +0.000 N 
ATOM     19  H   UNL     1      46.263   5.449  18.133  0.00  0.00    +0.000 HD
ENDBRANCH  12  14
ENDBRANCH  11  12
BRANCH  11  20
ATOM     20  C   UNL     1      48.841   9.085  19.860  0.00  0.00    +0.000 C 
BRANCH  20  21
ATOM     21  N   UNL     1      49.656   8.995  21.075  0.00  0.00    +0.000 NA
ATOM     22  H   UNL     1      50.134   8.092  21.088  0.00  0.00    +0.000 HD
ATOM     23  H   UNL     1      49.038   8.976  21.890  0.00  0.00    +0.000 HD
ENDBRANCH  20  21
ENDBRANCH  11  20
ENDBRANCH   7  11
ENDBRANCH   1   8
BRANCH   4  24
ATOM     24  C   UNL     1      48.715   7.801  11.922  0.00  0.00    +0.000 C 
BRANCH  24  25
ATOM     25  N   UNL     1      47.863   6.749  11.416  0.00  0.00    +0.000 N 
ATOM     26  C   UNL     1      46.498   6.842  11.395  0.00  0.00    +0.000 C 
ATOM     27  O   UNL     1      45.899   7.834  11.800  0.00  0.00    +0.000 OA
ATOM     28  H   UNL     1      48.302   5.849  11.248  0.00  0.00    +0.000 HD
BRANCH  26  29
ATOM     29  C   UNL     1      45.784   5.713  10.787  0.00  0.00    +0.000 A 
ATOM     30  C   UNL     1      45.834   5.538   9.411  0.00  0.00    +0.000 A 
ATOM     31  S   UNL     1      44.981   4.169   8.864  0.00  0.00    +0.000 S 
ATOM     32  C   UNL     1      44.480   3.783  10.443  0.00  0.00    +0.000 A 
ATOM     33  N   UNL     1      43.675   2.712  10.676  0.00  0.00    +0.000 NA
ATOM     34  C   UNL     1      43.343   2.555  11.915  0.00  0.00    +0.000 A 
ATOM     35  N   UNL     1      43.754   3.361  12.943  0.00  0.00    +0.000 N 
ATOM     36  C   UNL     1      44.613   4.420  12.762  0.00  0.00    +0.000 A 
ATOM     37  O   UNL     1      45.042   5.059  13.718  0.00  0.00    +0.000 OA
ATOM     38  C   UNL     1      44.983   4.668  11.381  0.00  0.00    +0.000 A 
ATOM     39  H   UNL     1      43.478   3.168  13.894  0.00  0.00    +0.000 HD
ENDBRANCH  26  29
ENDBRANCH  24  25
ENDBRANCH   4  24
TORSDOF 9
ENDMDL
MODEL 9
REMARK VINA RESULT:    -6.901      2.975      5.392
REMARK INTER + INTRA:         -10.708
REMARK INTER:                  -9.802
REMARK INTRA:                  -0.906
REMARK UNBOUND:                -0.378
REMARK  Name = 
REMARK  9 active torsions:
REMARK  status: ('A' for Active; 'I' for Inactive)
REMARK    1  A    between atoms: N_1  and  C_2
REMARK    2  A    between atoms: C_2  and  C_3
REMARK    3  A    between atoms: C_3  and  N_4
REMARK    4  A    between atoms: C_3  and  C_27
REMARK    5  A    between atoms: C_5  and  C_7
REMARK    6  A    between atoms: C_10  and  C_11
REMARK    7  A    between atoms: C_11  and  N_12
REMARK    8  A    between atoms: C_13  and  C_15
REMARK    9  A    between atoms: C_27  and  C_29
REMARK                            x       y       z     vdW  Elec       q    Type
REMARK                         _______ _______ _______ _____ _____    ______ ____
ROOT
ATOM      1  C   UNL     1      48.612   8.549  13.877  0.00  0.00    +0.000 C 
ATOM      2  C   UNL     1      48.626   9.559  15.031  0.00  0.00    +0.000 C 
ATOM      3  C   UNL     1      48.192   8.920  16.350  0.00  0.00    +0.000 C 
ATOM      4  C   UNL     1      49.047   7.697  16.732  0.00  0.00    +0.000 C 
ATOM      5  C   UNL     1      49.104   6.690  15.577  0.00  0.00    +0.000 C 
ATOM      6  C   UNL     1      49.480   7.328  14.234  0.00  0.00    +0.000 C 
ENDROOT
BRANCH   1   8
ATOM      7  N   UNL     1      46.974   6.765  13.408  0.00  0.00    +0.000 N 
ATOM      8  C   UNL     1      47.191   8.118  13.501  0.00  0.00    +0.000 C 
ATOM      9  O   UNL     1      46.284   8.917  13.282  0.00  0.00    +0.000 OA
ATOM     10  H   UNL     1      47.698   6.090  13.637  0.00  0.00    +0.000 HD
BRANCH   7  11
ATOM     11  C   UNL     1      45.677   6.260  12.931  0.00  0.00    +0.000 C 
BRANCH  11  12
ATOM     12  C   UNL     1      45.590   4.757  13.239  0.00  0.00    +0.000 C 
ATOM     13  O   UNL     1      46.187   4.281  14.210  0.00  0.00    +0.000 OA
BRANCH  12  14
ATOM     14  C   UNL     1      44.731   3.933  12.412  0.00  0.00    +0.000 A 
ATOM     15  C   UNL     1      43.365   3.721  12.395  0.00  0.00    +0.000 A 
ATOM     16  N   UNL     1      43.020   2.792  11.441  0.00  0.00    +0.000 NA
ATOM     17  C   UNL     1      44.147   2.448  10.867  0.00  0.00    +0.000 A 
ATOM     18  N   UNL     1      45.202   3.132  11.398  0.00  0.00    +0.000 N 
ATOM     19  H   UNL     1      46.168   3.051  11.122  0.00  0.00    +0.000 HD
ENDBRANCH  12  14
ENDBRANCH  11  12
BRANCH  11  20
ATOM     20  C   UNL     1      45.506   6.535  11.421  0.00  0.00    +0.000 C 
BRANCH  20  21
ATOM     21  N   UNL     1      44.405   7.453  11.113  0.00  0.00    +0.000 NA
ATOM     22  H   UNL     1      43.645   7.295  11.777  0.00  0.00    +0.000 HD
ATOM     23  H   UNL     1      44.013   7.209  10.201  0.00  0.00    +0.000 HD
ENDBRANCH  20  21
ENDBRANCH  11  20
ENDBRANCH   7  11
ENDBRANCH   1   8
BRANCH   4  24
ATOM     24  C   UNL     1      50.465   8.083  17.185  0.00  0.00    +0.000 C 
BRANCH  24  25
ATOM     25  N   UNL     1      51.249   6.905  17.476  0.00  0.00    +0.000 N 
ATOM     26  C   UNL     1      51.056   6.140  18.595  0.00  0.00    +0.000 C 
ATOM     27  O   UNL     1      50.193   6.401  19.430  0.00  0.00    +0.000 OA
ATOM     28  H   UNL     1      52.084   6.763  16.916  0.00  0.00    +0.000 HD
BRANCH  26  29
ATOM     29  C   UNL     1      51.891   4.939  18.707  0.00  0.00    +0.000 A 
ATOM     30  C   UNL     1      53.102   5.014  19.382  0.00  0.00    +0.000 A 
ATOM     31  S   UNL     1      53.940   3.532  19.449  0.00  0.00    +0.000 S 
ATOM     32  C   UNL     1      52.734   2.747  18.542  0.00  0.00    +0.000 A 
ATOM     33  N   UNL     1      52.856   1.434  18.211  0.00  0.00    +0.000 NA
ATOM     34  C   UNL     1      51.887   0.974  17.492  0.00  0.00    +0.000 A 
ATOM     35  N   UNL     1      50.800   1.702  17.087  0.00  0.00    +0.000 N 
ATOM     36  C   UNL     1      50.606   3.015  17.447  0.00  0.00    +0.000 A 
ATOM     37  O   UNL     1      49.572   3.607  17.152  0.00  0.00    +0.000 OA
ATOM     38  C   UNL     1      51.689   3.595  18.219  0.00  0.00    +0.000 A 
ATOM     39  H   UNL     1      50.063   1.274  16.546  0.00  0.00    +0.000 HD
ENDBRANCH  26  29
ENDBRANCH  24  25
ENDBRANCH   4  24
TORSDOF 9
ENDMDL
