MODEL 1
REMARK VINA RESULT:    -7.439      0.000      0.000
REMARK INTER + INTRA:         -12.866
REMARK INTER:                 -11.354
REMARK INTRA:                  -1.512
REMARK UNBOUND:                -1.512
REMARK  Name = 
REMARK  10 active torsions:
REMARK  status: ('A' for Active; 'I' for Inactive)
REMARK    1  A    between atoms: C_2  and  C_23
REMARK    2  A    between atoms: N_3  and  C_4
REMARK    3  A    between atoms: C_4  and  C_5
REMARK    4  A    between atoms: C_8  and  C_9
REMARK    5  A    between atoms: C_9  and  C_10
REMARK    6  A    between atoms: C_10  and  O_11
REMARK    7  A    between atoms: C_10  and  C_12
REMARK    8  A    between atoms: C_12  and  N_13
REMARK    9  A    between atoms: C_17  and  C_18
REMARK   10  A    between atoms: C_18  and  O_19
REMARK                            x       y       z     vdW  Elec       q    Type
REMARK                         _______ _______ _______ _____ _____    ______ ____
ROOT
ATOM      1  C   UNL     1      46.646   6.824  12.850  0.00  0.00    +0.000 A 
ATOM      2  C   UNL     1      45.716   7.396  11.972  0.00  0.00    +0.000 A 
ATOM      3  C   UNL     1      44.809   6.595  11.280  0.00  0.00    +0.000 A 
ATOM      4  C   UNL     1      44.804   5.207  11.463  0.00  0.00    +0.000 A 
ATOM      5  C   UNL     1      45.694   4.640  12.384  0.00  0.00    +0.000 A 
ATOM      6  C   UNL     1      46.608   5.441  13.072  0.00  0.00    +0.000 A 
ENDROOT
BRANCH   1   7
ATOM      7  C   UNL     1      47.646   7.694  13.561  0.00  0.00    +0.000 C 
BRANCH   7  10
ATOM      8  O   UNL     1      50.131   7.037  14.572  0.00  0.00    +0.000 OA
ATOM      9  C   UNL     1      49.168   6.990  15.332  0.00  0.00    +0.000 C 
ATOM     10  N   UNL     1      47.888   7.230  14.901  0.00  0.00    +0.000 N 
ATOM     11  H   UNL     1      47.154   7.393  15.582  0.00  0.00    +0.000 HD
BRANCH   9  12
ATOM     12  C   UNL     1      49.324   6.630  16.744  0.00  0.00    +0.000 A 
ATOM     13  C   UNL     1      49.935   7.518  17.619  0.00  0.00    +0.000 A 
ATOM     14  S   UNL     1      50.044   6.934  19.217  0.00  0.00    +0.000 S 
ATOM     15  C   UNL     1      49.232   5.496  18.804  0.00  0.00    +0.000 A 
ATOM     16  N   UNL     1      48.964   4.550  19.747  0.00  0.00    +0.000 NA
ATOM     17  C   UNL     1      48.315   3.528  19.302  0.00  0.00    +0.000 A 
ATOM     18  N   UNL     1      47.919   3.358  18.000  0.00  0.00    +0.000 N 
ATOM     19  C   UNL     1      48.200   4.268  17.011  0.00  0.00    +0.000 A 
ATOM     20  O   UNL     1      47.879   4.060  15.845  0.00  0.00    +0.000 OA
ATOM     21  C   UNL     1      48.910   5.448  17.462  0.00  0.00    +0.000 A 
ATOM     22  H   UNL     1      47.425   2.525  17.713  0.00  0.00    +0.000 HD
ENDBRANCH   9  12
ENDBRANCH   7  10
ENDBRANCH   1   7
BRANCH   4  23
ATOM     23  C   UNL     1      43.877   4.341  10.641  0.00  0.00    +0.000 C 
BRANCH  23  24
ATOM     24  C   UNL     1      44.115   2.824  10.803  0.00  0.00    +0.000 C 
BRANCH  24  25
ATOM     25  O   UNL     1      43.157   2.243  11.697  0.00  0.00    +0.000 OA
ATOM     26  H   UNL     1      43.618   1.542  12.193  0.00  0.00    +0.000 HD
ENDBRANCH  24  25
BRANCH  24  27
ATOM     27  C   UNL     1      44.139   2.037   9.468  0.00  0.00    +0.000 C 
BRANCH  27  28
ATOM     28  N   UNL     1      45.334   2.294   8.641  0.00  0.00    +0.000 NA
ATOM     29  C   UNL     1      46.002   1.039   8.259  0.00  0.00    +0.000 C 
ATOM     30  C   UNL     1      47.276   1.298   7.460  0.00  0.00    +0.000 C 
ATOM     31  C   UNL     1      46.998   2.170   6.242  0.00  0.00    +0.000 C 
ATOM     32  C   UNL     1      46.244   3.451   6.631  0.00  0.00    +0.000 C 
ATOM     33  C   UNL     1      44.992   3.092   7.453  0.00  0.00    +0.000 C 
BRANCH  32  34
ATOM     34  C   UNL     1      47.131   4.452   7.389  0.00  0.00    +0.000 C 
BRANCH  34  35
ATOM     35  O   UNL     1      46.375   5.177   8.353  0.00  0.00    +0.000 OA
ATOM     36  H   UNL     1      45.868   5.858   7.880  0.00  0.00    +0.000 HD
ENDBRANCH  34  35
ENDBRANCH  32  34
ENDBRANCH  27  28
ENDBRANCH  24  27
ENDBRANCH  23  24
ENDBRANCH   4  23
TORSDOF 10
ENDMDL
MODEL 2
REMARK VINA RESULT:    -7.142      2.824      8.559
REMARK INTER + INTRA:         -12.412
REMARK INTER:                 -10.535
REMARK INTRA:                  -1.876
REMARK UNBOUND:                -1.512
REMARK  Name = 
REMARK  10 active torsions:
REMARK  status: ('A' for Active; 'I' for Inactive)
REMARK    1  A    between atoms: C_2  and  C_23
REMARK    2  A    between atoms: N_3  and  C_4
REMARK    3  A    between atoms: C_4  and  C_5
REMARK    4  A    between atoms: C_8  and  C_9
REMARK    5  A    between atoms: C_9  and  C_10
REMARK    6  A    between atoms: C_10  and  O_11
REMARK    7  A    between atoms: C_10  and  C_12
REMARK    8  A    between atoms: C_12  and  N_13
REMARK    9  A    between atoms: C_17  and  C_18
REMARK   10  A    between atoms: C_18  and  O_19
REMARK                            x       y       z     vdW  Elec       q    Type
REMARK                         _______ _______ _______ _____ _____    ______ ____
ROOT
ATOM      1  C   UNL     1      47.961   8.091  12.923  0.00  0.00    +0.000 A 
ATOM      2  C   UNL     1      47.737   8.515  14.240  0.00  0.00    +0.000 A 
ATOM      3  C   UNL     1      48.775   8.523  15.169  0.00  0.00    +0.000 A 
ATOM      4  C   UNL     1      50.064   8.121  14.796  0.00  0.00    +0.000 A 
ATOM      5  C   UNL     1      50.303   7.751  13.466  0.00  0.00    +0.000 A 
ATOM      6  C   UNL     1      49.260   7.736  12.537  0.00  0.00    +0.000 A 
ENDROOT
BRANCH   1   7
ATOM      7  C   UNL     1      46.823   8.049  11.940  0.00  0.00    +0.000 C 
BRANCH   7  10
ATOM      8  O   UNL     1      44.167   7.409  11.534  0.00  0.00    +0.000 OA
ATOM      9  C   UNL     1      44.989   6.497  11.516  0.00  0.00    +0.000 C 
ATOM     10  N   UNL     1      46.318   6.711  11.778  0.00  0.00    +0.000 N 
ATOM     11  H   UNL     1      46.995   5.991  11.548  0.00  0.00    +0.000 HD
BRANCH   9  12
ATOM     12  C   UNL     1      44.590   5.112  11.255  0.00  0.00    +0.000 A 
ATOM     13  C   UNL     1      43.778   4.445  12.163  0.00  0.00    +0.000 A 
ATOM     14  S   UNL     1      43.423   2.841  11.708  0.00  0.00    +0.000 S 
ATOM     15  C   UNL     1      44.297   3.000  10.257  0.00  0.00    +0.000 A 
ATOM     16  N   UNL     1      44.367   1.972   9.366  0.00  0.00    +0.000 NA
ATOM     17  C   UNL     1      45.035   2.242   8.296  0.00  0.00    +0.000 A 
ATOM     18  N   UNL     1      45.649   3.441   8.038  0.00  0.00    +0.000 N 
ATOM     19  C   UNL     1      45.635   4.491   8.923  0.00  0.00    +0.000 A 
ATOM     20  O   UNL     1      46.241   5.532   8.686  0.00  0.00    +0.000 OA
ATOM     21  C   UNL     1      44.879   4.248  10.134  0.00  0.00    +0.000 A 
ATOM     22  H   UNL     1      46.170   3.583   7.185  0.00  0.00    +0.000 HD
ENDBRANCH   9  12
ENDBRANCH   7  10
ENDBRANCH   1   7
BRANCH   4  23
ATOM     23  C   UNL     1      51.161   8.047  15.833  0.00  0.00    +0.000 C 
BRANCH  23  24
ATOM     24  C   UNL     1      51.535   6.612  16.262  0.00  0.00    +0.000 C 
BRANCH  24  25
ATOM     25  O   UNL     1      52.917   6.527  16.636  0.00  0.00    +0.000 OA
ATOM     26  H   UNL     1      53.280   5.732  16.204  0.00  0.00    +0.000 HD
ENDBRANCH  24  25
BRANCH  24  27
ATOM     27  C   UNL     1      50.645   6.032  17.390  0.00  0.00    +0.000 C 
BRANCH  27  28
ATOM     28  N   UNL     1      49.711   4.983  16.938  0.00  0.00    +0.000 NA
ATOM     29  C   UNL     1      49.992   3.696  17.597  0.00  0.00    +0.000 C 
ATOM     30  C   UNL     1      49.074   2.589  17.086  0.00  0.00    +0.000 C 
ATOM     31  C   UNL     1      47.607   2.976  17.230  0.00  0.00    +0.000 C 
ATOM     32  C   UNL     1      47.326   4.348  16.598  0.00  0.00    +0.000 C 
ATOM     33  C   UNL     1      48.313   5.390  17.154  0.00  0.00    +0.000 C 
BRANCH  32  34
ATOM     34  C   UNL     1      47.369   4.312  15.062  0.00  0.00    +0.000 C 
BRANCH  34  35
ATOM     35  O   UNL     1      46.457   5.252  14.504  0.00  0.00    +0.000 OA
ATOM     36  H   UNL     1      46.898   5.679  13.750  0.00  0.00    +0.000 HD
ENDBRANCH  34  35
ENDBRANCH  32  34
ENDBRANCH  27  28
ENDBRANCH  24  27
ENDBRANCH  23  24
ENDBRANCH   4  23
TORSDOF 10
ENDMDL
MODEL 3
REMARK VINA RESULT:    -6.901      3.453      5.673
REMARK INTER + INTRA:         -12.045
REMARK INTER:                 -10.658
REMARK INTRA:                  -1.387
REMARK UNBOUND:                -1.512
REMARK  Name = 
REMARK  10 active torsions:
REMARK  status: ('A' for Active; 'I' for Inactive)
REMARK    1  A    between atoms: C_2  and  C_23
REMARK    2  A    between atoms: N_3  and  C_4
REMARK    3  A    between atoms: C_4  and  C_5
REMARK    4  A    between atoms: C_8  and  C_9
REMARK    5  A    between atoms: C_9  and  C_10
REMARK    6  A    between atoms: C_10  and  O_11
REMARK    7  A    between atoms: C_10  and  C_12
REMARK    8  A    between atoms: C_12  and  N_13
REMARK    9  A    between atoms: C_17  and  C_18
REMARK   10  A    between atoms: C_18  and  O_19
REMARK                            x       y       z     vdW  Elec       q    Type
REMARK                         _______ _______ _______ _____ _____    ______ ____
ROOT
ATOM      1  C   UNL     1      48.046   4.423  16.522  0.00  0.00    +0.000 A 
ATOM      2  C   UNL     1      47.328   4.107  15.361  0.00  0.00    +0.000 A 
ATOM      3  C   UNL     1      47.254   5.012  14.304  0.00  0.00    +0.000 A 
ATOM      4  C   UNL     1      47.909   6.248  14.381  0.00  0.00    +0.000 A 
ATOM      5  C   UNL     1      48.674   6.542  15.518  0.00  0.00    +0.000 A 
ATOM      6  C   UNL     1      48.742   5.638  16.580  0.00  0.00    +0.000 A 
ENDROOT
BRANCH   1   7
ATOM      7  C   UNL     1      48.085   3.454  17.673  0.00  0.00    +0.000 C 
BRANCH   7  10
ATOM      8  O   UNL     1      49.660   1.718  16.213  0.00  0.00    +0.000 OA
ATOM      9  C   UNL     1      50.162   2.273  17.187  0.00  0.00    +0.000 C 
ATOM     10  N   UNL     1      49.436   3.094  18.011  0.00  0.00    +0.000 N 
ATOM     11  H   UNL     1      49.920   3.696  18.668  0.00  0.00    +0.000 HD
BRANCH   9  12
ATOM     12  C   UNL     1      51.564   2.053  17.555  0.00  0.00    +0.000 A 
ATOM     13  C   UNL     1      52.050   0.758  17.677  0.00  0.00    +0.000 A 
ATOM     14  S   UNL     1      53.694   0.688  18.122  0.00  0.00    +0.000 S 
ATOM     15  C   UNL     1      53.826   2.384  18.115  0.00  0.00    +0.000 A 
ATOM     16  N   UNL     1      55.013   2.995  18.387  0.00  0.00    +0.000 NA
ATOM     17  C   UNL     1      54.976   4.282  18.314  0.00  0.00    +0.000 A 
ATOM     18  N   UNL     1      53.860   5.017  18.005  0.00  0.00    +0.000 N 
ATOM     19  C   UNL     1      52.635   4.446  17.761  0.00  0.00    +0.000 A 
ATOM     20  O   UNL     1      51.643   5.134  17.542  0.00  0.00    +0.000 OA
ATOM     21  C   UNL     1      52.626   2.998  17.809  0.00  0.00    +0.000 A 
ATOM     22  H   UNL     1      53.895   6.026  17.980  0.00  0.00    +0.000 HD
ENDBRANCH   9  12
ENDBRANCH   7  10
ENDBRANCH   1   7
BRANCH   4  23
ATOM     23  C   UNL     1      47.748   7.258  13.268  0.00  0.00    +0.000 C 
BRANCH  23  24
ATOM     24  C   UNL     1      46.353   7.917  13.205  0.00  0.00    +0.000 C 
BRANCH  24  25
ATOM     25  O   UNL     1      46.384   9.246  13.741  0.00  0.00    +0.000 OA
ATOM     26  H   UNL     1      47.043   9.746  13.223  0.00  0.00    +0.000 HD
ENDBRANCH  24  25
BRANCH  24  27
ATOM     27  C   UNL     1      45.719   7.930  11.791  0.00  0.00    +0.000 C 
BRANCH  27  28
ATOM     28  N   UNL     1      44.971   6.702  11.457  0.00  0.00    +0.000 NA
ATOM     29  C   UNL     1      45.792   5.775  10.661  0.00  0.00    +0.000 C 
ATOM     30  C   UNL     1      45.005   4.532  10.253  0.00  0.00    +0.000 C 
ATOM     31  C   UNL     1      44.404   3.836  11.468  0.00  0.00    +0.000 C 
ATOM     32  C   UNL     1      43.599   4.817  12.335  0.00  0.00    +0.000 C 
ATOM     33  C   UNL     1      44.464   6.045  12.673  0.00  0.00    +0.000 C 
BRANCH  32  34
ATOM     34  C   UNL     1      42.276   5.239  11.678  0.00  0.00    +0.000 C 
BRANCH  34  35
ATOM     35  O   UNL     1      42.137   6.656  11.673  0.00  0.00    +0.000 OA
ATOM     36  H   UNL     1      41.601   6.903  12.445  0.00  0.00    +0.000 HD
ENDBRANCH  34  35
ENDBRANCH  32  34
ENDBRANCH  27  28
ENDBRANCH  24  27
ENDBRANCH  23  24
ENDBRANCH   4  23
TORSDOF 10
ENDMDL
MODEL 4
REMARK VINA RESULT:    -6.748      2.760      4.584
REMARK INTER + INTRA:         -11.811
REMARK INTER:                  -9.759
REMARK INTRA:                  -2.052
REMARK UNBOUND:                -1.512
REMARK  Name = 
REMARK  10 active torsions:
REMARK  status: ('A' for Active; 'I' for Inactive)
REMARK    1  A    between atoms: C_2  and  C_23
REMARK    2  A    between atoms: N_3  and  C_4
REMARK    3  A    between atoms: C_4  and  C_5
REMARK    4  A    between atoms: C_8  and  C_9
REMARK    5  A    between atoms: C_9  and  C_10
REMARK    6  A    between atoms: C_10  and  O_11
REMARK    7  A    between atoms: C_10  and  C_12
REMARK    8  A    between atoms: C_12  and  N_13
REMARK    9  A    between atoms: C_17  and  C_18
REMARK   10  A    between atoms: C_18  and  O_19
REMARK                            x       y       z     vdW  Elec       q    Type
REMARK                         _______ _______ _______ _____ _____    ______ ____
ROOT
ATOM      1  C   UNL     1      50.021   8.627  13.563  0.00  0.00    +0.000 A 
ATOM      2  C   UNL     1      49.437   7.862  12.545  0.00  0.00    +0.000 A 
ATOM      3  C   UNL     1      48.264   8.287  11.923  0.00  0.00    +0.000 A 
ATOM      4  C   UNL     1      47.658   9.492  12.297  0.00  0.00    +0.000 A 
ATOM      5  C   UNL     1      48.271  10.286  13.276  0.00  0.00    +0.000 A 
ATOM      6  C   UNL     1      49.443   9.857  13.904  0.00  0.00    +0.000 A 
ENDROOT
BRANCH   1   7
ATOM      7  C   UNL     1      51.264   8.139  14.255  0.00  0.00    +0.000 C 
BRANCH   7  10
ATOM      8  O   UNL     1      50.728   8.560  16.931  0.00  0.00    +0.000 OA
ATOM      9  C   UNL     1      50.647   7.413  16.500  0.00  0.00    +0.000 C 
ATOM     10  N   UNL     1      50.964   7.099  15.203  0.00  0.00    +0.000 N 
ATOM     11  H   UNL     1      50.687   6.200  14.825  0.00  0.00    +0.000 HD
BRANCH   9  12
ATOM     12  C   UNL     1      50.247   6.298  17.362  0.00  0.00    +0.000 A 
ATOM     13  C   UNL     1      50.895   6.096  18.574  0.00  0.00    +0.000 A 
ATOM     14  S   UNL     1      50.311   4.749  19.441  0.00  0.00    +0.000 S 
ATOM     15  C   UNL     1      49.139   4.422  18.253  0.00  0.00    +0.000 A 
ATOM     16  N   UNL     1      48.262   3.390  18.401  0.00  0.00    +0.000 NA
ATOM     17  C   UNL     1      47.408   3.278  17.441  0.00  0.00    +0.000 A 
ATOM     18  N   UNL     1      47.355   4.095  16.341  0.00  0.00    +0.000 N 
ATOM     19  C   UNL     1      48.242   5.123  16.133  0.00  0.00    +0.000 A 
ATOM     20  O   UNL     1      48.201   5.802  15.111  0.00  0.00    +0.000 OA
ATOM     21  C   UNL     1      49.210   5.307  17.194  0.00  0.00    +0.000 A 
ATOM     22  H   UNL     1      46.669   3.944  15.615  0.00  0.00    +0.000 HD
ENDBRANCH   9  12
ENDBRANCH   7  10
ENDBRANCH   1   7
BRANCH   4  23
ATOM     23  C   UNL     1      46.339   9.898  11.680  0.00  0.00    +0.000 C 
BRANCH  23  24
ATOM     24  C   UNL     1      45.124   9.100  12.198  0.00  0.00    +0.000 C 
BRANCH  24  25
ATOM     25  O   UNL     1      44.147   9.968  12.787  0.00  0.00    +0.000 OA
ATOM     26  H   UNL     1      43.331   9.879  12.260  0.00  0.00    +0.000 HD
ENDBRANCH  24  25
BRANCH  24  27
ATOM     27  C   UNL     1      44.454   8.196  11.131  0.00  0.00    +0.000 C 
BRANCH  27  28
ATOM     28  N   UNL     1      44.472   6.759  11.464  0.00  0.00    +0.000 NA
ATOM     29  C   UNL     1      45.108   6.520  12.770  0.00  0.00    +0.000 C 
ATOM     30  C   UNL     1      45.191   5.030  13.092  0.00  0.00    +0.000 C 
ATOM     31  C   UNL     1      43.820   4.370  13.015  0.00  0.00    +0.000 C 
ATOM     32  C   UNL     1      43.128   4.672  11.677  0.00  0.00    +0.000 C 
ATOM     33  C   UNL     1      43.114   6.192  11.427  0.00  0.00    +0.000 C 
BRANCH  32  34
ATOM     34  C   UNL     1      43.770   3.926  10.497  0.00  0.00    +0.000 C 
BRANCH  34  35
ATOM     35  O   UNL     1      43.671   4.686   9.297  0.00  0.00    +0.000 OA
ATOM     36  H   UNL     1      43.483   4.068   8.571  0.00  0.00    +0.000 HD
ENDBRANCH  34  35
ENDBRANCH  32  34
ENDBRANCH  27  28
ENDBRANCH  24  27
ENDBRANCH  23  24
ENDBRANCH   4  23
TORSDOF 10
ENDMDL
MODEL 5
REMARK VINA RESULT:    -6.654      3.149      4.133
REMARK INTER + INTRA:         -11.668
REMARK INTER:                 -10.458
REMARK INTRA:                  -1.210
REMARK UNBOUND:                -1.512
REMARK  Name = 
REMARK  10 active torsions:
REMARK  status: ('A' for Active; 'I' for Inactive)
REMARK    1  A    between atoms: C_2  and  C_23
REMARK    2  A    between atoms: N_3  and  C_4
REMARK    3  A    between atoms: C_4  and  C_5
REMARK    4  A    between atoms: C_8  and  C_9
REMARK    5  A    between atoms: C_9  and  C_10
REMARK    6  A    between atoms: C_10  and  O_11
REMARK    7  A    between atoms: C_10  and  C_12
REMARK    8  A    between atoms: C_12  and  N_13
REMARK    9  A    between atoms: C_17  and  C_18
REMARK   10  A    between atoms: C_18  and  O_19
REMARK                            x       y       z     vdW  Elec       q    Type
REMARK                         _______ _______ _______ _____ _____    ______ ____
ROOT
ATOM      1  C   UNL     1      48.635   5.968  16.179  0.00  0.00    +0.000 A 
ATOM      2  C   UNL     1      47.872   4.795  16.247  0.00  0.00    +0.000 A 
ATOM      3  C   UNL     1      47.083   4.399  15.168  0.00  0.00    +0.000 A 
ATOM      4  C   UNL     1      47.052   5.162  13.994  0.00  0.00    +0.000 A 
ATOM      5  C   UNL     1      47.858   6.304  13.904  0.00  0.00    +0.000 A 
ATOM      6  C   UNL     1      48.643   6.705  14.988  0.00  0.00    +0.000 A 
ENDROOT
BRANCH   1   7
ATOM      7  C   UNL     1      49.451   6.406  17.365  0.00  0.00    +0.000 C 
BRANCH   7  10
ATOM      8  O   UNL     1      50.316   5.420  19.796  0.00  0.00    +0.000 OA
ATOM      9  C   UNL     1      50.922   5.075  18.784  0.00  0.00    +0.000 C 
ATOM     10  N   UNL     1      50.608   5.570  17.544  0.00  0.00    +0.000 N 
ATOM     11  H   UNL     1      50.976   5.113  16.717  0.00  0.00    +0.000 HD
BRANCH   9  12
ATOM     12  C   UNL     1      52.050   4.143  18.849  0.00  0.00    +0.000 A 
ATOM     13  C   UNL     1      53.157   4.453  19.628  0.00  0.00    +0.000 A 
ATOM     14  S   UNL     1      54.379   3.265  19.577  0.00  0.00    +0.000 S 
ATOM     15  C   UNL     1      53.449   2.273  18.556  0.00  0.00    +0.000 A 
ATOM     16  N   UNL     1      53.913   1.058  18.149  0.00  0.00    +0.000 NA
ATOM     17  C   UNL     1      53.091   0.399  17.404  0.00  0.00    +0.000 A 
ATOM     18  N   UNL     1      51.852   0.845  17.020  0.00  0.00    +0.000 N 
ATOM     19  C   UNL     1      51.361   2.078  17.375  0.00  0.00    +0.000 A 
ATOM     20  O   UNL     1      50.271   2.470  16.969  0.00  0.00    +0.000 OA
ATOM     21  C   UNL     1      52.237   2.851  18.231  0.00  0.00    +0.000 A 
ATOM     22  H   UNL     1      51.262   0.285  16.422  0.00  0.00    +0.000 HD
ENDBRANCH   9  12
ENDBRANCH   7  10
ENDBRANCH   1   7
BRANCH   4  23
ATOM     23  C   UNL     1      46.124   4.772  12.865  0.00  0.00    +0.000 C 
BRANCH  23  24
ATOM     24  C   UNL     1      44.636   5.086  13.130  0.00  0.00    +0.000 C 
BRANCH  24  25
ATOM     25  O   UNL     1      44.428   6.492  13.313  0.00  0.00    +0.000 OA
ATOM     26  H   UNL     1      44.222   6.867  12.437  0.00  0.00    +0.000 HD
ENDBRANCH  24  25
BRANCH  24  27
ATOM     27  C   UNL     1      43.670   4.545  12.045  0.00  0.00    +0.000 C 
BRANCH  27  28
ATOM     28  N   UNL     1      44.348   4.015  10.847  0.00  0.00    +0.000 NA
ATOM     29  C   UNL     1      44.123   2.567  10.699  0.00  0.00    +0.000 C 
ATOM     30  C   UNL     1      44.876   1.999   9.499  0.00  0.00    +0.000 C 
ATOM     31  C   UNL     1      44.524   2.748   8.220  0.00  0.00    +0.000 C 
ATOM     32  C   UNL     1      44.698   4.264   8.393  0.00  0.00    +0.000 C 
ATOM     33  C   UNL     1      43.926   4.740   9.637  0.00  0.00    +0.000 C 
BRANCH  32  34
ATOM     34  C   UNL     1      46.174   4.687   8.466  0.00  0.00    +0.000 C 
BRANCH  34  35
ATOM     35  O   UNL     1      46.832   4.462   7.223  0.00  0.00    +0.000 OA
ATOM     36  H   UNL     1      47.260   5.294   6.961  0.00  0.00    +0.000 HD
ENDBRANCH  34  35
ENDBRANCH  32  34
ENDBRANCH  27  28
ENDBRANCH  24  27
ENDBRANCH  23  24
ENDBRANCH   4  23
TORSDOF 10
ENDMDL
MODEL 6
REMARK VINA RESULT:    -6.633      3.282      8.286
REMARK INTER + INTRA:         -11.635
REMARK INTER:                 -10.191
REMARK INTRA:                  -1.444
REMARK UNBOUND:                -1.512
REMARK  Name = 
REMARK  10 active torsions:
REMARK  status: ('A' for Active; 'I' for Inactive)
REMARK    1  A    between atoms: C_2  and  C_23
REMARK    2  A    between atoms: N_3  and  C_4
REMARK    3  A    between atoms: C_4  and  C_5
REMARK    4  A    between atoms: C_8  and  C_9
REMARK    5  A    between atoms: C_9  and  C_10
REMARK    6  A    between atoms: C_10  and  O_11
REMARK    7  A    between atoms: C_10  and  C_12
REMARK    8  A    between atoms: C_12  and  N_13
REMARK    9  A    between atoms: C_17  and  C_18
REMARK   10  A    between atoms: C_18  and  O_19
REMARK                            x       y       z     vdW  Elec       q    Type
REMARK                         _______ _______ _______ _____ _____    ______ ____
ROOT
ATOM      1  C   UNL     1      48.498   8.295  13.282  0.00  0.00    +0.000 A 
ATOM      2  C   UNL     1      48.272   9.474  14.005  0.00  0.00    +0.000 A 
ATOM      3  C   UNL     1      48.419   9.495  15.391  0.00  0.00    +0.000 A 
ATOM      4  C   UNL     1      48.809   8.341  16.081  0.00  0.00    +0.000 A 
ATOM      5  C   UNL     1      49.090   7.176  15.354  0.00  0.00    +0.000 A 
ATOM      6  C   UNL     1      48.936   7.153  13.966  0.00  0.00    +0.000 A 
ENDROOT
BRANCH   1   7
ATOM      7  C   UNL     1      48.297   8.274  11.791  0.00  0.00    +0.000 C 
BRANCH   7  10
ATOM      8  O   UNL     1      45.554   7.968  11.687  0.00  0.00    +0.000 OA
ATOM      9  C   UNL     1      46.254   7.040  11.289  0.00  0.00    +0.000 C 
ATOM     10  N   UNL     1      47.623   7.075  11.369  0.00  0.00    +0.000 N 
ATOM     11  H   UNL     1      48.171   6.401  10.846  0.00  0.00    +0.000 HD
BRANCH   9  12
ATOM     12  C   UNL     1      45.663   5.816  10.742  0.00  0.00    +0.000 A 
ATOM     13  C   UNL     1      45.899   5.468   9.419  0.00  0.00    +0.000 A 
ATOM     14  S   UNL     1      45.126   4.023   8.947  0.00  0.00    +0.000 S 
ATOM     15  C   UNL     1      44.494   3.787  10.509  0.00  0.00    +0.000 A 
ATOM     16  N   UNL     1      43.743   2.688  10.800  0.00  0.00    +0.000 NA
ATOM     17  C   UNL     1      43.357   2.620  12.029  0.00  0.00    +0.000 A 
ATOM     18  N   UNL     1      43.641   3.555  12.992  0.00  0.00    +0.000 N 
ATOM     19  C   UNL     1      44.362   4.695  12.733  0.00  0.00    +0.000 A 
ATOM     20  O   UNL     1      44.553   5.539  13.604  0.00  0.00    +0.000 OA
ATOM     21  C   UNL     1      44.840   4.810  11.370  0.00  0.00    +0.000 A 
ATOM     22  H   UNL     1      43.295   3.449  13.934  0.00  0.00    +0.000 HD
ENDBRANCH   9  12
ENDBRANCH   7  10
ENDBRANCH   1   7
BRANCH   4  23
ATOM     23  C   UNL     1      48.878   8.351  17.591  0.00  0.00    +0.000 C 
BRANCH  23  24
ATOM     24  C   UNL     1      49.928   7.389  18.186  0.00  0.00    +0.000 C 
BRANCH  24  25
ATOM     25  O   UNL     1      50.822   8.080  19.068  0.00  0.00    +0.000 OA
ATOM     26  H   UNL     1      50.275   8.490  19.764  0.00  0.00    +0.000 HD
ENDBRANCH  24  25
BRANCH  24  27
ATOM     27  C   UNL     1      49.325   6.154  18.903  0.00  0.00    +0.000 C 
BRANCH  27  28
ATOM     28  N   UNL     1      48.964   5.049  17.994  0.00  0.00    +0.000 NA
ATOM     29  C   UNL     1      49.680   3.810  18.345  0.00  0.00    +0.000 C 
ATOM     30  C   UNL     1      49.364   2.680  17.370  0.00  0.00    +0.000 C 
ATOM     31  C   UNL     1      47.862   2.442  17.268  0.00  0.00    +0.000 C 
ATOM     32  C   UNL     1      47.108   3.745  16.964  0.00  0.00    +0.000 C 
ATOM     33  C   UNL     1      47.509   4.830  17.981  0.00  0.00    +0.000 C 
BRANCH  32  34
ATOM     34  C   UNL     1      47.326   4.234  15.524  0.00  0.00    +0.000 C 
BRANCH  34  35
ATOM     35  O   UNL     1      47.376   3.139  14.615  0.00  0.00    +0.000 OA
ATOM     36  H   UNL     1      48.118   2.570  14.879  0.00  0.00    +0.000 HD
ENDBRANCH  34  35
ENDBRANCH  32  34
ENDBRANCH  27  28
ENDBRANCH  24  27
ENDBRANCH  23  24
ENDBRANCH   4  23
TORSDOF 10
ENDMDL
MODEL 7
REMARK VINA RESULT:    -6.098      2.913      4.770
REMARK INTER + INTRA:         -10.819
REMARK INTER:                  -9.549
REMARK INTRA:                  -1.270
REMARK UNBOUND:                -1.512
REMARK  Name = 
REMARK  10 active torsions:
REMARK  status: ('A' for Active; 'I' for Inactive)
REMARK    1  A    between atoms: C_2  and  C_23
REMARK    2  A    between atoms: N_3  and  C_4
REMARK    3  A    between atoms: C_4  and  C_5
REMARK    4  A    between atoms: C_8  and  C_9
REMARK    5  A    between atoms: C_9  and  C_10
REMARK    6  A    between atoms: C_10  and  O_11
REMARK    7  A    between atoms: C_10  and  C_12
REMARK    8  A    between atoms: C_12  and  N_13
REMARK    9  A    between atoms: C_17  and  C_18
REMARK   10  A    between atoms: C_18  and  O_19
REMARK                            x       y       z     vdW  Elec       q    Type
REMARK                         _______ _______ _______ _____ _____    ______ ____
ROOT
ATOM      1  C   UNL     1      49.691   8.223  15.848  0.00  0.00    +0.000 A 
ATOM      2  C   UNL     1      49.135   7.001  15.446  0.00  0.00    +0.000 A 
ATOM      3  C   UNL     1      48.369   6.919  14.285  0.00  0.00    +0.000 A 
ATOM      4  C   UNL     1      48.155   8.055  13.494  0.00  0.00    +0.000 A 
ATOM      5  C   UNL     1      48.758   9.265  13.864  0.00  0.00    +0.000 A 
ATOM      6  C   UNL     1      49.520   9.348  15.032  0.00  0.00    +0.000 A 
ENDROOT
BRANCH   1   7
ATOM      7  C   UNL     1      50.482   8.306  17.125  0.00  0.00    +0.000 C 
BRANCH   7  10
ATOM      8  O   UNL     1      50.244   6.486  19.189  0.00  0.00    +0.000 OA
ATOM      9  C   UNL     1      51.086   6.268  18.321  0.00  0.00    +0.000 C 
ATOM     10  N   UNL     1      51.323   7.152  17.300  0.00  0.00    +0.000 N 
ATOM     11  H   UNL     1      51.861   6.851  16.494  0.00  0.00    +0.000 HD
BRANCH   9  12
ATOM     12  C   UNL     1      51.922   5.065  18.351  0.00  0.00    +0.000 A 
ATOM     13  C   UNL     1      53.201   5.128  18.886  0.00  0.00    +0.000 A 
ATOM     14  S   UNL     1      54.036   3.642  18.829  0.00  0.00    +0.000 S 
ATOM     15  C   UNL     1      52.697   2.854  18.136  0.00  0.00    +0.000 A 
ATOM     16  N   UNL     1      52.739   1.521  17.857  0.00  0.00    +0.000 NA
ATOM     17  C   UNL     1      51.644   1.048  17.365  0.00  0.00    +0.000 A 
ATOM     18  N   UNL     1      50.515   1.785  17.116  0.00  0.00    +0.000 N 
ATOM     19  C   UNL     1      50.442   3.137  17.347  0.00  0.00    +0.000 A 
ATOM     20  O   UNL     1      49.435   3.779  17.063  0.00  0.00    +0.000 OA
ATOM     21  C   UNL     1      51.639   3.716  17.922  0.00  0.00    +0.000 A 
ATOM     22  H   UNL     1      49.694   1.356  16.715  0.00  0.00    +0.000 HD
ENDBRANCH   9  12
ENDBRANCH   7  10
ENDBRANCH   1   7
BRANCH   4  23
ATOM     23  C   UNL     1      47.249   7.975  12.286  0.00  0.00    +0.000 C 
BRANCH  23  24
ATOM     24  C   UNL     1      45.755   7.783  12.625  0.00  0.00    +0.000 C 
BRANCH  24  25
ATOM     25  O   UNL     1      45.173   9.002  13.106  0.00  0.00    +0.000 OA
ATOM     26  H   UNL     1      45.890   9.662  13.149  0.00  0.00    +0.000 HD
ENDBRANCH  24  25
BRANCH  24  27
ATOM     27  C   UNL     1      44.906   7.215  11.459  0.00  0.00    +0.000 C 
BRANCH  27  28
ATOM     28  N   UNL     1      44.850   5.741  11.420  0.00  0.00    +0.000 NA
ATOM     29  C   UNL     1      45.407   5.151  12.649  0.00  0.00    +0.000 C 
ATOM     30  C   UNL     1      45.414   3.626  12.589  0.00  0.00    +0.000 C 
ATOM     31  C   UNL     1      44.024   3.077  12.292  0.00  0.00    +0.000 C 
ATOM     32  C   UNL     1      43.416   3.739  11.046  0.00  0.00    +0.000 C 
ATOM     33  C   UNL     1      43.475   5.271  11.187  0.00  0.00    +0.000 C 
BRANCH  32  34
ATOM     34  C   UNL     1      44.089   3.279   9.743  0.00  0.00    +0.000 C 
BRANCH  34  35
ATOM     35  O   UNL     1      44.141   4.338   8.793  0.00  0.00    +0.000 OA
ATOM     36  H   UNL     1      43.451   4.174   8.130  0.00  0.00    +0.000 HD
ENDBRANCH  34  35
ENDBRANCH  32  34
ENDBRANCH  27  28
ENDBRANCH  24  27
ENDBRANCH  23  24
ENDBRANCH   4  23
TORSDOF 10
ENDMDL
MODEL 8
REMARK VINA RESULT:    -6.061      3.522      8.929
REMARK INTER + INTRA:         -10.763
REMARK INTER:                  -9.162
REMARK INTRA:                  -1.600
REMARK UNBOUND:                -1.512
REMARK  Name = 
REMARK  10 active torsions:
REMARK  status: ('A' for Active; 'I' for Inactive)
REMARK    1  A    between atoms: C_2  and  C_23
REMARK    2  A    between atoms: N_3  and  C_4
REMARK    3  A    between atoms: C_4  and  C_5
REMARK    4  A    between atoms: C_8  and  C_9
REMARK    5  A    between atoms: C_9  and  C_10
REMARK    6  A    between atoms: C_10  and  O_11
REMARK    7  A    between atoms: C_10  and  C_12
REMARK    8  A    between atoms: C_12  and  N_13
REMARK    9  A    between atoms: C_17  and  C_18
REMARK   10  A    between atoms: C_18  and  O_19
REMARK                            x       y       z     vdW  Elec       q    Type
REMARK                         _______ _______ _______ _____ _____    ______ ____
ROOT
ATOM      1  C   UNL     1      47.121   8.498  12.247  0.00  0.00    +0.000 A 
ATOM      2  C   UNL     1      48.007   7.482  11.865  0.00  0.00    +0.000 A 
ATOM      3  C   UNL     1      49.314   7.786  11.489  0.00  0.00    +0.000 A 
ATOM      4  C   UNL     1      49.767   9.110  11.501  0.00  0.00    +0.000 A 
ATOM      5  C   UNL     1      48.900  10.121  11.937  0.00  0.00    +0.000 A 
ATOM      6  C   UNL     1      47.587   9.818  12.307  0.00  0.00    +0.000 A 
ENDROOT
BRANCH   1   7
ATOM      7  C   UNL     1      45.701   8.163  12.612  0.00  0.00    +0.000 C 
BRANCH   7  10
ATOM      8  O   UNL     1      43.580   7.249  11.097  0.00  0.00    +0.000 OA
ATOM      9  C   UNL     1      44.369   6.421  11.545  0.00  0.00    +0.000 C 
ATOM     10  N   UNL     1      45.409   6.776  12.366  0.00  0.00    +0.000 N 
ATOM     11  H   UNL     1      46.155   6.112  12.542  0.00  0.00    +0.000 HD
BRANCH   9  12
ATOM     12  C   UNL     1      44.219   4.990  11.264  0.00  0.00    +0.000 A 
ATOM     13  C   UNL     1      43.446   4.200  12.104  0.00  0.00    +0.000 A 
ATOM     14  S   UNL     1      43.390   2.561  11.635  0.00  0.00    +0.000 S 
ATOM     15  C   UNL     1      44.353   2.863  10.265  0.00  0.00    +0.000 A 
ATOM     16  N   UNL     1      44.663   1.862   9.395  0.00  0.00    +0.000 NA
ATOM     17  C   UNL     1      45.372   2.239   8.384  0.00  0.00    +0.000 A 
ATOM     18  N   UNL     1      45.808   3.522   8.169  0.00  0.00    +0.000 N 
ATOM     19  C   UNL     1      45.551   4.552   9.039  0.00  0.00    +0.000 A 
ATOM     20  O   UNL     1      46.002   5.677   8.846  0.00  0.00    +0.000 OA
ATOM     21  C   UNL     1      44.738   4.187  10.182  0.00  0.00    +0.000 A 
ATOM     22  H   UNL     1      46.373   3.748   7.364  0.00  0.00    +0.000 HD
ENDBRANCH   9  12
ENDBRANCH   7  10
ENDBRANCH   1   7
BRANCH   4  23
ATOM     23  C   UNL     1      51.157   9.438  11.005  0.00  0.00    +0.000 C 
BRANCH  23  24
ATOM     24  C   UNL     1      52.275   8.585  11.640  0.00  0.00    +0.000 C 
BRANCH  24  25
ATOM     25  O   UNL     1      53.438   8.549  10.803  0.00  0.00    +0.000 OA
ATOM     26  H   UNL     1      53.189   8.070   9.990  0.00  0.00    +0.000 HD
ENDBRANCH  24  25
BRANCH  24  27
ATOM     27  C   UNL     1      52.670   9.019  13.075  0.00  0.00    +0.000 C 
BRANCH  27  28
ATOM     28  N   UNL     1      52.017   8.234  14.141  0.00  0.00    +0.000 NA
ATOM     29  C   UNL     1      52.997   7.757  15.131  0.00  0.00    +0.000 C 
ATOM     30  C   UNL     1      52.340   6.888  16.200  0.00  0.00    +0.000 C 
ATOM     31  C   UNL     1      51.184   7.617  16.873  0.00  0.00    +0.000 C 
ATOM     32  C   UNL     1      50.193   8.171  15.837  0.00  0.00    +0.000 C 
ATOM     33  C   UNL     1      50.948   9.011  14.790  0.00  0.00    +0.000 C 
BRANCH  32  34
ATOM     34  C   UNL     1      49.362   7.068  15.163  0.00  0.00    +0.000 C 
BRANCH  34  35
ATOM     35  O   UNL     1      47.972   7.254  15.408  0.00  0.00    +0.000 OA
ATOM     36  H   UNL     1      47.772   6.875  16.280  0.00  0.00    +0.000 HD
ENDBRANCH  34  35
ENDBRANCH  32  34
ENDBRANCH  27  28
ENDBRANCH  24  27
ENDBRANCH  23  24
ENDBRANCH   4  23
TORSDOF 10
ENDMDL
MODEL 9
REMARK VINA RESULT:    -5.848      5.789      8.059
REMARK INTER + INTRA:         -10.438
REMARK INTER:                  -9.658
REMARK INTRA:                  -0.780
REMARK UNBOUND:                -1.512
REMARK  Name = 
REMARK  10 active torsions:
REMARK  status: ('A' for Active; 'I' for Inactive)
REMARK    1  A    between atoms: C_2  and  C_23
REMARK    2  A    between atoms: N_3  and  C_4
REMARK    3  A    between atoms: C_4  and  C_5
REMARK    4  A    between atoms: C_8  and  C_9
REMARK    5  A    between atoms: C_9  and  C_10
REMARK    6  A    between atoms: C_10  and  O_11
REMARK    7  A    between atoms: C_10  and  C_12
REMARK    8  A    between atoms: C_12  and  N_13
REMARK    9  A    between atoms: C_17  and  C_18
REMARK   10  A    between atoms: C_18  and  O_19
REMARK                            x       y       z     vdW  Elec       q    Type
REMARK                         _______ _______ _______ _____ _____    ______ ____
ROOT
ATOM      1  C   UNL     1      51.578   3.053  18.140  0.00  0.00    +0.000 A 
ATOM      2  C   UNL     1      50.843   4.130  18.653  0.00  0.00    +0.000 A 
ATOM      3  C   UNL     1      49.506   4.306  18.303  0.00  0.00    +0.000 A 
ATOM      4  C   UNL     1      48.872   3.400  17.444  0.00  0.00    +0.000 A 
ATOM      5  C   UNL     1      49.589   2.291  16.976  0.00  0.00    +0.000 A 
ATOM      6  C   UNL     1      50.932   2.119  17.321  0.00  0.00    +0.000 A 
ENDROOT
BRANCH   1   7
ATOM      7  C   UNL     1      53.033   2.896  18.493  0.00  0.00    +0.000 C 
BRANCH   7  10
ATOM      8  O   UNL     1      55.503   1.955  19.291  0.00  0.00    +0.000 OA
ATOM      9  C   UNL     1      54.670   1.137  18.909  0.00  0.00    +0.000 C 
ATOM     10  N   UNL     1      53.444   1.519  18.428  0.00  0.00    +0.000 N 
ATOM     11  H   UNL     1      52.710   0.826  18.324  0.00  0.00    +0.000 HD
BRANCH   9  12
ATOM     12  C   UNL     1      54.955  -0.300  18.903  0.00  0.00    +0.000 A 
ATOM     13  C   UNL     1      55.242  -0.951  20.096  0.00  0.00    +0.000 A 
ATOM     14  S   UNL     1      55.560  -2.615  19.904  0.00  0.00    +0.000 S 
ATOM     15  C   UNL     1      55.272  -2.532  18.229  0.00  0.00    +0.000 A 
ATOM     16  N   UNL     1      55.348  -3.649  17.451  0.00  0.00    +0.000 NA
ATOM     17  C   UNL     1      55.075  -3.446  16.206  0.00  0.00    +0.000 A 
ATOM     18  N   UNL     1      54.743  -2.231  15.665  0.00  0.00    +0.000 N 
ATOM     19  C   UNL     1      54.692  -1.075  16.404  0.00  0.00    +0.000 A 
ATOM     20  O   UNL     1      54.445   0.007  15.879  0.00  0.00    +0.000 OA
ATOM     21  C   UNL     1      54.969  -1.249  17.815  0.00  0.00    +0.000 A 
ATOM     22  H   UNL     1      54.555  -2.138  14.677  0.00  0.00    +0.000 HD
ENDBRANCH   9  12
ENDBRANCH   7  10
ENDBRANCH   1   7
BRANCH   4  23
ATOM     23  C   UNL     1      47.448   3.650  17.000  0.00  0.00    +0.000 C 
BRANCH  23  24
ATOM     24  C   UNL     1      47.323   4.491  15.712  0.00  0.00    +0.000 C 
BRANCH  24  25
ATOM     25  O   UNL     1      48.441   5.376  15.561  0.00  0.00    +0.000 OA
ATOM     26  H   UNL     1      48.558   5.527  14.605  0.00  0.00    +0.000 HD
ENDBRANCH  24  25
BRANCH  24  27
ATOM     27  C   UNL     1      47.132   3.654  14.422  0.00  0.00    +0.000 C 
BRANCH  27  28
ATOM     28  N   UNL     1      45.948   4.037  13.628  0.00  0.00    +0.000 NA
ATOM     29  C   UNL     1      45.900   5.492  13.405  0.00  0.00    +0.000 C 
ATOM     30  C   UNL     1      44.644   5.903  12.642  0.00  0.00    +0.000 C 
ATOM     31  C   UNL     1      44.517   5.138  11.331  0.00  0.00    +0.000 C 
ATOM     32  C   UNL     1      44.631   3.622  11.555  0.00  0.00    +0.000 C 
ATOM     33  C   UNL     1      45.911   3.307  12.351  0.00  0.00    +0.000 C 
BRANCH  32  34
ATOM     34  C   UNL     1      43.392   3.031  12.247  0.00  0.00    +0.000 C 
BRANCH  34  35
ATOM     35  O   UNL     1      43.042   1.773  11.680  0.00  0.00    +0.000 OA
ATOM     36  H   UNL     1      43.858   1.358  11.354  0.00  0.00    +0.000 HD
ENDBRANCH  34  35
ENDBRANCH  32  34
ENDBRANCH  27  28
ENDBRANCH  24  27
ENDBRANCH  23  24
ENDBRANCH   4  23
TORSDOF 10
ENDMDL
