MODEL 1
REMARK VINA RESULT:    -8.175      0.000      0.000
REMARK INTER + INTRA:         -12.472
REMARK INTER:                 -11.520
REMARK INTRA:                  -0.951
REMARK UNBOUND:                -0.951
REMARK  Name = 
REMARK  7 active torsions:
REMARK  status: ('A' for Active; 'I' for Inactive)
REMARK    1  A    between atoms: C_2  and  C_19
REMARK    2  A    between atoms: N_3  and  C_4
REMARK    3  A    between atoms: C_4  and  C_5
REMARK    4  A    between atoms: C_8  and  C_9
REMARK    5  A    between atoms: C_9  and  O_10
REMARK    6  A    between atoms: O_10  and  C_11
REMARK    7  A    between atoms: C_11  and  C_12
REMARK                            x       y       z     vdW  Elec       q    Type
REMARK                         _______ _______ _______ _____ _____    ______ ____
ROOT
ATOM      1  C   UNL     1      46.310   7.704  12.827  0.00  0.00    +0.000 C 
ENDROOT
BRANCH   1   2
ATOM      2  C   UNL     1      45.655   6.513  12.194  0.00  0.00    +0.000 A 
ATOM      3  C   UNL     1      45.831   6.225  10.840  0.00  0.00    +0.000 A 
ATOM      4  C   UNL     1      45.268   5.072  10.300  0.00  0.00    +0.000 A 
ATOM      5  C   UNL     1      44.534   4.229  11.131  0.00  0.00    +0.000 A 
ATOM      6  N   UNL     1      44.307   4.514  12.439  0.00  0.00    +0.000 NA
ATOM      7  C   UNL     1      44.857   5.647  12.932  0.00  0.00    +0.000 A 
BRANCH   5   8
ATOM      8  C   UNL     1      44.044   2.897  10.606  0.00  0.00    +0.000 C 
BRANCH   8   9
ATOM      9  O   UNL     1      44.190   2.775   9.178  0.00  0.00    +0.000 OA
BRANCH   9  10
ATOM     10  C   UNL     1      45.102   1.735   8.825  0.00  0.00    +0.000 C 
BRANCH  10  11
ATOM     11  C   UNL     1      46.297   2.260   8.042  0.00  0.00    +0.000 C 
ATOM     12  C   UNL     1      47.098   1.206   7.298  0.00  0.00    +0.000 C 
ATOM     13  C   UNL     1      47.992   2.084   6.446  0.00  0.00    +0.000 C 
ATOM     14  N   UNL     1      47.121   3.177   5.986  0.00  0.00    +0.000 NA
ATOM     15  C   UNL     1      45.980   3.249   6.925  0.00  0.00    +0.000 C 
ATOM     16  H   UNL     1      46.755   2.936   5.064  0.00  0.00    +0.000 HD
ENDBRANCH  10  11
ENDBRANCH   9  10
ENDBRANCH   8   9
ENDBRANCH   5   8
ENDBRANCH   1   2
BRANCH   1  19
ATOM     17  O   UNL     1      48.715   6.264  13.015  0.00  0.00    +0.000 OA
ATOM     18  C   UNL     1      48.187   6.675  14.046  0.00  0.00    +0.000 C 
ATOM     19  N   UNL     1      47.001   7.357  14.040  0.00  0.00    +0.000 N 
ATOM     20  H   UNL     1      46.682   7.807  14.892  0.00  0.00    +0.000 HD
BRANCH  18  21
ATOM     21  C   UNL     1      48.779   6.408  15.362  0.00  0.00    +0.000 A 
ATOM     22  C   UNL     1      49.789   7.230  15.844  0.00  0.00    +0.000 A 
ATOM     23  S   UNL     1      50.353   6.784  17.389  0.00  0.00    +0.000 S 
ATOM     24  C   UNL     1      49.240   5.501  17.486  0.00  0.00    +0.000 A 
ATOM     25  N   UNL     1      49.165   4.724  18.600  0.00  0.00    +0.000 NA
ATOM     26  C   UNL     1      48.251   3.813  18.555  0.00  0.00    +0.000 A 
ATOM     27  N   UNL     1      47.417   3.597  17.489  0.00  0.00    +0.000 N 
ATOM     28  C   UNL     1      47.512   4.301  16.313  0.00  0.00    +0.000 A 
ATOM     29  O   UNL     1      46.857   3.984  15.328  0.00  0.00    +0.000 OA
ATOM     30  C   UNL     1      48.478   5.383  16.337  0.00  0.00    +0.000 A 
ATOM     31  H   UNL     1      46.751   2.839  17.502  0.00  0.00    +0.000 HD
ENDBRANCH  18  21
ENDBRANCH   1  19
TORSDOF 7
ENDMDL
MODEL 2
REMARK VINA RESULT:    -7.883      1.574      1.773
REMARK INTER + INTRA:         -12.060
REMARK INTER:                 -11.151
REMARK INTRA:                  -0.909
REMARK UNBOUND:                -0.951
REMARK  Name = 
REMARK  7 active torsions:
REMARK  status: ('A' for Active; 'I' for Inactive)
REMARK    1  A    between atoms: C_2  and  C_19
REMARK    2  A    between atoms: N_3  and  C_4
REMARK    3  A    between atoms: C_4  and  C_5
REMARK    4  A    between atoms: C_8  and  C_9
REMARK    5  A    between atoms: C_9  and  O_10
REMARK    6  A    between atoms: O_10  and  C_11
REMARK    7  A    between atoms: C_11  and  C_12
REMARK                            x       y       z     vdW  Elec       q    Type
REMARK                         _______ _______ _______ _____ _____    ______ ____
ROOT
ATOM      1  C   UNL     1      47.896   6.668  13.387  0.00  0.00    +0.000 C 
ENDROOT
BRANCH   1   2
ATOM      2  C   UNL     1      46.809   5.787  12.848  0.00  0.00    +0.000 A 
ATOM      3  C   UNL     1      46.200   6.055  11.622  0.00  0.00    +0.000 A 
ATOM      4  C   UNL     1      45.246   5.177  11.117  0.00  0.00    +0.000 A 
ATOM      5  C   UNL     1      44.917   4.044  11.856  0.00  0.00    +0.000 A 
ATOM      6  N   UNL     1      45.458   3.788  13.075  0.00  0.00    +0.000 NA
ATOM      7  C   UNL     1      46.374   4.665  13.545  0.00  0.00    +0.000 A 
BRANCH   5   8
ATOM      8  C   UNL     1      43.999   2.999  11.260  0.00  0.00    +0.000 C 
BRANCH   8   9
ATOM      9  O   UNL     1      43.935   3.070   9.823  0.00  0.00    +0.000 OA
BRANCH   9  10
ATOM     10  C   UNL     1      44.726   2.055   9.206  0.00  0.00    +0.000 C 
BRANCH  10  11
ATOM     11  C   UNL     1      45.967   2.623   8.532  0.00  0.00    +0.000 C 
ATOM     12  C   UNL     1      46.664   1.687   7.561  0.00  0.00    +0.000 C 
ATOM     13  C   UNL     1      47.639   2.641   6.903  0.00  0.00    +0.000 C 
ATOM     14  N   UNL     1      46.877   3.885   6.707  0.00  0.00    +0.000 NA
ATOM     15  C   UNL     1      45.747   3.857   7.662  0.00  0.00    +0.000 C 
ATOM     16  H   UNL     1      46.491   3.885   5.762  0.00  0.00    +0.000 HD
ENDBRANCH  10  11
ENDBRANCH   9  10
ENDBRANCH   8   9
ENDBRANCH   5   8
ENDBRANCH   1   2
BRANCH   1  19
ATOM     17  O   UNL     1      50.116   6.704  15.108  0.00  0.00    +0.000 OA
ATOM     18  C   UNL     1      48.989   6.794  15.590  0.00  0.00    +0.000 C 
ATOM     19  N   UNL     1      47.858   6.754  14.822  0.00  0.00    +0.000 N 
ATOM     20  H   UNL     1      46.963   6.984  15.242  0.00  0.00    +0.000 HD
BRANCH  18  21
ATOM     21  C   UNL     1      48.789   6.898  17.040  0.00  0.00    +0.000 A 
ATOM     22  C   UNL     1      48.435   8.117  17.603  0.00  0.00    +0.000 A 
ATOM     23  S   UNL     1      48.232   8.057  19.294  0.00  0.00    +0.000 S 
ATOM     24  C   UNL     1      48.572   6.390  19.330  0.00  0.00    +0.000 A 
ATOM     25  N   UNL     1      48.523   5.692  20.496  0.00  0.00    +0.000 NA
ATOM     26  C   UNL     1      48.764   4.430  20.374  0.00  0.00    +0.000 A 
ATOM     27  N   UNL     1      49.067   3.804  19.193  0.00  0.00    +0.000 N 
ATOM     28  C   UNL     1      49.209   4.481  18.006  0.00  0.00    +0.000 A 
ATOM     29  O   UNL     1      49.627   3.921  17.001  0.00  0.00    +0.000 OA
ATOM     30  C   UNL     1      48.881   5.892  18.077  0.00  0.00    +0.000 A 
ATOM     31  H   UNL     1      49.286   2.819  19.173  0.00  0.00    +0.000 HD
ENDBRANCH  18  21
ENDBRANCH   1  19
TORSDOF 7
ENDMDL
MODEL 3
REMARK VINA RESULT:    -7.423      2.490      2.945
REMARK INTER + INTRA:         -11.413
REMARK INTER:                 -10.477
REMARK INTRA:                  -0.935
REMARK UNBOUND:                -0.951
REMARK  Name = 
REMARK  7 active torsions:
REMARK  status: ('A' for Active; 'I' for Inactive)
REMARK    1  A    between atoms: C_2  and  C_19
REMARK    2  A    between atoms: N_3  and  C_4
REMARK    3  A    between atoms: C_4  and  C_5
REMARK    4  A    between atoms: C_8  and  C_9
REMARK    5  A    between atoms: C_9  and  O_10
REMARK    6  A    between atoms: O_10  and  C_11
REMARK    7  A    between atoms: C_11  and  C_12
REMARK                            x       y       z     vdW  Elec       q    Type
REMARK                         _______ _______ _______ _____ _____    ______ ____
ROOT
ATOM      1  C   UNL     1      48.069   6.396  13.920  0.00  0.00    +0.000 C 
ENDROOT
BRANCH   1   2
ATOM      2  C   UNL     1      46.984   5.620  13.233  0.00  0.00    +0.000 A 
ATOM      3  C   UNL     1      46.385   6.093  12.066  0.00  0.00    +0.000 A 
ATOM      4  C   UNL     1      45.432   5.316  11.414  0.00  0.00    +0.000 A 
ATOM      5  C   UNL     1      45.095   4.076  11.949  0.00  0.00    +0.000 A 
ATOM      6  N   UNL     1      45.627   3.616  13.112  0.00  0.00    +0.000 NA
ATOM      7  C   UNL     1      46.541   4.399  13.729  0.00  0.00    +0.000 A 
BRANCH   5   8
ATOM      8  C   UNL     1      44.180   3.148  11.180  0.00  0.00    +0.000 C 
BRANCH   8   9
ATOM      9  O   UNL     1      44.304   3.303   9.753  0.00  0.00    +0.000 OA
BRANCH   9  10
ATOM     10  C   UNL     1      44.863   2.141   9.141  0.00  0.00    +0.000 C 
BRANCH  10  11
ATOM     11  C   UNL     1      46.134   2.455   8.363  0.00  0.00    +0.000 C 
ATOM     12  C   UNL     1      46.739   1.285   7.611  0.00  0.00    +0.000 C 
ATOM     13  C   UNL     1      47.775   2.000   6.768  0.00  0.00    +0.000 C 
ATOM     14  N   UNL     1      47.110   3.233   6.316  0.00  0.00    +0.000 NA
ATOM     15  C   UNL     1      45.997   3.495   7.255  0.00  0.00    +0.000 C 
ATOM     16  H   UNL     1      46.710   3.068   5.392  0.00  0.00    +0.000 HD
ENDBRANCH  10  11
ENDBRANCH   9  10
ENDBRANCH   8   9
ENDBRANCH   5   8
ENDBRANCH   1   2
BRANCH   1  19
ATOM     17  O   UNL     1      50.042   6.056  15.891  0.00  0.00    +0.000 OA
ATOM     18  C   UNL     1      48.891   6.308  16.240  0.00  0.00    +0.000 C 
ATOM     19  N   UNL     1      47.868   6.456  15.343  0.00  0.00    +0.000 N 
ATOM     20  H   UNL     1      46.973   6.812  15.663  0.00  0.00    +0.000 HD
BRANCH  18  21
ATOM     21  C   UNL     1      48.532   6.411  17.659  0.00  0.00    +0.000 A 
ATOM     22  C   UNL     1      48.629   5.295  18.479  0.00  0.00    +0.000 A 
ATOM     23  S   UNL     1      48.185   5.595  20.097  0.00  0.00    +0.000 S 
ATOM     24  C   UNL     1      47.886   7.237  19.768  0.00  0.00    +0.000 A 
ATOM     25  N   UNL     1      47.508   8.090  20.758  0.00  0.00    +0.000 NA
ATOM     26  C   UNL     1      47.353   9.314  20.379  0.00  0.00    +0.000 A 
ATOM     27  N   UNL     1      47.524   9.759  19.094  0.00  0.00    +0.000 N 
ATOM     28  C   UNL     1      47.825   8.921  18.047  0.00  0.00    +0.000 A 
ATOM     29  O   UNL     1      47.822   9.322  16.891  0.00  0.00    +0.000 OA
ATOM     30  C   UNL     1      48.077   7.546  18.433  0.00  0.00    +0.000 A 
ATOM     31  H   UNL     1      47.346  10.724  18.854  0.00  0.00    +0.000 HD
ENDBRANCH  18  21
ENDBRANCH   1  19
TORSDOF 7
ENDMDL
MODEL 4
REMARK VINA RESULT:    -7.304      3.181      4.366
REMARK INTER + INTRA:         -11.244
REMARK INTER:                 -10.215
REMARK INTRA:                  -1.030
REMARK UNBOUND:                -0.951
REMARK  Name = 
REMARK  7 active torsions:
REMARK  status: ('A' for Active; 'I' for Inactive)
REMARK    1  A    between atoms: C_2  and  C_19
REMARK    2  A    between atoms: N_3  and  C_4
REMARK    3  A    between atoms: C_4  and  C_5
REMARK    4  A    between atoms: C_8  and  C_9
REMARK    5  A    between atoms: C_9  and  O_10
REMARK    6  A    between atoms: O_10  and  C_11
REMARK    7  A    between atoms: C_11  and  C_12
REMARK                            x       y       z     vdW  Elec       q    Type
REMARK                         _______ _______ _______ _____ _____    ______ ____
ROOT
ATOM      1  C   UNL     1      49.101   6.476  16.542  0.00  0.00    +0.000 C 
ENDROOT
BRANCH   1   2
ATOM      2  C   UNL     1      48.208   5.748  15.581  0.00  0.00    +0.000 A 
ATOM      3  C   UNL     1      47.996   6.225  14.287  0.00  0.00    +0.000 A 
ATOM      4  C   UNL     1      47.221   5.488  13.398  0.00  0.00    +0.000 A 
ATOM      5  C   UNL     1      46.669   4.284  13.825  0.00  0.00    +0.000 A 
ATOM      6  N   UNL     1      46.819   3.824  15.094  0.00  0.00    +0.000 NA
ATOM      7  C   UNL     1      47.568   4.568  15.939  0.00  0.00    +0.000 A 
BRANCH   5   8
ATOM      8  C   UNL     1      45.953   3.392  12.834  0.00  0.00    +0.000 C 
BRANCH   8   9
ATOM      9  O   UNL     1      44.519   3.453  12.965  0.00  0.00    +0.000 OA
BRANCH   9  10
ATOM     10  C   UNL     1      43.859   3.030  11.772  0.00  0.00    +0.000 C 
BRANCH  10  11
ATOM     11  C   UNL     1      44.668   3.350  10.523  0.00  0.00    +0.000 C 
ATOM     12  C   UNL     1      44.639   2.286   9.441  0.00  0.00    +0.000 C 
ATOM     13  C   UNL     1      45.286   3.035   8.294  0.00  0.00    +0.000 C 
ATOM     14  N   UNL     1      44.725   4.393   8.365  0.00  0.00    +0.000 NA
ATOM     15  C   UNL     1      44.233   4.589   9.746  0.00  0.00    +0.000 C 
ATOM     16  H   UNL     1      43.924   4.449   7.734  0.00  0.00    +0.000 HD
ENDBRANCH  10  11
ENDBRANCH   9  10
ENDBRANCH   8   9
ENDBRANCH   5   8
ENDBRANCH   1   2
BRANCH   1  19
ATOM     17  O   UNL     1      49.581   5.610  19.171  0.00  0.00    +0.000 OA
ATOM     18  C   UNL     1      50.349   5.255  18.279  0.00  0.00    +0.000 C 
ATOM     19  N   UNL     1      50.200   5.659  16.980  0.00  0.00    +0.000 N 
ATOM     20  H   UNL     1      50.761   5.222  16.256  0.00  0.00    +0.000 HD
BRANCH  18  21
ATOM     21  C   UNL     1      51.513   4.409  18.569  0.00  0.00    +0.000 A 
ATOM     22  C   UNL     1      52.525   4.887  19.391  0.00  0.00    +0.000 A 
ATOM     23  S   UNL     1      53.793   3.774  19.630  0.00  0.00    +0.000 S 
ATOM     24  C   UNL     1      53.015   2.599  18.677  0.00  0.00    +0.000 A 
ATOM     25  N   UNL     1      53.561   1.365  18.506  0.00  0.00    +0.000 NA
ATOM     26  C   UNL     1      52.848   0.559  17.793  0.00  0.00    +0.000 A 
ATOM     27  N   UNL     1      51.645   0.882  17.219  0.00  0.00    +0.000 N 
ATOM     28  C   UNL     1      51.096   2.139  17.295  0.00  0.00    +0.000 A 
ATOM     29  O   UNL     1      50.101   2.438  16.648  0.00  0.00    +0.000 OA
ATOM     30  C   UNL     1      51.826   3.062  18.144  0.00  0.00    +0.000 A 
ATOM     31  H   UNL     1      51.157   0.218  16.637  0.00  0.00    +0.000 HD
ENDBRANCH  18  21
ENDBRANCH   1  19
TORSDOF 7
ENDMDL
MODEL 5
REMARK VINA RESULT:    -7.058      2.858      8.247
REMARK INTER + INTRA:         -10.897
REMARK INTER:                  -9.691
REMARK INTRA:                  -1.206
REMARK UNBOUND:                -0.951
REMARK  Name = 
REMARK  7 active torsions:
REMARK  status: ('A' for Active; 'I' for Inactive)
REMARK    1  A    between atoms: C_2  and  C_19
REMARK    2  A    between atoms: N_3  and  C_4
REMARK    3  A    between atoms: C_4  and  C_5
REMARK    4  A    between atoms: C_8  and  C_9
REMARK    5  A    between atoms: C_9  and  O_10
REMARK    6  A    between atoms: O_10  and  C_11
REMARK    7  A    between atoms: C_11  and  C_12
REMARK                            x       y       z     vdW  Elec       q    Type
REMARK                         _______ _______ _______ _____ _____    ______ ____
ROOT
ATOM      1  C   UNL     1      47.380   7.930  11.857  0.00  0.00    +0.000 C 
ENDROOT
BRANCH   1   2
ATOM      2  C   UNL     1      48.105   7.979  13.169  0.00  0.00    +0.000 A 
ATOM      3  C   UNL     1      47.875   9.005  14.085  0.00  0.00    +0.000 A 
ATOM      4  C   UNL     1      48.509   8.982  15.323  0.00  0.00    +0.000 A 
ATOM      5  C   UNL     1      49.368   7.927  15.618  0.00  0.00    +0.000 A 
ATOM      6  N   UNL     1      49.647   6.943  14.725  0.00  0.00    +0.000 NA
ATOM      7  C   UNL     1      49.024   6.999  13.525  0.00  0.00    +0.000 A 
BRANCH   5   8
ATOM      8  C   UNL     1      49.949   7.797  17.010  0.00  0.00    +0.000 C 
BRANCH   8   9
ATOM      9  O   UNL     1      49.012   7.241  17.953  0.00  0.00    +0.000 OA
BRANCH   9  10
ATOM     10  C   UNL     1      49.372   5.915  18.337  0.00  0.00    +0.000 C 
BRANCH  10  11
ATOM     11  C   UNL     1      48.606   4.860  17.550  0.00  0.00    +0.000 C 
ATOM     12  C   UNL     1      49.117   3.439  17.704  0.00  0.00    +0.000 C 
ATOM     13  C   UNL     1      47.996   2.666  17.039  0.00  0.00    +0.000 C 
ATOM     14  N   UNL     1      46.761   3.330  17.486  0.00  0.00    +0.000 NA
ATOM     15  C   UNL     1      47.134   4.697  17.912  0.00  0.00    +0.000 C 
ATOM     16  H   UNL     1      46.401   2.834  18.302  0.00  0.00    +0.000 HD
ENDBRANCH  10  11
ENDBRANCH   9  10
ENDBRANCH   8   9
ENDBRANCH   5   8
ENDBRANCH   1   2
BRANCH   1  19
ATOM     17  O   UNL     1      44.627   7.429  12.114  0.00  0.00    +0.000 OA
ATOM     18  C   UNL     1      45.368   6.511  11.769  0.00  0.00    +0.000 C 
ATOM     19  N   UNL     1      46.723   6.667  11.651  0.00  0.00    +0.000 N 
ATOM     20  H   UNL     1      47.273   5.932  11.220  0.00  0.00    +0.000 HD
BRANCH  18  21
ATOM     21  C   UNL     1      44.843   5.165  11.513  0.00  0.00    +0.000 A 
ATOM     22  C   UNL     1      44.138   4.498  12.507  0.00  0.00    +0.000 A 
ATOM     23  S   UNL     1      43.592   2.954  12.038  0.00  0.00    +0.000 S 
ATOM     24  C   UNL     1      44.244   3.136  10.477  0.00  0.00    +0.000 A 
ATOM     25  N   UNL     1      44.086   2.167   9.536  0.00  0.00    +0.000 NA
ATOM     26  C   UNL     1      44.596   2.452   8.385  0.00  0.00    +0.000 A 
ATOM     27  N   UNL     1      45.267   3.611   8.094  0.00  0.00    +0.000 N 
ATOM     28  C   UNL     1      45.522   4.581   9.034  0.00  0.00    +0.000 A 
ATOM     29  O   UNL     1      46.252   5.531   8.784  0.00  0.00    +0.000 OA
ATOM     30  C   UNL     1      44.910   4.339  10.327  0.00  0.00    +0.000 A 
ATOM     31  H   UNL     1      45.679   3.754   7.184  0.00  0.00    +0.000 HD
ENDBRANCH  18  21
ENDBRANCH   1  19
TORSDOF 7
ENDMDL
MODEL 6
REMARK VINA RESULT:    -6.983      2.355      3.528
REMARK INTER + INTRA:         -10.792
REMARK INTER:                  -9.801
REMARK INTRA:                  -0.992
REMARK UNBOUND:                -0.951
REMARK  Name = 
REMARK  7 active torsions:
REMARK  status: ('A' for Active; 'I' for Inactive)
REMARK    1  A    between atoms: C_2  and  C_19
REMARK    2  A    between atoms: N_3  and  C_4
REMARK    3  A    between atoms: C_4  and  C_5
REMARK    4  A    between atoms: C_8  and  C_9
REMARK    5  A    between atoms: C_9  and  O_10
REMARK    6  A    between atoms: O_10  and  C_11
REMARK    7  A    between atoms: C_11  and  C_12
REMARK                            x       y       z     vdW  Elec       q    Type
REMARK                         _______ _______ _______ _____ _____    ______ ____
ROOT
ATOM      1  C   UNL     1      47.450   4.075  15.117  0.00  0.00    +0.000 C 
ENDROOT
BRANCH   1   2
ATOM      2  C   UNL     1      46.652   4.307  13.868  0.00  0.00    +0.000 A 
ATOM      3  C   UNL     1      46.050   3.249  13.188  0.00  0.00    +0.000 A 
ATOM      4  C   UNL     1      45.257   3.506  12.073  0.00  0.00    +0.000 A 
ATOM      5  C   UNL     1      45.085   4.825  11.660  0.00  0.00    +0.000 A 
ATOM      6  N   UNL     1      45.701   5.866  12.276  0.00  0.00    +0.000 NA
ATOM      7  C   UNL     1      46.475   5.584  13.349  0.00  0.00    +0.000 A 
BRANCH   5   8
ATOM      8  C   UNL     1      44.107   5.143  10.550  0.00  0.00    +0.000 C 
BRANCH   8   9
ATOM      9  O   UNL     1      44.126   4.162   9.495  0.00  0.00    +0.000 OA
BRANCH   9  10
ATOM     10  C   UNL     1      45.247   4.336   8.629  0.00  0.00    +0.000 C 
BRANCH  10  11
ATOM     11  C   UNL     1      45.603   3.056   7.886  0.00  0.00    +0.000 C 
ATOM     12  C   UNL     1      46.991   3.028   7.271  0.00  0.00    +0.000 C 
ATOM     13  C   UNL     1      47.094   1.568   6.879  0.00  0.00    +0.000 C 
ATOM     14  N   UNL     1      46.492   0.832   8.001  0.00  0.00    +0.000 NA
ATOM     15  C   UNL     1      45.614   1.780   8.721  0.00  0.00    +0.000 C 
ATOM     16  H   UNL     1      47.235   0.545   8.639  0.00  0.00    +0.000 HD
ENDBRANCH  10  11
ENDBRANCH   9  10
ENDBRANCH   8   9
ENDBRANCH   5   8
ENDBRANCH   1   2
BRANCH   1  19
ATOM     17  O   UNL     1      49.650   4.864  16.675  0.00  0.00    +0.000 OA
ATOM     18  C   UNL     1      48.658   5.589  16.639  0.00  0.00    +0.000 C 
ATOM     19  N   UNL     1      47.535   5.259  15.929  0.00  0.00    +0.000 N 
ATOM     20  H   UNL     1      46.805   5.952  15.803  0.00  0.00    +0.000 HD
BRANCH  18  21
ATOM     21  C   UNL     1      48.599   6.837  17.407  0.00  0.00    +0.000 A 
ATOM     22  C   UNL     1      48.604   6.795  18.795  0.00  0.00    +0.000 A 
ATOM     23  S   UNL     1      48.543   8.333  19.526  0.00  0.00    +0.000 S 
ATOM     24  C   UNL     1      48.548   9.113  18.014  0.00  0.00    +0.000 A 
ATOM     25  N   UNL     1      48.551  10.470  17.928  0.00  0.00    +0.000 NA
ATOM     26  C   UNL     1      48.594  10.929  16.721  0.00  0.00    +0.000 A 
ATOM     27  N   UNL     1      48.616  10.152  15.592  0.00  0.00    +0.000 N 
ATOM     28  C   UNL     1      48.530   8.781  15.628  0.00  0.00    +0.000 A 
ATOM     29  O   UNL     1      48.400   8.126  14.602  0.00  0.00    +0.000 OA
ATOM     30  C   UNL     1      48.549   8.213  16.962  0.00  0.00    +0.000 A 
ATOM     31  H   UNL     1      48.607  10.575  14.676  0.00  0.00    +0.000 HD
ENDBRANCH  18  21
ENDBRANCH   1  19
TORSDOF 7
ENDMDL
MODEL 7
REMARK VINA RESULT:    -6.885      4.539      8.898
REMARK INTER + INTRA:         -10.653
REMARK INTER:                  -9.890
REMARK INTRA:                  -0.763
REMARK UNBOUND:                -0.951
REMARK  Name = 
REMARK  7 active torsions:
REMARK  status: ('A' for Active; 'I' for Inactive)
REMARK    1  A    between atoms: C_2  and  C_19
REMARK    2  A    between atoms: N_3  and  C_4
REMARK    3  A    between atoms: C_4  and  C_5
REMARK    4  A    between atoms: C_8  and  C_9
REMARK    5  A    between atoms: C_9  and  O_10
REMARK    6  A    between atoms: O_10  and  C_11
REMARK    7  A    between atoms: C_11  and  C_12
REMARK                            x       y       z     vdW  Elec       q    Type
REMARK                         _______ _______ _______ _____ _____    ______ ____
ROOT
ATOM      1  C   UNL     1      47.249   3.324  16.880  0.00  0.00    +0.000 C 
ENDROOT
BRANCH   1   2
ATOM      2  C   UNL     1      48.726   3.281  17.136  0.00  0.00    +0.000 A 
ATOM      3  C   UNL     1      49.408   4.394  17.629  0.00  0.00    +0.000 A 
ATOM      4  C   UNL     1      50.764   4.299  17.924  0.00  0.00    +0.000 A 
ATOM      5  C   UNL     1      51.415   3.086  17.714  0.00  0.00    +0.000 A 
ATOM      6  N   UNL     1      50.785   2.004  17.187  0.00  0.00    +0.000 NA
ATOM      7  C   UNL     1      49.469   2.130  16.900  0.00  0.00    +0.000 A 
BRANCH   5   8
ATOM      8  C   UNL     1      52.848   2.912  18.169  0.00  0.00    +0.000 C 
BRANCH   8   9
ATOM      9  O   UNL     1      53.149   1.557  18.551  0.00  0.00    +0.000 OA
BRANCH   9  10
ATOM     10  C   UNL     1      54.556   1.323  18.610  0.00  0.00    +0.000 C 
BRANCH  10  11
ATOM     11  C   UNL     1      54.988   0.177  17.706  0.00  0.00    +0.000 C 
ATOM     12  C   UNL     1      54.729  -1.214  18.255  0.00  0.00    +0.000 C 
ATOM     13  C   UNL     1      55.010  -2.056  17.027  0.00  0.00    +0.000 C 
ATOM     14  N   UNL     1      54.417  -1.304  15.909  0.00  0.00    +0.000 NA
ATOM     15  C   UNL     1      54.298   0.104  16.348  0.00  0.00    +0.000 C 
ATOM     16  H   UNL     1      53.476  -1.662  15.739  0.00  0.00    +0.000 HD
ENDBRANCH  10  11
ENDBRANCH   9  10
ENDBRANCH   8   9
ENDBRANCH   5   8
ENDBRANCH   1   2
BRANCH   1  19
ATOM     17  O   UNL     1      47.334   3.054  14.085  0.00  0.00    +0.000 OA
ATOM     18  C   UNL     1      46.940   4.114  14.567  0.00  0.00    +0.000 C 
ATOM     19  N   UNL     1      46.899   4.334  15.917  0.00  0.00    +0.000 N 
ATOM     20  H   UNL     1      46.427   5.159  16.272  0.00  0.00    +0.000 HD
BRANCH  18  21
ATOM     21  C   UNL     1      46.538   5.236  13.711  0.00  0.00    +0.000 A 
ATOM     22  C   UNL     1      47.419   6.286  13.491  0.00  0.00    +0.000 A 
ATOM     23  S   UNL     1      46.797   7.497  12.466  0.00  0.00    +0.000 S 
ATOM     24  C   UNL     1      45.342   6.641  12.248  0.00  0.00    +0.000 A 
ATOM     25  N   UNL     1      44.368   7.118  11.428  0.00  0.00    +0.000 NA
ATOM     26  C   UNL     1      43.334   6.351  11.324  0.00  0.00    +0.000 A 
ATOM     27  N   UNL     1      43.179   5.158  11.981  0.00  0.00    +0.000 N 
ATOM     28  C   UNL     1      44.099   4.678  12.882  0.00  0.00    +0.000 A 
ATOM     29  O   UNL     1      43.864   3.689  13.564  0.00  0.00    +0.000 OA
ATOM     30  C   UNL     1      45.310   5.469  12.983  0.00  0.00    +0.000 A 
ATOM     31  H   UNL     1      42.327   4.625  11.888  0.00  0.00    +0.000 HD
ENDBRANCH  18  21
ENDBRANCH   1  19
TORSDOF 7
ENDMDL
MODEL 8
REMARK VINA RESULT:    -6.638      3.348      7.688
REMARK INTER + INTRA:         -10.306
REMARK INTER:                  -9.369
REMARK INTRA:                  -0.937
REMARK UNBOUND:                -0.951
REMARK  Name = 
REMARK  7 active torsions:
REMARK  status: ('A' for Active; 'I' for Inactive)
REMARK    1  A    between atoms: C_2  and  C_19
REMARK    2  A    between atoms: N_3  and  C_4
REMARK    3  A    between atoms: C_4  and  C_5
REMARK    4  A    between atoms: C_8  and  C_9
REMARK    5  A    between atoms: C_9  and  O_10
REMARK    6  A    between atoms: O_10  and  C_11
REMARK    7  A    between atoms: C_11  and  C_12
REMARK                            x       y       z     vdW  Elec       q    Type
REMARK                         _______ _______ _______ _____ _____    ______ ____
ROOT
ATOM      1  C   UNL     1      48.087   8.235  12.051  0.00  0.00    +0.000 C 
ENDROOT
BRANCH   1   2
ATOM      2  C   UNL     1      48.457   8.013  13.488  0.00  0.00    +0.000 A 
ATOM      3  C   UNL     1      47.912   8.798  14.504  0.00  0.00    +0.000 A 
ATOM      4  C   UNL     1      48.221   8.520  15.833  0.00  0.00    +0.000 A 
ATOM      5  C   UNL     1      49.075   7.458  16.116  0.00  0.00    +0.000 A 
ATOM      6  N   UNL     1      49.658   6.712  15.142  0.00  0.00    +0.000 NA
ATOM      7  C   UNL     1      49.348   7.014  13.861  0.00  0.00    +0.000 A 
BRANCH   5   8
ATOM      8  C   UNL     1      49.304   7.040  17.553  0.00  0.00    +0.000 C 
BRANCH   8   9
ATOM      9  O   UNL     1      48.088   7.017  18.325  0.00  0.00    +0.000 OA
BRANCH   9  10
ATOM     10  C   UNL     1      47.631   5.685  18.555  0.00  0.00    +0.000 C 
BRANCH  10  11
ATOM     11  C   UNL     1      48.223   4.694  17.561  0.00  0.00    +0.000 C 
ATOM     12  C   UNL     1      48.643   3.359  18.149  0.00  0.00    +0.000 C 
ATOM     13  C   UNL     1      48.907   2.568  16.884  0.00  0.00    +0.000 C 
ATOM     14  N   UNL     1      47.824   2.951  15.964  0.00  0.00    +0.000 NA
ATOM     15  C   UNL     1      47.301   4.255  16.429  0.00  0.00    +0.000 C 
ATOM     16  H   UNL     1      47.072   2.265  16.042  0.00  0.00    +0.000 HD
ENDBRANCH  10  11
ENDBRANCH   9  10
ENDBRANCH   8   9
ENDBRANCH   5   8
ENDBRANCH   1   2
BRANCH   1  19
ATOM     17  O   UNL     1      45.307   7.898  11.827  0.00  0.00    +0.000 OA
ATOM     18  C   UNL     1      46.048   7.021  11.390  0.00  0.00    +0.000 C 
ATOM     19  N   UNL     1      47.411   7.096  11.489  0.00  0.00    +0.000 N 
ATOM     20  H   UNL     1      47.984   6.430  10.982  0.00  0.00    +0.000 HD
BRANCH  18  21
ATOM     21  C   UNL     1      45.506   5.803  10.777  0.00  0.00    +0.000 A 
ATOM     22  C   UNL     1      45.769   5.526   9.442  0.00  0.00    +0.000 A 
ATOM     23  S   UNL     1      45.074   4.068   8.897  0.00  0.00    +0.000 S 
ATOM     24  C   UNL     1      44.430   3.735  10.436  0.00  0.00    +0.000 A 
ATOM     25  N   UNL     1      43.740   2.587  10.671  0.00  0.00    +0.000 NA
ATOM     26  C   UNL     1      43.342   2.443  11.891  0.00  0.00    +0.000 A 
ATOM     27  N   UNL     1      43.555   3.354  12.894  0.00  0.00    +0.000 N 
ATOM     28  C   UNL     1      44.173   4.563  12.684  0.00  0.00    +0.000 A 
ATOM     29  O   UNL     1      44.214   5.416  13.561  0.00  0.00    +0.000 OA
ATOM     30  C   UNL     1      44.701   4.743  11.345  0.00  0.00    +0.000 A 
ATOM     31  H   UNL     1      43.180   3.200  13.818  0.00  0.00    +0.000 HD
ENDBRANCH  18  21
ENDBRANCH   1  19
TORSDOF 7
ENDMDL
MODEL 9
REMARK VINA RESULT:    -6.633      3.380      4.258
REMARK INTER + INTRA:         -10.298
REMARK INTER:                  -9.837
REMARK INTRA:                  -0.461
REMARK UNBOUND:                -0.951
REMARK  Name = 
REMARK  7 active torsions:
REMARK  status: ('A' for Active; 'I' for Inactive)
REMARK    1  A    between atoms: C_2  and  C_19
REMARK    2  A    between atoms: N_3  and  C_4
REMARK    3  A    between atoms: C_4  and  C_5
REMARK    4  A    between atoms: C_8  and  C_9
REMARK    5  A    between atoms: C_9  and  O_10
REMARK    6  A    between atoms: O_10  and  C_11
REMARK    7  A    between atoms: C_11  and  C_12
REMARK                            x       y       z     vdW  Elec       q    Type
REMARK                         _______ _______ _______ _____ _____    ______ ____
ROOT
ATOM      1  C   UNL     1      45.410   7.892  12.956  0.00  0.00    +0.000 C 
ENDROOT
BRANCH   1   2
ATOM      2  C   UNL     1      45.012   6.628  12.253  0.00  0.00    +0.000 A 
ATOM      3  C   UNL     1      45.508   6.318  10.986  0.00  0.00    +0.000 A 
ATOM      4  C   UNL     1      45.177   5.104  10.393  0.00  0.00    +0.000 A 
ATOM      5  C   UNL     1      44.350   4.222  11.082  0.00  0.00    +0.000 A 
ATOM      6  N   UNL     1      43.814   4.522  12.293  0.00  0.00    +0.000 NA
ATOM      7  C   UNL     1      44.145   5.714  12.840  0.00  0.00    +0.000 A 
BRANCH   5   8
ATOM      8  C   UNL     1      44.101   2.836  10.527  0.00  0.00    +0.000 C 
BRANCH   8   9
ATOM      9  O   UNL     1      44.349   2.751   9.111  0.00  0.00    +0.000 OA
BRANCH   9  10
ATOM     10  C   UNL     1      45.335   1.766   8.803  0.00  0.00    +0.000 C 
BRANCH  10  11
ATOM     11  C   UNL     1      46.456   2.325   7.938  0.00  0.00    +0.000 C 
ATOM     12  C   UNL     1      47.120   1.323   7.011  0.00  0.00    +0.000 C 
ATOM     13  C   UNL     1      47.949   2.250   6.145  0.00  0.00    +0.000 C 
ATOM     14  N   UNL     1      47.081   3.411   5.893  0.00  0.00    +0.000 NA
ATOM     15  C   UNL     1      46.058   3.428   6.962  0.00  0.00    +0.000 C 
ATOM     16  H   UNL     1      46.602   3.273   5.002  0.00  0.00    +0.000 HD
ENDBRANCH  10  11
ENDBRANCH   9  10
ENDBRANCH   8   9
ENDBRANCH   5   8
ENDBRANCH   1   2
BRANCH   1  19
ATOM     17  O   UNL     1      46.078  10.342  11.754  0.00  0.00    +0.000 OA
ATOM     18  C   UNL     1      46.977   9.548  12.025  0.00  0.00    +0.000 C 
ATOM     19  N   UNL     1      46.730   8.323  12.582  0.00  0.00    +0.000 N 
ATOM     20  H   UNL     1      47.506   7.768  12.927  0.00  0.00    +0.000 HD
BRANCH  18  21
ATOM     21  C   UNL     1      48.379   9.851  11.712  0.00  0.00    +0.000 A 
ATOM     22  C   UNL     1      48.685  10.912  10.871  0.00  0.00    +0.000 A 
ATOM     23  S   UNL     1      50.357  11.129  10.625  0.00  0.00    +0.000 S 
ATOM     24  C   UNL     1      50.734   9.837  11.666  0.00  0.00    +0.000 A 
ATOM     25  N   UNL     1      52.026   9.511  11.935  0.00  0.00    +0.000 NA
ATOM     26  C   UNL     1      52.169   8.537  12.771  0.00  0.00    +0.000 A 
ATOM     27  N   UNL     1      51.134   7.846  13.347  0.00  0.00    +0.000 N 
ATOM     28  C   UNL     1      49.816   8.085  13.042  0.00  0.00    +0.000 A 
ATOM     29  O   UNL     1      48.925   7.355  13.455  0.00  0.00    +0.000 OA
ATOM     30  C   UNL     1      49.600   9.217  12.160  0.00  0.00    +0.000 A 
ATOM     31  H   UNL     1      51.314   7.066  13.961  0.00  0.00    +0.000 HD
ENDBRANCH  18  21
ENDBRANCH   1  19
TORSDOF 7
ENDMDL
