MODEL 1
REMARK VINA RESULT:    -7.753      0.000      0.000
REMARK INTER + INTRA:         -12.353
REMARK INTER:                 -11.379
REMARK INTRA:                  -0.974
REMARK UNBOUND:                -0.974
REMARK  Name = 
REMARK  9 active torsions:
REMARK  status: ('A' for Active; 'I' for Inactive)
REMARK    1  A    between atoms: C_1  and  O_2
REMARK    2  A    between atoms: O_2  and  C_3
REMARK    3  A    between atoms: C_8  and  C_9
REMARK    4  A    between atoms: N_11  and  C_12
REMARK    5  A    between atoms: C_12  and  C_13
REMARK    6  A    between atoms: C_16  and  C_17
REMARK    7  A    between atoms: C_17  and  O_18
REMARK    8  A    between atoms: O_18  and  C_19
REMARK    9  A    between atoms: C_19  and  C_20
REMARK                            x       y       z     vdW  Elec       q    Type
REMARK                         _______ _______ _______ _____ _____    ______ ____
ROOT
ATOM      1  C   UNL     1      47.052   8.212  13.033  0.00  0.00    +0.000 C 
ENDROOT
BRANCH   1   2
ATOM      2  C   UNL     1      46.187   7.184  12.358  0.00  0.00    +0.000 A 
ATOM      3  C   UNL     1      46.599   6.574  11.166  0.00  0.00    +0.000 A 
ATOM      4  C   UNL     1      45.834   5.558  10.587  0.00  0.00    +0.000 A 
ATOM      5  C   UNL     1      44.636   5.137  11.180  0.00  0.00    +0.000 A 
ATOM      6  C   UNL     1      44.209   5.770  12.355  0.00  0.00    +0.000 A 
ATOM      7  C   UNL     1      44.974   6.786  12.935  0.00  0.00    +0.000 A 
BRANCH   5   8
ATOM      8  C   UNL     1      43.820   4.032  10.559  0.00  0.00    +0.000 C 
BRANCH   8   9
ATOM      9  O   UNL     1      44.615   2.855  10.451  0.00  0.00    +0.000 OA
BRANCH   9  10
ATOM     10  C   UNL     1      44.375   2.178   9.212  0.00  0.00    +0.000 C 
BRANCH  10  11
ATOM     11  C   UNL     1      45.610   2.181   8.336  0.00  0.00    +0.000 A 
ATOM     12  N   UNL     1      45.985   3.352   7.776  0.00  0.00    +0.000 NA
ATOM     13  C   UNL     1      47.078   3.320   6.991  0.00  0.00    +0.000 A 
ATOM     14  C   UNL     1      47.810   2.182   6.754  0.00  0.00    +0.000 A 
ATOM     15  C   UNL     1      47.358   1.045   7.380  0.00  0.00    +0.000 A 
ATOM     16  N   UNL     1      46.272   1.014   8.174  0.00  0.00    +0.000 NA
ENDBRANCH  10  11
ENDBRANCH   9  10
ENDBRANCH   8   9
ENDBRANCH   5   8
ENDBRANCH   1   2
BRANCH   1  19
ATOM     17  C   UNL     1      48.591   7.029  14.505  0.00  0.00    +0.000 C 
ATOM     18  O   UNL     1      49.231   6.617  13.541  0.00  0.00    +0.000 OA
ATOM     19  N   UNL     1      47.478   7.825  14.354  0.00  0.00    +0.000 N 
ATOM     20  H   UNL     1      46.979   8.153  15.176  0.00  0.00    +0.000 HD
BRANCH  17  26
ATOM     21  C   UNL     1      49.022   4.487  18.778  0.00  0.00    +0.000 A 
ATOM     22  N   UNL     1      48.351   3.408  18.330  0.00  0.00    +0.000 NA
ATOM     23  C   UNL     1      47.901   3.435  17.069  0.00  0.00    +0.000 A 
ATOM     24  N   UNL     1      48.029   4.423  16.174  0.00  0.00    +0.000 NA
ATOM     25  C   UNL     1      48.712   5.508  16.629  0.00  0.00    +0.000 A 
ATOM     26  C   UNL     1      48.983   6.704  15.875  0.00  0.00    +0.000 A 
ATOM     27  C   UNL     1      49.710   7.605  16.635  0.00  0.00    +0.000 A 
ATOM     28  S   UNL     1      50.046   7.046  18.206  0.00  0.00    +0.000 S 
ATOM     29  C   UNL     1      49.227   5.567  17.923  0.00  0.00    +0.000 A 
BRANCH  21  31
ATOM     30  C   UNL     1      48.501   4.815  21.039  0.00  0.00    +0.000 C 
ATOM     31  O   UNL     1      49.503   4.522  20.072  0.00  0.00    +0.000 OA
ENDBRANCH  21  31
ENDBRANCH  17  26
ENDBRANCH   1  19
TORSDOF 8
ENDMDL
MODEL 2
REMARK VINA RESULT:    -6.888      4.093      6.119
REMARK INTER + INTRA:         -11.083
REMARK INTER:                  -9.925
REMARK INTRA:                  -1.158
REMARK UNBOUND:                -0.974
REMARK  Name = 
REMARK  9 active torsions:
REMARK  status: ('A' for Active; 'I' for Inactive)
REMARK    1  A    between atoms: C_1  and  O_2
REMARK    2  A    between atoms: O_2  and  C_3
REMARK    3  A    between atoms: C_8  and  C_9
REMARK    4  A    between atoms: N_11  and  C_12
REMARK    5  A    between atoms: C_12  and  C_13
REMARK    6  A    between atoms: C_16  and  C_17
REMARK    7  A    between atoms: C_17  and  O_18
REMARK    8  A    between atoms: O_18  and  C_19
REMARK    9  A    between atoms: C_19  and  C_20
REMARK                            x       y       z     vdW  Elec       q    Type
REMARK                         _______ _______ _______ _____ _____    ______ ____
ROOT
ATOM      1  C   UNL     1      48.369   6.557  13.548  0.00  0.00    +0.000 C 
ENDROOT
BRANCH   1   2
ATOM      2  C   UNL     1      47.125   6.011  12.902  0.00  0.00    +0.000 A 
ATOM      3  C   UNL     1      46.695   6.491  11.658  0.00  0.00    +0.000 A 
ATOM      4  C   UNL     1      45.589   5.923  11.020  0.00  0.00    +0.000 A 
ATOM      5  C   UNL     1      44.882   4.870  11.617  0.00  0.00    +0.000 A 
ATOM      6  C   UNL     1      45.294   4.411  12.875  0.00  0.00    +0.000 A 
ATOM      7  C   UNL     1      46.401   4.979  13.513  0.00  0.00    +0.000 A 
BRANCH   5   8
ATOM      8  C   UNL     1      43.696   4.251  10.920  0.00  0.00    +0.000 C 
BRANCH   8   9
ATOM      9  O   UNL     1      44.057   3.900   9.588  0.00  0.00    +0.000 OA
BRANCH   9  10
ATOM     10  C   UNL     1      44.530   2.550   9.516  0.00  0.00    +0.000 C 
BRANCH  10  11
ATOM     11  C   UNL     1      45.611   2.402   8.467  0.00  0.00    +0.000 A 
ATOM     12  N   UNL     1      45.947   3.495   7.747  0.00  0.00    +0.000 NA
ATOM     13  C   UNL     1      46.901   3.328   6.811  0.00  0.00    +0.000 A 
ATOM     14  C   UNL     1      47.533   2.131   6.576  0.00  0.00    +0.000 A 
ATOM     15  C   UNL     1      47.133   1.083   7.369  0.00  0.00    +0.000 A 
ATOM     16  N   UNL     1      46.184   1.188   8.318  0.00  0.00    +0.000 NA
ENDBRANCH  10  11
ENDBRANCH   9  10
ENDBRANCH   8   9
ENDBRANCH   5   8
ENDBRANCH   1   2
BRANCH   1  19
ATOM     17  C   UNL     1      49.439   8.640  12.879  0.00  0.00    +0.000 C 
ATOM     18  O   UNL     1      48.942   9.228  13.837  0.00  0.00    +0.000 OA
ATOM     19  N   UNL     1      49.203   7.305  12.642  0.00  0.00    +0.000 N 
ATOM     20  H   UNL     1      49.638   6.852  11.844  0.00  0.00    +0.000 HD
BRANCH  17  26
ATOM     21  C   UNL     1      52.847   9.330   9.299  0.00  0.00    +0.000 A 
ATOM     22  N   UNL     1      53.023   8.015   9.062  0.00  0.00    +0.000 NA
ATOM     23  C   UNL     1      52.295   7.151   9.781  0.00  0.00    +0.000 A 
ATOM     24  N   UNL     1      51.396   7.430  10.735  0.00  0.00    +0.000 NA
ATOM     25  C   UNL     1      51.218   8.760  10.967  0.00  0.00    +0.000 A 
ATOM     26  C   UNL     1      50.321   9.327  11.939  0.00  0.00    +0.000 A 
ATOM     27  C   UNL     1      50.379  10.711  11.905  0.00  0.00    +0.000 A 
ATOM     28  S   UNL     1      51.482  11.313  10.758  0.00  0.00    +0.000 S 
ATOM     29  C   UNL     1      51.923   9.732  10.260  0.00  0.00    +0.000 A 
BRANCH  21  31
ATOM     30  C   UNL     1      53.546  10.065   7.187  0.00  0.00    +0.000 C 
ATOM     31  O   UNL     1      53.574  10.269   8.595  0.00  0.00    +0.000 OA
ENDBRANCH  21  31
ENDBRANCH  17  26
ENDBRANCH   1  19
TORSDOF 8
ENDMDL
MODEL 3
REMARK VINA RESULT:    -6.867      2.199      2.564
REMARK INTER + INTRA:         -11.053
REMARK INTER:                 -10.219
REMARK INTRA:                  -0.834
REMARK UNBOUND:                -0.974
REMARK  Name = 
REMARK  9 active torsions:
REMARK  status: ('A' for Active; 'I' for Inactive)
REMARK    1  A    between atoms: C_1  and  O_2
REMARK    2  A    between atoms: O_2  and  C_3
REMARK    3  A    between atoms: C_8  and  C_9
REMARK    4  A    between atoms: N_11  and  C_12
REMARK    5  A    between atoms: C_12  and  C_13
REMARK    6  A    between atoms: C_16  and  C_17
REMARK    7  A    between atoms: C_17  and  O_18
REMARK    8  A    between atoms: O_18  and  C_19
REMARK    9  A    between atoms: C_19  and  C_20
REMARK                            x       y       z     vdW  Elec       q    Type
REMARK                         _______ _______ _______ _____ _____    ______ ____
ROOT
ATOM      1  C   UNL     1      47.629   7.024  13.619  0.00  0.00    +0.000 C 
ENDROOT
BRANCH   1   2
ATOM      2  C   UNL     1      46.485   6.297  12.967  0.00  0.00    +0.000 A 
ATOM      3  C   UNL     1      45.934   6.761  11.766  0.00  0.00    +0.000 A 
ATOM      4  C   UNL     1      44.929   6.036  11.118  0.00  0.00    +0.000 A 
ATOM      5  C   UNL     1      44.447   4.838  11.663  0.00  0.00    +0.000 A 
ATOM      6  C   UNL     1      44.977   4.391  12.880  0.00  0.00    +0.000 A 
ATOM      7  C   UNL     1      45.982   5.116  13.528  0.00  0.00    +0.000 A 
BRANCH   5   8
ATOM      8  C   UNL     1      43.372   4.053  10.954  0.00  0.00    +0.000 C 
BRANCH   8   9
ATOM      9  O   UNL     1      43.830   3.678   9.659  0.00  0.00    +0.000 OA
BRANCH   9  10
ATOM     10  C   UNL     1      44.608   2.477   9.711  0.00  0.00    +0.000 C 
BRANCH  10  11
ATOM     11  C   UNL     1      45.618   2.428   8.583  0.00  0.00    +0.000 A 
ATOM     12  N   UNL     1      46.203   1.241   8.310  0.00  0.00    +0.000 NA
ATOM     13  C   UNL     1      47.107   1.233   7.312  0.00  0.00    +0.000 A 
ATOM     14  C   UNL     1      47.439   2.346   6.579  0.00  0.00    +0.000 A 
ATOM     15  C   UNL     1      46.779   3.501   6.922  0.00  0.00    +0.000 A 
ATOM     16  N   UNL     1      45.867   3.572   7.910  0.00  0.00    +0.000 NA
ENDBRANCH  10  11
ENDBRANCH   9  10
ENDBRANCH   8   9
ENDBRANCH   5   8
ENDBRANCH   1   2
BRANCH   1  19
ATOM     17  C   UNL     1      49.049   6.942  15.595  0.00  0.00    +0.000 C 
ATOM     18  O   UNL     1      49.296   8.141  15.495  0.00  0.00    +0.000 OA
ATOM     19  N   UNL     1      48.235   6.289  14.699  0.00  0.00    +0.000 N 
ATOM     20  H   UNL     1      48.048   5.298  14.819  0.00  0.00    +0.000 HD
BRANCH  17  26
ATOM     21  C   UNL     1      52.407   4.667  18.504  0.00  0.00    +0.000 A 
ATOM     22  N   UNL     1      53.473   5.140  17.828  0.00  0.00    +0.000 NA
ATOM     23  C   UNL     1      53.240   5.944  16.782  0.00  0.00    +0.000 A 
ATOM     24  N   UNL     1      52.055   6.344  16.304  0.00  0.00    +0.000 NA
ATOM     25  C   UNL     1      50.981   5.869  16.993  0.00  0.00    +0.000 A 
ATOM     26  C   UNL     1      49.602   6.140  16.685  0.00  0.00    +0.000 A 
ATOM     27  C   UNL     1      48.767   5.508  17.592  0.00  0.00    +0.000 A 
ATOM     28  S   UNL     1      49.605   4.608  18.767  0.00  0.00    +0.000 S 
ATOM     29  C   UNL     1      51.126   5.035  18.100  0.00  0.00    +0.000 A 
BRANCH  21  31
ATOM     30  C   UNL     1      52.833   4.521  20.803  0.00  0.00    +0.000 C 
ATOM     31  O   UNL     1      52.583   3.828  19.586  0.00  0.00    +0.000 OA
ENDBRANCH  21  31
ENDBRANCH  17  26
ENDBRANCH   1  19
TORSDOF 8
ENDMDL
MODEL 4
REMARK VINA RESULT:    -6.775      2.577      3.496
REMARK INTER + INTRA:         -10.918
REMARK INTER:                  -9.925
REMARK INTRA:                  -0.993
REMARK UNBOUND:                -0.974
REMARK  Name = 
REMARK  9 active torsions:
REMARK  status: ('A' for Active; 'I' for Inactive)
REMARK    1  A    between atoms: C_1  and  O_2
REMARK    2  A    between atoms: O_2  and  C_3
REMARK    3  A    between atoms: C_8  and  C_9
REMARK    4  A    between atoms: N_11  and  C_12
REMARK    5  A    between atoms: C_12  and  C_13
REMARK    6  A    between atoms: C_16  and  C_17
REMARK    7  A    between atoms: C_17  and  O_18
REMARK    8  A    between atoms: O_18  and  C_19
REMARK    9  A    between atoms: C_19  and  C_20
REMARK                            x       y       z     vdW  Elec       q    Type
REMARK                         _______ _______ _______ _____ _____    ______ ____
ROOT
ATOM      1  C   UNL     1      47.610   4.110  14.942  0.00  0.00    +0.000 C 
ENDROOT
BRANCH   1   2
ATOM      2  C   UNL     1      46.621   4.280  13.821  0.00  0.00    +0.000 A 
ATOM      3  C   UNL     1      46.164   3.171  13.097  0.00  0.00    +0.000 A 
ATOM      4  C   UNL     1      45.181   3.320  12.114  0.00  0.00    +0.000 A 
ATOM      5  C   UNL     1      44.642   4.581  11.826  0.00  0.00    +0.000 A 
ATOM      6  C   UNL     1      45.123   5.694  12.529  0.00  0.00    +0.000 A 
ATOM      7  C   UNL     1      46.105   5.545  13.512  0.00  0.00    +0.000 A 
BRANCH   5   8
ATOM      8  C   UNL     1      43.574   4.736  10.774  0.00  0.00    +0.000 C 
BRANCH   8   9
ATOM      9  O   UNL     1      43.839   3.850   9.691  0.00  0.00    +0.000 OA
BRANCH   9  10
ATOM     10  C   UNL     1      44.714   4.452   8.730  0.00  0.00    +0.000 C 
BRANCH  10  11
ATOM     11  C   UNL     1      45.630   3.423   8.101  0.00  0.00    +0.000 A 
ATOM     12  N   UNL     1      46.437   3.826   7.095  0.00  0.00    +0.000 NA
ATOM     13  C   UNL     1      47.229   2.885   6.547  0.00  0.00    +0.000 A 
ATOM     14  C   UNL     1      47.255   1.576   6.964  0.00  0.00    +0.000 A 
ATOM     15  C   UNL     1      46.409   1.268   8.002  0.00  0.00    +0.000 A 
ATOM     16  N   UNL     1      45.594   2.164   8.590  0.00  0.00    +0.000 NA
ENDBRANCH  10  11
ENDBRANCH   9  10
ENDBRANCH   8   9
ENDBRANCH   5   8
ENDBRANCH   1   2
BRANCH   1  19
ATOM     17  C   UNL     1      48.474   5.240  16.919  0.00  0.00    +0.000 C 
ATOM     18  O   UNL     1      49.466   4.514  16.926  0.00  0.00    +0.000 OA
ATOM     19  N   UNL     1      47.483   5.108  15.973  0.00  0.00    +0.000 N 
ATOM     20  H   UNL     1      46.682   5.732  15.994  0.00  0.00    +0.000 HD
BRANCH  17  26
ATOM     21  C   UNL     1      48.132   9.811  18.892  0.00  0.00    +0.000 A 
ATOM     22  N   UNL     1      48.291  10.449  17.715  0.00  0.00    +0.000 NA
ATOM     23  C   UNL     1      48.445   9.699  16.617  0.00  0.00    +0.000 A 
ATOM     24  N   UNL     1      48.469   8.362  16.534  0.00  0.00    +0.000 NA
ATOM     25  C   UNL     1      48.303   7.722  17.724  0.00  0.00    +0.000 A 
ATOM     26  C   UNL     1      48.296   6.295  17.913  0.00  0.00    +0.000 A 
ATOM     27  C   UNL     1      48.093   5.983  19.247  0.00  0.00    +0.000 A 
ATOM     28  S   UNL     1      47.930   7.351  20.245  0.00  0.00    +0.000 S 
ATOM     29  C   UNL     1      48.125   8.419  18.917  0.00  0.00    +0.000 A 
BRANCH  21  31
ATOM     30  C   UNL     1      46.637  10.948  20.293  0.00  0.00    +0.000 C 
ATOM     31  O   UNL     1      47.978  10.531  20.060  0.00  0.00    +0.000 OA
ENDBRANCH  21  31
ENDBRANCH  17  26
ENDBRANCH   1  19
TORSDOF 8
ENDMDL
MODEL 5
REMARK VINA RESULT:    -6.750      2.716      3.601
REMARK INTER + INTRA:         -10.881
REMARK INTER:                  -9.954
REMARK INTRA:                  -0.927
REMARK UNBOUND:                -0.974
REMARK  Name = 
REMARK  9 active torsions:
REMARK  status: ('A' for Active; 'I' for Inactive)
REMARK    1  A    between atoms: C_1  and  O_2
REMARK    2  A    between atoms: O_2  and  C_3
REMARK    3  A    between atoms: C_8  and  C_9
REMARK    4  A    between atoms: N_11  and  C_12
REMARK    5  A    between atoms: C_12  and  C_13
REMARK    6  A    between atoms: C_16  and  C_17
REMARK    7  A    between atoms: C_17  and  O_18
REMARK    8  A    between atoms: O_18  and  C_19
REMARK    9  A    between atoms: C_19  and  C_20
REMARK                            x       y       z     vdW  Elec       q    Type
REMARK                         _______ _______ _______ _____ _____    ______ ____
ROOT
ATOM      1  C   UNL     1      49.474   7.829  15.639  0.00  0.00    +0.000 C 
ENDROOT
BRANCH   1   2
ATOM      2  C   UNL     1      48.442   7.484  14.600  0.00  0.00    +0.000 A 
ATOM      3  C   UNL     1      48.181   6.149  14.267  0.00  0.00    +0.000 A 
ATOM      4  C   UNL     1      47.163   5.827  13.365  0.00  0.00    +0.000 A 
ATOM      5  C   UNL     1      46.392   6.834  12.767  0.00  0.00    +0.000 A 
ATOM      6  C   UNL     1      46.675   8.171  13.077  0.00  0.00    +0.000 A 
ATOM      7  C   UNL     1      47.693   8.492  13.980  0.00  0.00    +0.000 A 
BRANCH   5   8
ATOM      8  C   UNL     1      45.286   6.482  11.804  0.00  0.00    +0.000 C 
BRANCH   8   9
ATOM      9  O   UNL     1      45.442   5.135  11.371  0.00  0.00    +0.000 OA
BRANCH   9  10
ATOM     10  C   UNL     1      44.567   4.836  10.278  0.00  0.00    +0.000 C 
BRANCH  10  11
ATOM     11  C   UNL     1      45.242   3.936   9.264  0.00  0.00    +0.000 A 
ATOM     12  N   UNL     1      45.181   2.601   9.465  0.00  0.00    +0.000 NA
ATOM     13  C   UNL     1      45.803   1.828   8.554  0.00  0.00    +0.000 A 
ATOM     14  C   UNL     1      46.465   2.328   7.459  0.00  0.00    +0.000 A 
ATOM     15  C   UNL     1      46.458   3.696   7.335  0.00  0.00    +0.000 A 
ATOM     16  N   UNL     1      45.856   4.520   8.212  0.00  0.00    +0.000 NA
ENDBRANCH  10  11
ENDBRANCH   9  10
ENDBRANCH   8   9
ENDBRANCH   5   8
ENDBRANCH   1   2
BRANCH   1  19
ATOM     17  C   UNL     1      50.674   6.556  17.332  0.00  0.00    +0.000 C 
ATOM     18  O   UNL     1      50.339   7.356  18.203  0.00  0.00    +0.000 OA
ATOM     19  N   UNL     1      50.300   6.712  16.017  0.00  0.00    +0.000 N 
ATOM     20  H   UNL     1      50.591   6.025  15.327  0.00  0.00    +0.000 HD
BRANCH  17  26
ATOM     21  C   UNL     1      51.997   1.769  17.829  0.00  0.00    +0.000 A 
ATOM     22  N   UNL     1      50.854   1.286  17.302  0.00  0.00    +0.000 NA
ATOM     23  C   UNL     1      49.936   2.170  16.892  0.00  0.00    +0.000 A 
ATOM     24  N   UNL     1      50.004   3.507  16.945  0.00  0.00    +0.000 NA
ATOM     25  C   UNL     1      51.161   3.990  17.473  0.00  0.00    +0.000 A 
ATOM     26  C   UNL     1      51.484   5.382  17.649  0.00  0.00    +0.000 A 
ATOM     27  C   UNL     1      52.746   5.522  18.204  0.00  0.00    +0.000 A 
ATOM     28  S   UNL     1      53.515   4.037  18.517  0.00  0.00    +0.000 S 
ATOM     29  C   UNL     1      52.178   3.147  17.916  0.00  0.00    +0.000 A 
BRANCH  21  31
ATOM     30  C   UNL     1      53.875   0.492  17.254  0.00  0.00    +0.000 C 
ATOM     31  O   UNL     1      52.977   0.907  18.277  0.00  0.00    +0.000 OA
ENDBRANCH  21  31
ENDBRANCH  17  26
ENDBRANCH   1  19
TORSDOF 8
ENDMDL
MODEL 6
REMARK VINA RESULT:    -6.397      3.075      8.121
REMARK INTER + INTRA:         -10.362
REMARK INTER:                  -8.932
REMARK INTRA:                  -1.430
REMARK UNBOUND:                -0.974
REMARK  Name = 
REMARK  9 active torsions:
REMARK  status: ('A' for Active; 'I' for Inactive)
REMARK    1  A    between atoms: C_1  and  O_2
REMARK    2  A    between atoms: O_2  and  C_3
REMARK    3  A    between atoms: C_8  and  C_9
REMARK    4  A    between atoms: N_11  and  C_12
REMARK    5  A    between atoms: C_12  and  C_13
REMARK    6  A    between atoms: C_16  and  C_17
REMARK    7  A    between atoms: C_17  and  O_18
REMARK    8  A    between atoms: O_18  and  C_19
REMARK    9  A    between atoms: C_19  and  C_20
REMARK                            x       y       z     vdW  Elec       q    Type
REMARK                         _______ _______ _______ _____ _____    ______ ____
ROOT
ATOM      1  C   UNL     1      48.579   9.171  15.193  0.00  0.00    +0.000 C 
ENDROOT
BRANCH   1   2
ATOM      2  C   UNL     1      49.626   8.366  15.912  0.00  0.00    +0.000 A 
ATOM      3  C   UNL     1      49.472   8.040  17.266  0.00  0.00    +0.000 A 
ATOM      4  C   UNL     1      50.403   7.220  17.910  0.00  0.00    +0.000 A 
ATOM      5  C   UNL     1      51.513   6.716  17.217  0.00  0.00    +0.000 A 
ATOM      6  C   UNL     1      51.682   7.068  15.872  0.00  0.00    +0.000 A 
ATOM      7  C   UNL     1      50.751   7.889  15.228  0.00  0.00    +0.000 A 
BRANCH   5   8
ATOM      8  C   UNL     1      52.509   5.822  17.912  0.00  0.00    +0.000 C 
BRANCH   8   9
ATOM      9  O   UNL     1      52.481   4.527  17.319  0.00  0.00    +0.000 OA
BRANCH   9  10
ATOM     10  C   UNL     1      51.891   3.565  18.200  0.00  0.00    +0.000 C 
BRANCH  10  11
ATOM     11  C   UNL     1      50.437   3.321  17.854  0.00  0.00    +0.000 A 
ATOM     12  N   UNL     1      50.163   2.491  16.824  0.00  0.00    +0.000 NA
ATOM     13  C   UNL     1      48.862   2.306  16.531  0.00  0.00    +0.000 A 
ATOM     14  C   UNL     1      47.836   2.901  17.223  0.00  0.00    +0.000 A 
ATOM     15  C   UNL     1      48.215   3.716  18.262  0.00  0.00    +0.000 A 
ATOM     16  N   UNL     1      49.498   3.941  18.602  0.00  0.00    +0.000 NA
ENDBRANCH  10  11
ENDBRANCH   9  10
ENDBRANCH   8   9
ENDBRANCH   5   8
ENDBRANCH   1   2
BRANCH   1  19
ATOM     17  C   UNL     1      47.620   8.001  13.284  0.00  0.00    +0.000 C 
ATOM     18  O   UNL     1      48.552   8.359  12.568  0.00  0.00    +0.000 OA
ATOM     19  N   UNL     1      47.537   8.365  14.609  0.00  0.00    +0.000 N 
ATOM     20  H   UNL     1      46.755   8.043  15.171  0.00  0.00    +0.000 HD
BRANCH  17  26
ATOM     21  C   UNL     1      44.956   3.903  12.273  0.00  0.00    +0.000 A 
ATOM     22  N   UNL     1      45.781   3.071  12.938  0.00  0.00    +0.000 NA
ATOM     23  C   UNL     1      46.849   3.607  13.544  0.00  0.00    +0.000 A 
ATOM     24  N   UNL     1      47.217   4.895  13.570  0.00  0.00    +0.000 NA
ATOM     25  C   UNL     1      46.378   5.732  12.901  0.00  0.00    +0.000 A 
ATOM     26  C   UNL     1      46.546   7.155  12.768  0.00  0.00    +0.000 A 
ATOM     27  C   UNL     1      45.506   7.702  12.034  0.00  0.00    +0.000 A 
ATOM     28  S   UNL     1      44.372   6.548  11.507  0.00  0.00    +0.000 S 
ATOM     29  C   UNL     1      45.237   5.267  12.249  0.00  0.00    +0.000 A 
BRANCH  21  31
ATOM     30  C   UNL     1      44.147   2.791  10.376  0.00  0.00    +0.000 C 
ATOM     31  O   UNL     1      43.844   3.409  11.621  0.00  0.00    +0.000 OA
ENDBRANCH  21  31
ENDBRANCH  17  26
ENDBRANCH   1  19
TORSDOF 8
ENDMDL
MODEL 7
REMARK VINA RESULT:    -6.361      2.872      8.243
REMARK INTER + INTRA:         -10.310
REMARK INTER:                  -8.912
REMARK INTRA:                  -1.397
REMARK UNBOUND:                -0.974
REMARK  Name = 
REMARK  9 active torsions:
REMARK  status: ('A' for Active; 'I' for Inactive)
REMARK    1  A    between atoms: C_1  and  O_2
REMARK    2  A    between atoms: O_2  and  C_3
REMARK    3  A    between atoms: C_8  and  C_9
REMARK    4  A    between atoms: N_11  and  C_12
REMARK    5  A    between atoms: C_12  and  C_13
REMARK    6  A    between atoms: C_16  and  C_17
REMARK    7  A    between atoms: C_17  and  O_18
REMARK    8  A    between atoms: O_18  and  C_19
REMARK    9  A    between atoms: C_19  and  C_20
REMARK                            x       y       z     vdW  Elec       q    Type
REMARK                         _______ _______ _______ _____ _____    ______ ____
ROOT
ATOM      1  C   UNL     1      48.180   9.655  15.157  0.00  0.00    +0.000 C 
ENDROOT
BRANCH   1   2
ATOM      2  C   UNL     1      48.641   9.131  16.489  0.00  0.00    +0.000 A 
ATOM      3  C   UNL     1      47.905   9.390  17.653  0.00  0.00    +0.000 A 
ATOM      4  C   UNL     1      48.288   8.831  18.876  0.00  0.00    +0.000 A 
ATOM      5  C   UNL     1      49.421   8.009  18.963  0.00  0.00    +0.000 A 
ATOM      6  C   UNL     1      50.173   7.776  17.805  0.00  0.00    +0.000 A 
ATOM      7  C   UNL     1      49.790   8.335  16.582  0.00  0.00    +0.000 A 
BRANCH   5   8
ATOM      8  C   UNL     1      49.823   7.398  20.282  0.00  0.00    +0.000 C 
BRANCH   8   9
ATOM      9  O   UNL     1      49.922   5.984  20.141  0.00  0.00    +0.000 OA
BRANCH   9  10
ATOM     10  C   UNL     1      48.628   5.381  20.034  0.00  0.00    +0.000 C 
BRANCH  10  11
ATOM     11  C   UNL     1      48.562   4.426  18.860  0.00  0.00    +0.000 A 
ATOM     12  N   UNL     1      49.672   3.717  18.560  0.00  0.00    +0.000 NA
ATOM     13  C   UNL     1      49.587   2.888  17.502  0.00  0.00    +0.000 A 
ATOM     14  C   UNL     1      48.449   2.733  16.748  0.00  0.00    +0.000 A 
ATOM     15  C   UNL     1      47.370   3.486  17.142  0.00  0.00    +0.000 A 
ATOM     16  N   UNL     1      47.394   4.332  18.188  0.00  0.00    +0.000 NA
ENDBRANCH  10  11
ENDBRANCH   9  10
ENDBRANCH   8   9
ENDBRANCH   5   8
ENDBRANCH   1   2
BRANCH   1  19
ATOM     17  C   UNL     1      47.568   7.999  13.479  0.00  0.00    +0.000 C 
ATOM     18  O   UNL     1      48.720   7.972  13.054  0.00  0.00    +0.000 OA
ATOM     19  N   UNL     1      47.196   8.817  14.522  0.00  0.00    +0.000 N 
ATOM     20  H   UNL     1      46.235   8.806  14.851  0.00  0.00    +0.000 HD
BRANCH  17  26
ATOM     21  C   UNL     1      45.023   3.889  12.237  0.00  0.00    +0.000 A 
ATOM     22  N   UNL     1      45.854   3.048  12.882  0.00  0.00    +0.000 NA
ATOM     23  C   UNL     1      46.897   3.581  13.532  0.00  0.00    +0.000 A 
ATOM     24  N   UNL     1      47.233   4.875  13.621  0.00  0.00    +0.000 NA
ATOM     25  C   UNL     1      46.388   5.721  12.972  0.00  0.00    +0.000 A 
ATOM     26  C   UNL     1      46.524   7.152  12.905  0.00  0.00    +0.000 A 
ATOM     27  C   UNL     1      45.486   7.706  12.174  0.00  0.00    +0.000 A 
ATOM     28  S   UNL     1      44.391   6.552  11.575  0.00  0.00    +0.000 S 
ATOM     29  C   UNL     1      45.271   5.259  12.278  0.00  0.00    +0.000 A 
BRANCH  21  31
ATOM     30  C   UNL     1      44.261   2.944  10.233  0.00  0.00    +0.000 C 
ATOM     31  O   UNL     1      43.935   3.399  11.541  0.00  0.00    +0.000 OA
ENDBRANCH  21  31
ENDBRANCH  17  26
ENDBRANCH   1  19
TORSDOF 8
ENDMDL
MODEL 8
REMARK VINA RESULT:    -6.071      4.855      6.902
REMARK INTER + INTRA:          -9.885
REMARK INTER:                  -8.913
REMARK INTRA:                  -0.972
REMARK UNBOUND:                -0.974
REMARK  Name = 
REMARK  9 active torsions:
REMARK  status: ('A' for Active; 'I' for Inactive)
REMARK    1  A    between atoms: C_1  and  O_2
REMARK    2  A    between atoms: O_2  and  C_3
REMARK    3  A    between atoms: C_8  and  C_9
REMARK    4  A    between atoms: N_11  and  C_12
REMARK    5  A    between atoms: C_12  and  C_13
REMARK    6  A    between atoms: C_16  and  C_17
REMARK    7  A    between atoms: C_17  and  O_18
REMARK    8  A    between atoms: O_18  and  C_19
REMARK    9  A    between atoms: C_19  and  C_20
REMARK                            x       y       z     vdW  Elec       q    Type
REMARK                         _______ _______ _______ _____ _____    ______ ____
ROOT
ATOM      1  C   UNL     1      49.394   7.996  12.247  0.00  0.00    +0.000 C 
ENDROOT
BRANCH   1   2
ATOM      2  C   UNL     1      48.228   7.048  12.276  0.00  0.00    +0.000 A 
ATOM      3  C   UNL     1      48.056   6.158  13.345  0.00  0.00    +0.000 A 
ATOM      4  C   UNL     1      46.926   5.338  13.412  0.00  0.00    +0.000 A 
ATOM      5  C   UNL     1      45.949   5.382  12.408  0.00  0.00    +0.000 A 
ATOM      6  C   UNL     1      46.137   6.250  11.324  0.00  0.00    +0.000 A 
ATOM      7  C   UNL     1      47.268   7.069  11.257  0.00  0.00    +0.000 A 
BRANCH   5   8
ATOM      8  C   UNL     1      44.725   4.505  12.490  0.00  0.00    +0.000 C 
BRANCH   8   9
ATOM      9  O   UNL     1      44.095   4.443  11.215  0.00  0.00    +0.000 OA
BRANCH   9  10
ATOM     10  C   UNL     1      44.090   3.106  10.702  0.00  0.00    +0.000 C 
BRANCH  10  11
ATOM     11  C   UNL     1      44.981   2.982   9.484  0.00  0.00    +0.000 A 
ATOM     12  N   UNL     1      45.400   1.747   9.131  0.00  0.00    +0.000 NA
ATOM     13  C   UNL     1      46.203   1.670   8.053  0.00  0.00    +0.000 A 
ATOM     14  C   UNL     1      46.591   2.762   7.315  0.00  0.00    +0.000 A 
ATOM     15  C   UNL     1      46.101   3.972   7.745  0.00  0.00    +0.000 A 
ATOM     16  N   UNL     1      45.297   4.112   8.815  0.00  0.00    +0.000 NA
ENDBRANCH  10  11
ENDBRANCH   9  10
ENDBRANCH   8   9
ENDBRANCH   5   8
ENDBRANCH   1   2
BRANCH   1  19
ATOM     17  C   UNL     1      51.635   8.252  11.327  0.00  0.00    +0.000 C 
ATOM     18  O   UNL     1      51.601   9.464  11.523  0.00  0.00    +0.000 OA
ATOM     19  N   UNL     1      50.576   7.433  11.645  0.00  0.00    +0.000 N 
ATOM     20  H   UNL     1      50.644   6.434  11.475  0.00  0.00    +0.000 HD
BRANCH  17  26
ATOM     21  C   UNL     1      54.537   5.874   8.036  0.00  0.00    +0.000 A 
ATOM     22  N   UNL     1      53.603   5.853   7.064  0.00  0.00    +0.000 NA
ATOM     23  C   UNL     1      52.419   6.419   7.327  0.00  0.00    +0.000 A 
ATOM     24  N   UNL     1      52.028   7.014   8.463  0.00  0.00    +0.000 NA
ATOM     25  C   UNL     1      52.976   7.037   9.439  0.00  0.00    +0.000 A 
ATOM     26  C   UNL     1      52.813   7.607  10.751  0.00  0.00    +0.000 A 
ATOM     27  C   UNL     1      53.977   7.469  11.489  0.00  0.00    +0.000 A 
ATOM     28  S   UNL     1      55.221   6.673  10.647  0.00  0.00    +0.000 S 
ATOM     29  C   UNL     1      54.241   6.483   9.253  0.00  0.00    +0.000 A 
BRANCH  21  31
ATOM     30  C   UNL     1      55.708   3.910   7.524  0.00  0.00    +0.000 C 
ATOM     31  O   UNL     1      55.775   5.299   7.827  0.00  0.00    +0.000 OA
ENDBRANCH  21  31
ENDBRANCH  17  26
ENDBRANCH   1  19
TORSDOF 8
ENDMDL
MODEL 9
REMARK VINA RESULT:    -5.716      5.328      7.771
REMARK INTER + INTRA:          -9.363
REMARK INTER:                  -8.344
REMARK INTRA:                  -1.019
REMARK UNBOUND:                -0.974
REMARK  Name = 
REMARK  9 active torsions:
REMARK  status: ('A' for Active; 'I' for Inactive)
REMARK    1  A    between atoms: C_1  and  O_2
REMARK    2  A    between atoms: O_2  and  C_3
REMARK    3  A    between atoms: C_8  and  C_9
REMARK    4  A    between atoms: N_11  and  C_12
REMARK    5  A    between atoms: C_12  and  C_13
REMARK    6  A    between atoms: C_16  and  C_17
REMARK    7  A    between atoms: C_17  and  O_18
REMARK    8  A    between atoms: O_18  and  C_19
REMARK    9  A    between atoms: C_19  and  C_20
REMARK                            x       y       z     vdW  Elec       q    Type
REMARK                         _______ _______ _______ _____ _____    ______ ____
ROOT
ATOM      1  C   UNL     1      51.402   9.349  11.238  0.00  0.00    +0.000 C 
ENDROOT
BRANCH   1   2
ATOM      2  C   UNL     1      49.962   9.019  11.516  0.00  0.00    +0.000 A 
ATOM      3  C   UNL     1      49.516   7.691  11.497  0.00  0.00    +0.000 A 
ATOM      4  C   UNL     1      48.197   7.379  11.840  0.00  0.00    +0.000 A 
ATOM      5  C   UNL     1      47.293   8.388  12.198  0.00  0.00    +0.000 A 
ATOM      6  C   UNL     1      47.731   9.719  12.186  0.00  0.00    +0.000 A 
ATOM      7  C   UNL     1      49.050  10.031  11.844  0.00  0.00    +0.000 A 
BRANCH   5   8
ATOM      8  C   UNL     1      45.875   8.046  12.579  0.00  0.00    +0.000 C 
BRANCH   8   9
ATOM      9  O   UNL     1      45.275   7.275  11.543  0.00  0.00    +0.000 OA
BRANCH   9  10
ATOM     10  C   UNL     1      44.916   5.969  12.009  0.00  0.00    +0.000 C 
BRANCH  10  11
ATOM     11  C   UNL     1      44.897   4.967  10.873  0.00  0.00    +0.000 A 
ATOM     12  N   UNL     1      45.544   5.293   9.732  0.00  0.00    +0.000 NA
ATOM     13  C   UNL     1      45.497   4.388   8.736  0.00  0.00    +0.000 A 
ATOM     14  C   UNL     1      44.847   3.181   8.836  0.00  0.00    +0.000 A 
ATOM     15  C   UNL     1      44.233   2.937  10.040  0.00  0.00    +0.000 A 
ATOM     16  N   UNL     1      44.244   3.802  11.072  0.00  0.00    +0.000 NA
ENDBRANCH  10  11
ENDBRANCH   9  10
ENDBRANCH   8   9
ENDBRANCH   5   8
ENDBRANCH   1   2
BRANCH   1  19
ATOM     17  C   UNL     1      53.268   7.795  11.046  0.00  0.00    +0.000 C 
ATOM     18  O   UNL     1      53.750   8.210  12.097  0.00  0.00    +0.000 OA
ATOM     19  N   UNL     1      52.101   8.309  10.527  0.00  0.00    +0.000 N 
ATOM     20  H   UNL     1      51.730   7.935   9.660  0.00  0.00    +0.000 HD
BRANCH  17  26
ATOM     21  C   UNL     1      54.226   4.621   7.316  0.00  0.00    +0.000 A 
ATOM     22  N   UNL     1      53.289   5.134   6.495  0.00  0.00    +0.000 NA
ATOM     23  C   UNL     1      52.570   6.171   6.942  0.00  0.00    +0.000 A 
ATOM     24  N   UNL     1      52.659   6.777   8.133  0.00  0.00    +0.000 NA
ATOM     25  C   UNL     1      53.610   6.260   8.958  0.00  0.00    +0.000 A 
ATOM     26  C   UNL     1      53.904   6.720  10.289  0.00  0.00    +0.000 A 
ATOM     27  C   UNL     1      54.936   5.979  10.843  0.00  0.00    +0.000 A 
ATOM     28  S   UNL     1      55.524   4.763   9.810  0.00  0.00    +0.000 S 
ATOM     29  C   UNL     1      54.414   5.187   8.575  0.00  0.00    +0.000 A 
BRANCH  21  31
ATOM     30  C   UNL     1      54.221   2.435   6.471  0.00  0.00    +0.000 C 
ATOM     31  O   UNL     1      54.994   3.545   6.915  0.00  0.00    +0.000 OA
ENDBRANCH  21  31
ENDBRANCH  17  26
ENDBRANCH   1  19
TORSDOF 8
ENDMDL
