MODEL 1
REMARK VINA RESULT:    -8.342      0.000      0.000
REMARK INTER + INTRA:         -13.326
REMARK INTER:                 -12.487
REMARK INTRA:                  -0.839
REMARK UNBOUND:                -0.839
REMARK  Name = 
REMARK  9 active torsions:
REMARK  status: ('A' for Active; 'I' for Inactive)
REMARK    1  A    between atoms: N_1  and  C_2
REMARK    2  A    between atoms: C_2  and  N_3
REMARK    3  A    between atoms: C_2  and  C_25
REMARK    4  A    between atoms: N_3  and  C_4
REMARK    5  A    between atoms: C_4  and  C_5
REMARK    6  A    between atoms: C_8  and  C_9
REMARK    7  A    between atoms: C_9  and  O_10
REMARK    8  A    between atoms: O_10  and  C_11
REMARK    9  A    between atoms: C_11  and  C_13
REMARK                            x       y       z     vdW  Elec       q    Type
REMARK                         _______ _______ _______ _____ _____    ______ ____
ROOT
ATOM      1  C   UNL     1      44.574   4.544  11.735  0.00  0.00    +0.000 A 
ATOM      2  C   UNL     1      44.895   5.795  12.282  0.00  0.00    +0.000 A 
ATOM      3  C   UNL     1      45.839   5.920  13.292  0.00  0.00    +0.000 A 
ATOM      4  C   UNL     1      46.489   4.790  13.785  0.00  0.00    +0.000 A 
ATOM      5  C   UNL     1      46.197   3.535  13.236  0.00  0.00    +0.000 A 
ATOM      6  C   UNL     1      45.250   3.412  12.215  0.00  0.00    +0.000 A 
ENDROOT
BRANCH   1   7
ATOM      7  C   UNL     1      43.462   4.367  10.716  0.00  0.00    +0.000 C 
BRANCH   7   8
ATOM      8  N   UNL     1      43.880   4.791   9.382  0.00  0.00    +0.000 NA
ATOM      9  H   UNL     1      43.202   4.386   8.746  0.00  0.00    +0.000 HD
BRANCH   8  10
ATOM     10  C   UNL     1      45.170   4.324   8.930  0.00  0.00    +0.000 C 
BRANCH  10  11
ATOM     11  C   UNL     1      44.951   3.478   7.635  0.00  0.00    +0.000 C 
ATOM     12  C   UNL     1      44.648   1.993   7.942  0.00  0.00    +0.000 C 
ATOM     13  C   UNL     1      45.870   1.303   8.546  0.00  0.00    +0.000 C 
ATOM     14  N   UNL     1      47.007   1.362   7.627  0.00  0.00    +0.000 NA
ATOM     15  C   UNL     1      47.354   2.744   7.273  0.00  0.00    +0.000 C 
ATOM     16  C   UNL     1      46.165   3.504   6.687  0.00  0.00    +0.000 C 
ATOM     17  H   UNL     1      46.753   0.866   6.771  0.00  0.00    +0.000 HD
ENDBRANCH  10  11
BRANCH  10  18
ATOM     18  N   UNL     1      45.942   5.506   8.656  0.00  0.00    +0.000 NA
ATOM     19  H   UNL     1      46.928   5.261   8.707  0.00  0.00    +0.000 HD
ATOM     20  H   UNL     1      45.783   6.132   9.444  0.00  0.00    +0.000 HD
ENDBRANCH  10  18
ENDBRANCH   8  10
ENDBRANCH   7   8
ENDBRANCH   1   7
BRANCH   4  21
ATOM     21  C   UNL     1      47.450   4.931  14.932  0.00  0.00    +0.000 C 
BRANCH  21  22
ATOM     22  O   UNL     1      47.712   3.648  15.495  0.00  0.00    +0.000 OA
BRANCH  22  23
ATOM     23  C   UNL     1      47.532   3.551  16.837  0.00  0.00    +0.000 C 
ATOM     24  O   UNL     1      46.540   3.088  17.386  0.00  0.00    +0.000 OA
BRANCH  23  25
ATOM     25  C   UNL     1      48.699   3.999  17.581  0.00  0.00    +0.000 A 
ATOM     26  C   UNL     1      48.679   5.175  18.316  0.00  0.00    +0.000 A 
ATOM     27  S   UNL     1      50.150   5.486  19.125  0.00  0.00    +0.000 S 
ATOM     28  C   UNL     1      50.865   4.076  18.486  0.00  0.00    +0.000 A 
ATOM     29  N   UNL     1      52.155   3.756  18.761  0.00  0.00    +0.000 NA
ATOM     30  C   UNL     1      52.567   2.671  18.196  0.00  0.00    +0.000 A 
ATOM     31  N   UNL     1      51.807   1.876  17.381  0.00  0.00    +0.000 N 
ATOM     32  C   UNL     1      50.510   2.180  17.026  0.00  0.00    +0.000 A 
ATOM     33  O   UNL     1      49.909   1.504  16.203  0.00  0.00    +0.000 OA
ATOM     34  C   UNL     1      49.989   3.373  17.672  0.00  0.00    +0.000 A 
ATOM     35  H   UNL     1      52.201   1.057  16.942  0.00  0.00    +0.000 HD
ENDBRANCH  23  25
ENDBRANCH  22  23
ENDBRANCH  21  22
ENDBRANCH   4  21
TORSDOF 9
ENDMDL
MODEL 2
REMARK VINA RESULT:    -7.184      3.183      4.341
REMARK INTER + INTRA:         -11.593
REMARK INTER:                  -9.752
REMARK INTRA:                  -1.841
REMARK UNBOUND:                -0.839
REMARK  Name = 
REMARK  9 active torsions:
REMARK  status: ('A' for Active; 'I' for Inactive)
REMARK    1  A    between atoms: N_1  and  C_2
REMARK    2  A    between atoms: C_2  and  N_3
REMARK    3  A    between atoms: C_2  and  C_25
REMARK    4  A    between atoms: N_3  and  C_4
REMARK    5  A    between atoms: C_4  and  C_5
REMARK    6  A    between atoms: C_8  and  C_9
REMARK    7  A    between atoms: C_9  and  O_10
REMARK    8  A    between atoms: O_10  and  C_11
REMARK    9  A    between atoms: C_11  and  C_13
REMARK                            x       y       z     vdW  Elec       q    Type
REMARK                         _______ _______ _______ _____ _____    ______ ____
ROOT
ATOM      1  C   UNL     1      47.655   7.982  13.414  0.00  0.00    +0.000 A 
ATOM      2  C   UNL     1      47.616   9.047  14.327  0.00  0.00    +0.000 A 
ATOM      3  C   UNL     1      48.295   8.985  15.537  0.00  0.00    +0.000 A 
ATOM      4  C   UNL     1      49.033   7.850  15.867  0.00  0.00    +0.000 A 
ATOM      5  C   UNL     1      49.101   6.786  14.958  0.00  0.00    +0.000 A 
ATOM      6  C   UNL     1      48.421   6.852  13.739  0.00  0.00    +0.000 A 
ENDROOT
BRANCH   1   7
ATOM      7  C   UNL     1      46.827   7.977  12.141  0.00  0.00    +0.000 C 
BRANCH   7   8
ATOM      8  N   UNL     1      46.595   6.619  11.654  0.00  0.00    +0.000 NA
ATOM      9  H   UNL     1      46.995   6.595  10.722  0.00  0.00    +0.000 HD
BRANCH   8  10
ATOM     10  C   UNL     1      45.217   6.215  11.500  0.00  0.00    +0.000 C 
BRANCH  10  11
ATOM     11  C   UNL     1      44.716   5.670  12.876  0.00  0.00    +0.000 C 
ATOM     12  C   UNL     1      45.636   4.566  13.446  0.00  0.00    +0.000 C 
ATOM     13  C   UNL     1      45.571   3.306  12.584  0.00  0.00    +0.000 C 
ATOM     14  N   UNL     1      44.205   2.784  12.529  0.00  0.00    +0.000 NA
ATOM     15  C   UNL     1      43.261   3.780  12.008  0.00  0.00    +0.000 C 
ATOM     16  C   UNL     1      43.294   5.081  12.808  0.00  0.00    +0.000 C 
ATOM     17  H   UNL     1      43.918   2.536  13.477  0.00  0.00    +0.000 HD
ENDBRANCH  10  11
BRANCH  10  18
ATOM     18  N   UNL     1      44.500   7.401  11.117  0.00  0.00    +0.000 NA
ATOM     19  H   UNL     1      45.178   8.134  10.923  0.00  0.00    +0.000 HD
ATOM     20  H   UNL     1      44.007   7.711  11.952  0.00  0.00    +0.000 HD
ENDBRANCH  10  18
ENDBRANCH   8  10
ENDBRANCH   7   8
ENDBRANCH   1   7
BRANCH   4  21
ATOM     21  C   UNL     1      49.697   7.766  17.213  0.00  0.00    +0.000 C 
BRANCH  21  22
ATOM     22  O   UNL     1      48.717   7.486  18.210  0.00  0.00    +0.000 OA
BRANCH  22  23
ATOM     23  C   UNL     1      48.950   6.380  18.963  0.00  0.00    +0.000 C 
ATOM     24  O   UNL     1      49.281   6.383  20.142  0.00  0.00    +0.000 OA
BRANCH  23  25
ATOM     25  C   UNL     1      48.689   5.152  18.228  0.00  0.00    +0.000 A 
ATOM     26  C   UNL     1      47.424   4.857  17.740  0.00  0.00    +0.000 A 
ATOM     27  S   UNL     1      47.361   3.378  16.889  0.00  0.00    +0.000 S 
ATOM     28  C   UNL     1      49.013   3.074  17.181  0.00  0.00    +0.000 A 
ATOM     29  N   UNL     1      49.606   1.934  16.744  0.00  0.00    +0.000 NA
ATOM     30  C   UNL     1      50.855   1.831  17.051  0.00  0.00    +0.000 A 
ATOM     31  N   UNL     1      51.568   2.765  17.755  0.00  0.00    +0.000 N 
ATOM     32  C   UNL     1      51.004   3.915  18.267  0.00  0.00    +0.000 A 
ATOM     33  O   UNL     1      51.650   4.662  18.989  0.00  0.00    +0.000 OA
ATOM     34  C   UNL     1      49.608   4.094  17.911  0.00  0.00    +0.000 A 
ATOM     35  H   UNL     1      52.535   2.608  17.992  0.00  0.00    +0.000 HD
ENDBRANCH  23  25
ENDBRANCH  22  23
ENDBRANCH  21  22
ENDBRANCH   4  21
TORSDOF 9
ENDMDL
MODEL 3
REMARK VINA RESULT:    -7.124      2.692      3.833
REMARK INTER + INTRA:         -11.503
REMARK INTER:                 -10.225
REMARK INTRA:                  -1.278
REMARK UNBOUND:                -0.839
REMARK  Name = 
REMARK  9 active torsions:
REMARK  status: ('A' for Active; 'I' for Inactive)
REMARK    1  A    between atoms: N_1  and  C_2
REMARK    2  A    between atoms: C_2  and  N_3
REMARK    3  A    between atoms: C_2  and  C_25
REMARK    4  A    between atoms: N_3  and  C_4
REMARK    5  A    between atoms: C_4  and  C_5
REMARK    6  A    between atoms: C_8  and  C_9
REMARK    7  A    between atoms: C_9  and  O_10
REMARK    8  A    between atoms: O_10  and  C_11
REMARK    9  A    between atoms: C_11  and  C_13
REMARK                            x       y       z     vdW  Elec       q    Type
REMARK                         _______ _______ _______ _____ _____    ______ ____
ROOT
ATOM      1  C   UNL     1      46.940   7.843  12.696  0.00  0.00    +0.000 A 
ATOM      2  C   UNL     1      47.056   8.653  13.836  0.00  0.00    +0.000 A 
ATOM      3  C   UNL     1      48.099   8.483  14.737  0.00  0.00    +0.000 A 
ATOM      4  C   UNL     1      49.056   7.493  14.521  0.00  0.00    +0.000 A 
ATOM      5  C   UNL     1      48.967   6.690  13.377  0.00  0.00    +0.000 A 
ATOM      6  C   UNL     1      47.920   6.866  12.469  0.00  0.00    +0.000 A 
ENDROOT
BRANCH   1   7
ATOM      7  C   UNL     1      45.747   7.930  11.761  0.00  0.00    +0.000 C 
BRANCH   7   8
ATOM      8  N   UNL     1      44.545   7.357  12.364  0.00  0.00    +0.000 NA
ATOM      9  H   UNL     1      44.867   6.869  13.193  0.00  0.00    +0.000 HD
BRANCH   8  10
ATOM     10  C   UNL     1      43.836   6.372  11.580  0.00  0.00    +0.000 C 
BRANCH  10  11
ATOM     11  C   UNL     1      43.460   5.184  12.521  0.00  0.00    +0.000 C 
ATOM     12  C   UNL     1      44.669   4.673  13.341  0.00  0.00    +0.000 C 
ATOM     13  C   UNL     1      45.705   4.017  12.429  0.00  0.00    +0.000 C 
ATOM     14  N   UNL     1      45.121   2.882  11.712  0.00  0.00    +0.000 NA
ATOM     15  C   UNL     1      43.954   3.281  10.916  0.00  0.00    +0.000 C 
ATOM     16  C   UNL     1      42.887   3.972  11.762  0.00  0.00    +0.000 C 
ATOM     17  H   UNL     1      44.819   2.190  12.399  0.00  0.00    +0.000 HD
ENDBRANCH  10  11
BRANCH  10  18
ATOM     18  N   UNL     1      42.659   7.038  11.087  0.00  0.00    +0.000 NA
ATOM     19  H   UNL     1      42.700   8.012  11.376  0.00  0.00    +0.000 HD
ATOM     20  H   UNL     1      41.877   6.640  11.603  0.00  0.00    +0.000 HD
ENDBRANCH  10  18
ENDBRANCH   8  10
ENDBRANCH   7   8
ENDBRANCH   1   7
BRANCH   4  21
ATOM     21  C   UNL     1      50.133   7.270  15.546  0.00  0.00    +0.000 C 
BRANCH  21  22
ATOM     22  O   UNL     1      50.142   5.899  15.936  0.00  0.00    +0.000 OA
BRANCH  22  23
ATOM     23  C   UNL     1      50.115   5.672  17.274  0.00  0.00    +0.000 C 
ATOM     24  O   UNL     1      49.224   6.030  18.034  0.00  0.00    +0.000 OA
BRANCH  23  25
ATOM     25  C   UNL     1      51.247   4.875  17.718  0.00  0.00    +0.000 A 
ATOM     26  C   UNL     1      52.398   5.468  18.216  0.00  0.00    +0.000 A 
ATOM     27  S   UNL     1      53.583   4.338  18.698  0.00  0.00    +0.000 S 
ATOM     28  C   UNL     1      52.605   3.025  18.221  0.00  0.00    +0.000 A 
ATOM     29  N   UNL     1      53.044   1.745  18.333  0.00  0.00    +0.000 NA
ATOM     30  C   UNL     1      52.205   0.856  17.918  0.00  0.00    +0.000 A 
ATOM     31  N   UNL     1      50.966   1.129  17.402  0.00  0.00    +0.000 N 
ATOM     32  C   UNL     1      50.492   2.411  17.217  0.00  0.00    +0.000 A 
ATOM     33  O   UNL     1      49.429   2.610  16.645  0.00  0.00    +0.000 OA
ATOM     34  C   UNL     1      51.386   3.445  17.708  0.00  0.00    +0.000 A 
ATOM     35  H   UNL     1      50.371   0.388  17.063  0.00  0.00    +0.000 HD
ENDBRANCH  23  25
ENDBRANCH  22  23
ENDBRANCH  21  22
ENDBRANCH   4  21
TORSDOF 9
ENDMDL
MODEL 4
REMARK VINA RESULT:    -6.830      3.434      4.844
REMARK INTER + INTRA:         -11.063
REMARK INTER:                  -9.296
REMARK INTRA:                  -1.767
REMARK UNBOUND:                -0.839
REMARK  Name = 
REMARK  9 active torsions:
REMARK  status: ('A' for Active; 'I' for Inactive)
REMARK    1  A    between atoms: N_1  and  C_2
REMARK    2  A    between atoms: C_2  and  N_3
REMARK    3  A    between atoms: C_2  and  C_25
REMARK    4  A    between atoms: N_3  and  C_4
REMARK    5  A    between atoms: C_4  and  C_5
REMARK    6  A    between atoms: C_8  and  C_9
REMARK    7  A    between atoms: C_9  and  O_10
REMARK    8  A    between atoms: O_10  and  C_11
REMARK    9  A    between atoms: C_11  and  C_13
REMARK                            x       y       z     vdW  Elec       q    Type
REMARK                         _______ _______ _______ _____ _____    ______ ____
ROOT
ATOM      1  C   UNL     1      46.657   8.174  12.343  0.00  0.00    +0.000 A 
ATOM      2  C   UNL     1      47.825   7.700  11.727  0.00  0.00    +0.000 A 
ATOM      3  C   UNL     1      49.074   7.907  12.297  0.00  0.00    +0.000 A 
ATOM      4  C   UNL     1      49.188   8.598  13.502  0.00  0.00    +0.000 A 
ATOM      5  C   UNL     1      48.030   9.059  14.141  0.00  0.00    +0.000 A 
ATOM      6  C   UNL     1      46.773   8.845  13.569  0.00  0.00    +0.000 A 
ENDROOT
BRANCH   1   7
ATOM      7  C   UNL     1      45.293   8.065  11.683  0.00  0.00    +0.000 C 
BRANCH   7   8
ATOM      8  N   UNL     1      45.136   6.797  10.974  0.00  0.00    +0.000 NA
ATOM      9  H   UNL     1      45.044   7.046   9.995  0.00  0.00    +0.000 HD
BRANCH   8  10
ATOM     10  C   UNL     1      43.963   6.018  11.294  0.00  0.00    +0.000 C 
BRANCH  10  11
ATOM     11  C   UNL     1      44.123   5.479  12.751  0.00  0.00    +0.000 C 
ATOM     12  C   UNL     1      45.528   4.887  13.012  0.00  0.00    +0.000 C 
ATOM     13  C   UNL     1      45.740   3.612  12.197  0.00  0.00    +0.000 C 
ATOM     14  N   UNL     1      44.742   2.601  12.545  0.00  0.00    +0.000 NA
ATOM     15  C   UNL     1      43.373   3.089  12.337  0.00  0.00    +0.000 C 
ATOM     16  C   UNL     1      43.100   4.382  13.103  0.00  0.00    +0.000 C 
ATOM     17  H   UNL     1      44.852   2.368  13.533  0.00  0.00    +0.000 HD
ENDBRANCH  10  11
BRANCH  10  18
ATOM     18  N   UNL     1      42.850   6.925  11.193  0.00  0.00    +0.000 NA
ATOM     19  H   UNL     1      42.926   7.606  11.944  0.00  0.00    +0.000 HD
ATOM     20  H   UNL     1      42.022   6.375  11.416  0.00  0.00    +0.000 HD
ENDBRANCH  10  18
ENDBRANCH   8  10
ENDBRANCH   7   8
ENDBRANCH   1   7
BRANCH   4  21
ATOM     21  C   UNL     1      50.552   8.882  14.064  0.00  0.00    +0.000 C 
BRANCH  21  22
ATOM     22  O   UNL     1      50.519   8.752  15.484  0.00  0.00    +0.000 OA
BRANCH  22  23
ATOM     23  C   UNL     1      51.075   7.617  15.980  0.00  0.00    +0.000 C 
ATOM     24  O   UNL     1      52.063   7.056  15.523  0.00  0.00    +0.000 OA
BRANCH  23  25
ATOM     25  C   UNL     1      50.404   7.160  17.186  0.00  0.00    +0.000 A 
ATOM     26  C   UNL     1      50.876   7.494  18.447  0.00  0.00    +0.000 A 
ATOM     27  S   UNL     1      49.916   6.869  19.712  0.00  0.00    +0.000 S 
ATOM     28  C   UNL     1      48.862   6.104  18.610  0.00  0.00    +0.000 A 
ATOM     29  N   UNL     1      47.817   5.353  19.043  0.00  0.00    +0.000 NA
ATOM     30  C   UNL     1      47.116   4.822  18.099  0.00  0.00    +0.000 A 
ATOM     31  N   UNL     1      47.363   4.973  16.760  0.00  0.00    +0.000 N 
ATOM     32  C   UNL     1      48.439   5.680  16.267  0.00  0.00    +0.000 A 
ATOM     33  O   UNL     1      48.688   5.690  15.069  0.00  0.00    +0.000 OA
ATOM     34  C   UNL     1      49.235   6.331  17.293  0.00  0.00    +0.000 A 
ATOM     35  H   UNL     1      46.795   4.502  16.072  0.00  0.00    +0.000 HD
ENDBRANCH  23  25
ENDBRANCH  22  23
ENDBRANCH  21  22
ENDBRANCH   4  21
TORSDOF 9
ENDMDL
MODEL 5
REMARK VINA RESULT:    -6.566      3.113      9.522
REMARK INTER + INTRA:         -10.668
REMARK INTER:                  -9.613
REMARK INTRA:                  -1.056
REMARK UNBOUND:                -0.839
REMARK  Name = 
REMARK  9 active torsions:
REMARK  status: ('A' for Active; 'I' for Inactive)
REMARK    1  A    between atoms: N_1  and  C_2
REMARK    2  A    between atoms: C_2  and  N_3
REMARK    3  A    between atoms: C_2  and  C_25
REMARK    4  A    between atoms: N_3  and  C_4
REMARK    5  A    between atoms: C_4  and  C_5
REMARK    6  A    between atoms: C_8  and  C_9
REMARK    7  A    between atoms: C_9  and  O_10
REMARK    8  A    between atoms: O_10  and  C_11
REMARK    9  A    between atoms: C_11  and  C_13
REMARK                            x       y       z     vdW  Elec       q    Type
REMARK                         _______ _______ _______ _____ _____    ______ ____
ROOT
ATOM      1  C   UNL     1      48.423   5.015  16.600  0.00  0.00    +0.000 A 
ATOM      2  C   UNL     1      48.834   6.211  15.991  0.00  0.00    +0.000 A 
ATOM      3  C   UNL     1      48.342   6.594  14.750  0.00  0.00    +0.000 A 
ATOM      4  C   UNL     1      47.423   5.786  14.082  0.00  0.00    +0.000 A 
ATOM      5  C   UNL     1      46.986   4.600  14.685  0.00  0.00    +0.000 A 
ATOM      6  C   UNL     1      47.478   4.219  15.936  0.00  0.00    +0.000 A 
ENDROOT
BRANCH   1   7
ATOM      7  C   UNL     1      49.034   4.517  17.897  0.00  0.00    +0.000 C 
BRANCH   7   8
ATOM      8  N   UNL     1      50.469   4.789  17.958  0.00  0.00    +0.000 NA
ATOM      9  H   UNL     1      50.653   5.435  17.198  0.00  0.00    +0.000 HD
BRANCH   8  10
ATOM     10  C   UNL     1      51.349   3.665  17.740  0.00  0.00    +0.000 C 
BRANCH  10  11
ATOM     11  C   UNL     1      52.494   3.734  18.800  0.00  0.00    +0.000 C 
ATOM     12  C   UNL     1      53.401   4.972  18.611  0.00  0.00    +0.000 C 
ATOM     13  C   UNL     1      54.201   4.867  17.313  0.00  0.00    +0.000 C 
ATOM     14  N   UNL     1      55.047   3.673  17.320  0.00  0.00    +0.000 NA
ATOM     15  C   UNL     1      54.261   2.447  17.508  0.00  0.00    +0.000 C 
ATOM     16  C   UNL     1      53.411   2.496  18.777  0.00  0.00    +0.000 C 
ATOM     17  H   UNL     1      55.707   3.752  18.095  0.00  0.00    +0.000 HD
ENDBRANCH  10  11
BRANCH  10  18
ATOM     18  N   UNL     1      50.539   2.490  17.924  0.00  0.00    +0.000 NA
ATOM     19  H   UNL     1      50.965   1.920  18.651  0.00  0.00    +0.000 HD
ATOM     20  H   UNL     1      50.639   1.946  17.069  0.00  0.00    +0.000 HD
ENDBRANCH  10  18
ENDBRANCH   8  10
ENDBRANCH   7   8
ENDBRANCH   1   7
BRANCH   4  21
ATOM     21  C   UNL     1      46.961   6.175  12.706  0.00  0.00    +0.000 C 
BRANCH  21  22
ATOM     22  O   UNL     1      45.734   6.895  12.802  0.00  0.00    +0.000 OA
BRANCH  22  23
ATOM     23  C   UNL     1      44.879   6.733  11.760  0.00  0.00    +0.000 C 
ATOM     24  O   UNL     1      44.499   7.625  11.011  0.00  0.00    +0.000 OA
BRANCH  23  25
ATOM     25  C   UNL     1      44.504   5.341  11.570  0.00  0.00    +0.000 A 
ATOM     26  C   UNL     1      43.799   4.644  12.541  0.00  0.00    +0.000 A 
ATOM     27  S   UNL     1      43.447   3.035  12.091  0.00  0.00    +0.000 S 
ATOM     28  C   UNL     1      44.259   3.215  10.601  0.00  0.00    +0.000 A 
ATOM     29  N   UNL     1      44.364   2.180   9.729  0.00  0.00    +0.000 NA
ATOM     30  C   UNL     1      45.018   2.455   8.651  0.00  0.00    +0.000 A 
ATOM     31  N   UNL     1      45.577   3.672   8.365  0.00  0.00    +0.000 N 
ATOM     32  C   UNL     1      45.546   4.741   9.236  0.00  0.00    +0.000 A 
ATOM     33  O   UNL     1      46.159   5.770   8.989  0.00  0.00    +0.000 OA
ATOM     34  C   UNL     1      44.784   4.490  10.447  0.00  0.00    +0.000 A 
ATOM     35  H   UNL     1      46.107   3.813   7.518  0.00  0.00    +0.000 HD
ENDBRANCH  23  25
ENDBRANCH  22  23
ENDBRANCH  21  22
ENDBRANCH   4  21
TORSDOF 9
ENDMDL
MODEL 6
REMARK VINA RESULT:    -6.505      3.748      5.050
REMARK INTER + INTRA:         -10.576
REMARK INTER:                  -8.970
REMARK INTRA:                  -1.606
REMARK UNBOUND:                -0.839
REMARK  Name = 
REMARK  9 active torsions:
REMARK  status: ('A' for Active; 'I' for Inactive)
REMARK    1  A    between atoms: N_1  and  C_2
REMARK    2  A    between atoms: C_2  and  N_3
REMARK    3  A    between atoms: C_2  and  C_25
REMARK    4  A    between atoms: N_3  and  C_4
REMARK    5  A    between atoms: C_4  and  C_5
REMARK    6  A    between atoms: C_8  and  C_9
REMARK    7  A    between atoms: C_9  and  O_10
REMARK    8  A    between atoms: O_10  and  C_11
REMARK    9  A    between atoms: C_11  and  C_13
REMARK                            x       y       z     vdW  Elec       q    Type
REMARK                         _______ _______ _______ _____ _____    ______ ____
ROOT
ATOM      1  C   UNL     1      46.925   8.214  12.402  0.00  0.00    +0.000 A 
ATOM      2  C   UNL     1      48.044   7.674  11.752  0.00  0.00    +0.000 A 
ATOM      3  C   UNL     1      49.238   7.459  12.429  0.00  0.00    +0.000 A 
ATOM      4  C   UNL     1      49.343   7.782  13.781  0.00  0.00    +0.000 A 
ATOM      5  C   UNL     1      48.228   8.302  14.451  0.00  0.00    +0.000 A 
ATOM      6  C   UNL     1      47.027   8.513  13.769  0.00  0.00    +0.000 A 
ENDROOT
BRANCH   1   7
ATOM      7  C   UNL     1      45.650   8.569  11.658  0.00  0.00    +0.000 C 
BRANCH   7   8
ATOM      8  N   UNL     1      44.503   7.818  12.163  0.00  0.00    +0.000 NA
ATOM      9  H   UNL     1      44.596   7.832  13.173  0.00  0.00    +0.000 HD
BRANCH   8  10
ATOM     10  C   UNL     1      44.431   6.423  11.795  0.00  0.00    +0.000 C 
BRANCH  10  11
ATOM     11  C   UNL     1      44.240   5.587  13.100  0.00  0.00    +0.000 C 
ATOM     12  C   UNL     1      45.546   4.897  13.558  0.00  0.00    +0.000 C 
ATOM     13  C   UNL     1      45.964   3.812  12.566  0.00  0.00    +0.000 C 
ATOM     14  N   UNL     1      44.922   2.792  12.444  0.00  0.00    +0.000 NA
ATOM     15  C   UNL     1      43.639   3.368  12.024  0.00  0.00    +0.000 C 
ATOM     16  C   UNL     1      43.174   4.484  12.958  0.00  0.00    +0.000 C 
ATOM     17  H   UNL     1      44.793   2.355  13.358  0.00  0.00    +0.000 HD
ENDBRANCH  10  11
BRANCH  10  18
ATOM     18  N   UNL     1      43.289   6.305  10.928  0.00  0.00    +0.000 NA
ATOM     19  H   UNL     1      43.497   6.791  10.059  0.00  0.00    +0.000 HD
ATOM     20  H   UNL     1      42.549   6.849  11.367  0.00  0.00    +0.000 HD
ENDBRANCH  10  18
ENDBRANCH   8  10
ENDBRANCH   7   8
ENDBRANCH   1   7
BRANCH   4  21
ATOM     21  C   UNL     1      50.663   7.617  14.479  0.00  0.00    +0.000 C 
BRANCH  21  22
ATOM     22  O   UNL     1      50.464   7.661  15.890  0.00  0.00    +0.000 OA
BRANCH  22  23
ATOM     23  C   UNL     1      50.695   6.497  16.550  0.00  0.00    +0.000 C 
ATOM     24  O   UNL     1      51.771   5.914  16.601  0.00  0.00    +0.000 OA
BRANCH  23  25
ATOM     25  C   UNL     1      49.520   6.033  17.270  0.00  0.00    +0.000 A 
ATOM     26  C   UNL     1      48.681   5.065  16.737  0.00  0.00    +0.000 A 
ATOM     27  S   UNL     1      47.382   4.659  17.769  0.00  0.00    +0.000 S 
ATOM     28  C   UNL     1      47.886   5.792  18.941  0.00  0.00    +0.000 A 
ATOM     29  N   UNL     1      47.179   5.981  20.084  0.00  0.00    +0.000 NA
ATOM     30  C   UNL     1      47.668   6.881  20.870  0.00  0.00    +0.000 A 
ATOM     31  N   UNL     1      48.799   7.610  20.618  0.00  0.00    +0.000 N 
ATOM     32  C   UNL     1      49.525   7.497  19.450  0.00  0.00    +0.000 A 
ATOM     33  O   UNL     1      50.459   8.251  19.216  0.00  0.00    +0.000 OA
ATOM     34  C   UNL     1      49.035   6.465  18.552  0.00  0.00    +0.000 A 
ATOM     35  H   UNL     1      49.109   8.324  21.259  0.00  0.00    +0.000 HD
ENDBRANCH  23  25
ENDBRANCH  22  23
ENDBRANCH  21  22
ENDBRANCH   4  21
TORSDOF 9
ENDMDL
MODEL 7
REMARK VINA RESULT:    -6.227      3.421      5.622
REMARK INTER + INTRA:         -10.161
REMARK INTER:                  -8.228
REMARK INTRA:                  -1.933
REMARK UNBOUND:                -0.839
REMARK  Name = 
REMARK  9 active torsions:
REMARK  status: ('A' for Active; 'I' for Inactive)
REMARK    1  A    between atoms: N_1  and  C_2
REMARK    2  A    between atoms: C_2  and  N_3
REMARK    3  A    between atoms: C_2  and  C_25
REMARK    4  A    between atoms: N_3  and  C_4
REMARK    5  A    between atoms: C_4  and  C_5
REMARK    6  A    between atoms: C_8  and  C_9
REMARK    7  A    between atoms: C_9  and  O_10
REMARK    8  A    between atoms: O_10  and  C_11
REMARK    9  A    between atoms: C_11  and  C_13
REMARK                            x       y       z     vdW  Elec       q    Type
REMARK                         _______ _______ _______ _____ _____    ______ ____
ROOT
ATOM      1  C   UNL     1      47.794   3.539  16.366  0.00  0.00    +0.000 A 
ATOM      2  C   UNL     1      48.923   2.942  16.946  0.00  0.00    +0.000 A 
ATOM      3  C   UNL     1      49.372   3.320  18.205  0.00  0.00    +0.000 A 
ATOM      4  C   UNL     1      48.700   4.310  18.919  0.00  0.00    +0.000 A 
ATOM      5  C   UNL     1      47.558   4.902  18.364  0.00  0.00    +0.000 A 
ATOM      6  C   UNL     1      47.105   4.516  17.100  0.00  0.00    +0.000 A 
ENDROOT
BRANCH   1   7
ATOM      7  C   UNL     1      47.355   3.229  14.946  0.00  0.00    +0.000 C 
BRANCH   7   8
ATOM      8  N   UNL     1      46.326   4.158  14.485  0.00  0.00    +0.000 NA
ATOM      9  H   UNL     1      45.494   3.593  14.349  0.00  0.00    +0.000 HD
BRANCH   8  10
ATOM     10  C   UNL     1      46.566   4.813  13.220  0.00  0.00    +0.000 C 
BRANCH  10  11
ATOM     11  C   UNL     1      45.452   5.888  13.012  0.00  0.00    +0.000 C 
ATOM     12  C   UNL     1      44.040   5.265  12.913  0.00  0.00    +0.000 C 
ATOM     13  C   UNL     1      43.899   4.438  11.636  0.00  0.00    +0.000 C 
ATOM     14  N   UNL     1      44.121   5.269  10.452  0.00  0.00    +0.000 NA
ATOM     15  C   UNL     1      45.441   5.910  10.473  0.00  0.00    +0.000 C 
ATOM     16  C   UNL     1      45.662   6.733  11.741  0.00  0.00    +0.000 C 
ATOM     17  H   UNL     1      43.409   6.001  10.436  0.00  0.00    +0.000 HD
ENDBRANCH  10  11
BRANCH  10  18
ATOM     18  N   UNL     1      47.864   5.423  13.334  0.00  0.00    +0.000 NA
ATOM     19  H   UNL     1      48.465   5.028  12.614  0.00  0.00    +0.000 HD
ATOM     20  H   UNL     1      48.252   5.090  14.215  0.00  0.00    +0.000 HD
ENDBRANCH  10  18
ENDBRANCH   8  10
ENDBRANCH   7   8
ENDBRANCH   1   7
BRANCH   4  21
ATOM     21  C   UNL     1      49.244   4.764  20.245  0.00  0.00    +0.000 C 
BRANCH  21  22
ATOM     22  O   UNL     1      49.202   6.187  20.316  0.00  0.00    +0.000 OA
BRANCH  22  23
ATOM     23  C   UNL     1      50.075   6.838  19.505  0.00  0.00    +0.000 C 
ATOM     24  O   UNL     1      51.274   6.603  19.423  0.00  0.00    +0.000 OA
BRANCH  23  25
ATOM     25  C   UNL     1      49.412   7.825  18.667  0.00  0.00    +0.000 A 
ATOM     26  C   UNL     1      48.662   8.854  19.217  0.00  0.00    +0.000 A 
ATOM     27  S   UNL     1      48.000   9.904  18.045  0.00  0.00    +0.000 S 
ATOM     28  C   UNL     1      48.668   8.991  16.769  0.00  0.00    +0.000 A 
ATOM     29  N   UNL     1      48.450   9.332  15.473  0.00  0.00    +0.000 NA
ATOM     30  C   UNL     1      49.002   8.542  14.614  0.00  0.00    +0.000 A 
ATOM     31  N   UNL     1      49.754   7.443  14.932  0.00  0.00    +0.000 N 
ATOM     32  C   UNL     1      49.963   7.021  16.229  0.00  0.00    +0.000 A 
ATOM     33  O   UNL     1      50.541   5.968  16.461  0.00  0.00    +0.000 OA
ATOM     34  C   UNL     1      49.394   7.903  17.232  0.00  0.00    +0.000 A 
ATOM     35  H   UNL     1      50.130   6.846  14.211  0.00  0.00    +0.000 HD
ENDBRANCH  23  25
ENDBRANCH  22  23
ENDBRANCH  21  22
ENDBRANCH   4  21
TORSDOF 9
ENDMDL
