MODEL 1
REMARK VINA RESULT:    -6.776      0.000      0.000
REMARK INTER + INTRA:          -8.880
REMARK INTER:                  -8.558
REMARK INTRA:                  -0.321
REMARK UNBOUND:                -0.321
REMARK  Name = 
REMARK  5 active torsions:
REMARK  status: ('A' for Active; 'I' for Inactive)
REMARK    1  A    between atoms: N_1  and  C_2
REMARK    2  A    between atoms: C_2  and  C_3
REMARK    3  A    between atoms: C_6  and  C_7
REMARK    4  A    between atoms: C_7  and  S_8
REMARK    5  A    between atoms: S_8  and  C_9
REMARK                            x       y       z     vdW  Elec       q    Type
REMARK                         _______ _______ _______ _____ _____    ______ ____
ROOT
ATOM      1  C   UNL     1      46.583   2.782   6.909  0.00  0.00    +0.000 A 
ATOM      2  N   UNL     1      45.979   3.942   7.230  0.00  0.00    +0.000 NA
ATOM      3  C   UNL     1      45.209   3.935   8.337  0.00  0.00    +0.000 A 
ATOM      4  C   UNL     1      45.003   2.826   9.135  0.00  0.00    +0.000 A 
ATOM      5  C   UNL     1      45.668   1.692   8.715  0.00  0.00    +0.000 A 
ATOM      6  N   UNL     1      46.457   1.637   7.618  0.00  0.00    +0.000 NA
ENDROOT
BRANCH   1   7
ATOM      7  C   UNL     1      47.444   2.750   5.655  0.00  0.00    +0.000 C 
BRANCH   7   8
ATOM      8  N   UNL     1      48.553   1.780   5.712  0.00  0.00    +0.000 NA
ATOM      9  H   UNL     1      49.352   2.168   5.218  0.00  0.00    +0.000 HD
ATOM     10  H   UNL     1      48.255   0.953   5.192  0.00  0.00    +0.000 HD
ENDBRANCH   7   8
ENDBRANCH   1   7
BRANCH   4  11
ATOM     11  C   UNL     1      44.128   2.858  10.354  0.00  0.00    +0.000 C 
BRANCH  11  12
ATOM     12  S   UNL     1      43.778   4.569  10.868  0.00  0.00    +0.000 S 
BRANCH  12  13
ATOM     13  C   UNL     1      45.160   4.890  11.933  0.00  0.00    +0.000 A 
ATOM     14  N   UNL     1      45.992   5.869  11.534  0.00  0.00    +0.000 NA
ATOM     15  C   UNL     1      46.977   6.210  12.384  0.00  0.00    +0.000 A 
ATOM     16  C   UNL     1      47.159   5.613  13.605  0.00  0.00    +0.000 A 
ATOM     17  C   UNL     1      46.264   4.617  13.913  0.00  0.00    +0.000 A 
ATOM     18  N   UNL     1      45.259   4.231  13.098  0.00  0.00    +0.000 NA
ENDBRANCH  12  13
ENDBRANCH  11  12
ENDBRANCH   4  11
TORSDOF 5
ENDMDL
MODEL 2
REMARK VINA RESULT:    -6.367      1.608      6.177
REMARK INTER + INTRA:          -8.363
REMARK INTER:                  -8.048
REMARK INTRA:                  -0.314
REMARK UNBOUND:                -0.321
REMARK  Name = 
REMARK  5 active torsions:
REMARK  status: ('A' for Active; 'I' for Inactive)
REMARK    1  A    between atoms: N_1  and  C_2
REMARK    2  A    between atoms: C_2  and  C_3
REMARK    3  A    between atoms: C_6  and  C_7
REMARK    4  A    between atoms: C_7  and  S_8
REMARK    5  A    between atoms: S_8  and  C_9
REMARK                            x       y       z     vdW  Elec       q    Type
REMARK                         _______ _______ _______ _____ _____    ______ ____
ROOT
ATOM      1  C   UNL     1      46.859   4.587  14.225  0.00  0.00    +0.000 A 
ATOM      2  N   UNL     1      45.958   3.744  13.684  0.00  0.00    +0.000 NA
ATOM      3  C   UNL     1      45.451   4.092  12.484  0.00  0.00    +0.000 A 
ATOM      4  C   UNL     1      45.789   5.244  11.801  0.00  0.00    +0.000 A 
ATOM      5  C   UNL     1      46.718   6.035  12.445  0.00  0.00    +0.000 A 
ATOM      6  N   UNL     1      47.267   5.738  13.645  0.00  0.00    +0.000 NA
ENDROOT
BRANCH   1   7
ATOM      7  C   UNL     1      47.438   4.233  15.587  0.00  0.00    +0.000 C 
BRANCH   7   8
ATOM      8  N   UNL     1      47.960   2.858  15.680  0.00  0.00    +0.000 NA
ATOM      9  H   UNL     1      47.331   2.235  15.182  0.00  0.00    +0.000 HD
ATOM     10  H   UNL     1      47.926   2.590  16.664  0.00  0.00    +0.000 HD
ENDBRANCH   7   8
ENDBRANCH   1   7
BRANCH   4  11
ATOM     11  C   UNL     1      45.191   5.601  10.471  0.00  0.00    +0.000 C 
BRANCH  11  12
ATOM     12  S   UNL     1      44.114   4.269   9.856  0.00  0.00    +0.000 S 
BRANCH  12  13
ATOM     13  C   UNL     1      45.210   3.439   8.736  0.00  0.00    +0.000 A 
ATOM     14  N   UNL     1      45.871   4.229   7.870  0.00  0.00    +0.000 NA
ATOM     15  C   UNL     1      46.795   3.636   7.093  0.00  0.00    +0.000 A 
ATOM     16  C   UNL     1      47.080   2.296   7.149  0.00  0.00    +0.000 A 
ATOM     17  C   UNL     1      46.342   1.574   8.057  0.00  0.00    +0.000 A 
ATOM     18  N   UNL     1      45.400   2.116   8.859  0.00  0.00    +0.000 NA
ENDBRANCH  12  13
ENDBRANCH  11  12
ENDBRANCH   4  11
TORSDOF 5
ENDMDL
MODEL 3
REMARK VINA RESULT:    -6.204      1.442      6.149
REMARK INTER + INTRA:          -8.158
REMARK INTER:                  -7.851
REMARK INTRA:                  -0.307
REMARK UNBOUND:                -0.321
REMARK  Name = 
REMARK  5 active torsions:
REMARK  status: ('A' for Active; 'I' for Inactive)
REMARK    1  A    between atoms: N_1  and  C_2
REMARK    2  A    between atoms: C_2  and  C_3
REMARK    3  A    between atoms: C_6  and  C_7
REMARK    4  A    between atoms: C_7  and  S_8
REMARK    5  A    between atoms: S_8  and  C_9
REMARK                            x       y       z     vdW  Elec       q    Type
REMARK                         _______ _______ _______ _____ _____    ______ ____
ROOT
ATOM      1  C   UNL     1      46.791   5.571  13.150  0.00  0.00    +0.000 A 
ATOM      2  N   UNL     1      46.731   6.342  12.047  0.00  0.00    +0.000 NA
ATOM      3  C   UNL     1      45.911   5.921  11.063  0.00  0.00    +0.000 A 
ATOM      4  C   UNL     1      45.158   4.765  11.118  0.00  0.00    +0.000 A 
ATOM      5  C   UNL     1      45.296   4.052  12.290  0.00  0.00    +0.000 A 
ATOM      6  N   UNL     1      46.095   4.423  13.315  0.00  0.00    +0.000 NA
ENDROOT
BRANCH   1   7
ATOM      7  C   UNL     1      47.719   6.006  14.274  0.00  0.00    +0.000 C 
BRANCH   7   8
ATOM      8  N   UNL     1      47.706   5.113  15.446  0.00  0.00    +0.000 NA
ATOM      9  H   UNL     1      46.807   4.641  15.487  0.00  0.00    +0.000 HD
ATOM     10  H   UNL     1      47.770   5.704  16.275  0.00  0.00    +0.000 HD
ENDBRANCH   7   8
ENDBRANCH   1   7
BRANCH   4  11
ATOM     11  C   UNL     1      44.266   4.326   9.992  0.00  0.00    +0.000 C 
BRANCH  11  12
ATOM     12  S   UNL     1      44.394   2.532   9.713  0.00  0.00    +0.000 S 
BRANCH  12  13
ATOM     13  C   UNL     1      45.627   2.476   8.438  0.00  0.00    +0.000 A 
ATOM     14  N   UNL     1      46.269   1.303   8.295  0.00  0.00    +0.000 NA
ATOM     15  C   UNL     1      47.120   1.202   7.259  0.00  0.00    +0.000 A 
ATOM     16  C   UNL     1      47.352   2.220   6.370  0.00  0.00    +0.000 A 
ATOM     17  C   UNL     1      46.656   3.381   6.611  0.00  0.00    +0.000 A 
ATOM     18  N   UNL     1      45.792   3.540   7.636  0.00  0.00    +0.000 NA
ENDBRANCH  12  13
ENDBRANCH  11  12
ENDBRANCH   4  11
TORSDOF 5
ENDMDL
MODEL 4
REMARK VINA RESULT:    -6.006      1.788      6.261
REMARK INTER + INTRA:          -7.907
REMARK INTER:                  -7.587
REMARK INTRA:                  -0.320
REMARK UNBOUND:                -0.321
REMARK  Name = 
REMARK  5 active torsions:
REMARK  status: ('A' for Active; 'I' for Inactive)
REMARK    1  A    between atoms: N_1  and  C_2
REMARK    2  A    between atoms: C_2  and  C_3
REMARK    3  A    between atoms: C_6  and  C_7
REMARK    4  A    between atoms: C_7  and  S_8
REMARK    5  A    between atoms: S_8  and  C_9
REMARK                            x       y       z     vdW  Elec       q    Type
REMARK                         _______ _______ _______ _____ _____    ______ ____
ROOT
ATOM      1  C   UNL     1      45.636   7.426  12.500  0.00  0.00    +0.000 A 
ATOM      2  N   UNL     1      44.684   7.044  11.627  0.00  0.00    +0.000 NA
ATOM      3  C   UNL     1      44.560   5.719  11.412  0.00  0.00    +0.000 A 
ATOM      4  C   UNL     1      45.345   4.756  12.016  0.00  0.00    +0.000 A 
ATOM      5  C   UNL     1      46.287   5.257  12.890  0.00  0.00    +0.000 A 
ATOM      6  N   UNL     1      46.457   6.572  13.152  0.00  0.00    +0.000 NA
ENDROOT
BRANCH   1   7
ATOM      7  C   UNL     1      45.815   8.916  12.752  0.00  0.00    +0.000 C 
BRANCH   7   8
ATOM      8  N   UNL     1      44.558   9.685  12.728  0.00  0.00    +0.000 NA
ATOM      9  H   UNL     1      44.765  10.639  12.444  0.00  0.00    +0.000 HD
ATOM     10  H   UNL     1      44.214   9.729  13.688  0.00  0.00    +0.000 HD
ENDBRANCH   7   8
ENDBRANCH   1   7
BRANCH   4  11
ATOM     11  C   UNL     1      45.182   3.289  11.739  0.00  0.00    +0.000 C 
BRANCH  11  12
ATOM     12  S   UNL     1      44.129   3.008  10.282  0.00  0.00    +0.000 S 
BRANCH  12  13
ATOM     13  C   UNL     1      45.353   2.825   9.011  0.00  0.00    +0.000 A 
ATOM     14  N   UNL     1      45.801   1.573   8.805  0.00  0.00    +0.000 NA
ATOM     15  C   UNL     1      46.639   1.394   7.769  0.00  0.00    +0.000 A 
ATOM     16  C   UNL     1      47.042   2.409   6.940  0.00  0.00    +0.000 A 
ATOM     17  C   UNL     1      46.539   3.651   7.243  0.00  0.00    +0.000 A 
ATOM     18  N   UNL     1      45.698   3.891   8.271  0.00  0.00    +0.000 NA
ENDBRANCH  12  13
ENDBRANCH  11  12
ENDBRANCH   4  11
TORSDOF 5
ENDMDL
MODEL 5
REMARK VINA RESULT:    -5.340      2.353      6.453
REMARK INTER + INTRA:          -7.066
REMARK INTER:                  -6.804
REMARK INTRA:                  -0.262
REMARK UNBOUND:                -0.321
REMARK  Name = 
REMARK  5 active torsions:
REMARK  status: ('A' for Active; 'I' for Inactive)
REMARK    1  A    between atoms: N_1  and  C_2
REMARK    2  A    between atoms: C_2  and  C_3
REMARK    3  A    between atoms: C_6  and  C_7
REMARK    4  A    between atoms: C_7  and  S_8
REMARK    5  A    between atoms: S_8  and  C_9
REMARK                            x       y       z     vdW  Elec       q    Type
REMARK                         _______ _______ _______ _____ _____    ______ ____
ROOT
ATOM      1  C   UNL     1      45.713   8.888  11.836  0.00  0.00    +0.000 A 
ATOM      2  N   UNL     1      46.783   8.128  12.140  0.00  0.00    +0.000 NA
ATOM      3  C   UNL     1      46.631   6.795  12.011  0.00  0.00    +0.000 A 
ATOM      4  C   UNL     1      45.462   6.180  11.606  0.00  0.00    +0.000 A 
ATOM      5  C   UNL     1      44.431   7.051  11.322  0.00  0.00    +0.000 A 
ATOM      6  N   UNL     1      44.522   8.396  11.426  0.00  0.00    +0.000 NA
ENDROOT
BRANCH   1   7
ATOM      7  C   UNL     1      45.844  10.396  11.988  0.00  0.00    +0.000 C 
BRANCH   7   8
ATOM      8  N   UNL     1      44.564  11.122  11.909  0.00  0.00    +0.000 NA
ATOM      9  H   UNL     1      43.982  10.682  11.201  0.00  0.00    +0.000 HD
ATOM     10  H   UNL     1      44.773  12.065  11.578  0.00  0.00    +0.000 HD
ENDBRANCH   7   8
ENDBRANCH   1   7
BRANCH   4  11
ATOM     11  C   UNL     1      45.331   4.689  11.487  0.00  0.00    +0.000 C 
BRANCH  11  12
ATOM     12  S   UNL     1      44.093   4.235  10.233  0.00  0.00    +0.000 S 
BRANCH  12  13
ATOM     13  C   UNL     1      45.123   3.487   8.998  0.00  0.00    +0.000 A 
ATOM     14  N   UNL     1      45.744   4.337   8.159  0.00  0.00    +0.000 NA
ATOM     15  C   UNL     1      46.622   3.800   7.293  0.00  0.00    +0.000 A 
ATOM     16  C   UNL     1      46.898   2.458   7.235  0.00  0.00    +0.000 A 
ATOM     17  C   UNL     1      46.203   1.674   8.124  0.00  0.00    +0.000 A 
ATOM     18  N   UNL     1      45.309   2.158   9.012  0.00  0.00    +0.000 NA
ENDBRANCH  12  13
ENDBRANCH  11  12
ENDBRANCH   4  11
TORSDOF 5
ENDMDL
MODEL 6
REMARK VINA RESULT:    -5.212      2.448      6.589
REMARK INTER + INTRA:          -6.905
REMARK INTER:                  -6.662
REMARK INTRA:                  -0.243
REMARK UNBOUND:                -0.321
REMARK  Name = 
REMARK  5 active torsions:
REMARK  status: ('A' for Active; 'I' for Inactive)
REMARK    1  A    between atoms: N_1  and  C_2
REMARK    2  A    between atoms: C_2  and  C_3
REMARK    3  A    between atoms: C_6  and  C_7
REMARK    4  A    between atoms: C_7  and  S_8
REMARK    5  A    between atoms: S_8  and  C_9
REMARK                            x       y       z     vdW  Elec       q    Type
REMARK                         _______ _______ _______ _____ _____    ______ ____
ROOT
ATOM      1  C   UNL     1      48.277   6.495  14.731  0.00  0.00    +0.000 A 
ATOM      2  N   UNL     1      47.944   5.272  15.186  0.00  0.00    +0.000 NA
ATOM      3  C   UNL     1      46.966   4.627  14.519  0.00  0.00    +0.000 A 
ATOM      4  C   UNL     1      46.295   5.144  13.428  0.00  0.00    +0.000 A 
ATOM      5  C   UNL     1      46.715   6.402  13.047  0.00  0.00    +0.000 A 
ATOM      6  N   UNL     1      47.693   7.097  13.671  0.00  0.00    +0.000 NA
ENDROOT
BRANCH   1   7
ATOM      7  C   UNL     1      49.365   7.259  15.471  0.00  0.00    +0.000 C 
BRANCH   7   8
ATOM      8  N   UNL     1      50.729   6.982  14.988  0.00  0.00    +0.000 NA
ATOM      9  H   UNL     1      50.680   6.698  14.014  0.00  0.00    +0.000 HD
ATOM     10  H   UNL     1      51.078   6.180  15.514  0.00  0.00    +0.000 HD
ENDBRANCH   7   8
ENDBRANCH   1   7
BRANCH   4  11
ATOM     11  C   UNL     1      45.202   4.396  12.720  0.00  0.00    +0.000 C 
BRANCH  11  12
ATOM     12  S   UNL     1      44.554   5.354  11.314  0.00  0.00    +0.000 S 
BRANCH  12  13
ATOM     13  C   UNL     1      44.953   4.277   9.962  0.00  0.00    +0.000 A 
ATOM     14  N   UNL     1      45.603   4.848   8.931  0.00  0.00    +0.000 NA
ATOM     15  C   UNL     1      46.020   4.028   7.950  0.00  0.00    +0.000 A 
ATOM     16  C   UNL     1      45.813   2.672   7.961  0.00  0.00    +0.000 A 
ATOM     17  C   UNL     1      45.129   2.190   9.051  0.00  0.00    +0.000 A 
ATOM     18  N   UNL     1      44.684   2.966  10.063  0.00  0.00    +0.000 NA
ENDBRANCH  12  13
ENDBRANCH  11  12
ENDBRANCH   4  11
TORSDOF 5
ENDMDL
MODEL 7
REMARK VINA RESULT:    -5.058      4.726      8.033
REMARK INTER + INTRA:          -6.710
REMARK INTER:                  -6.466
REMARK INTRA:                  -0.245
REMARK UNBOUND:                -0.321
REMARK  Name = 
REMARK  5 active torsions:
REMARK  status: ('A' for Active; 'I' for Inactive)
REMARK    1  A    between atoms: N_1  and  C_2
REMARK    2  A    between atoms: C_2  and  C_3
REMARK    3  A    between atoms: C_6  and  C_7
REMARK    4  A    between atoms: C_7  and  S_8
REMARK    5  A    between atoms: S_8  and  C_9
REMARK                            x       y       z     vdW  Elec       q    Type
REMARK                         _______ _______ _______ _____ _____    ______ ____
ROOT
ATOM      1  C   UNL     1      50.679   2.341  17.304  0.00  0.00    +0.000 A 
ATOM      2  N   UNL     1      49.827   1.665  16.508  0.00  0.00    +0.000 NA
ATOM      3  C   UNL     1      48.690   2.304  16.164  0.00  0.00    +0.000 A 
ATOM      4  C   UNL     1      48.355   3.577  16.581  0.00  0.00    +0.000 A 
ATOM      5  C   UNL     1      49.297   4.176  17.392  0.00  0.00    +0.000 A 
ATOM      6  N   UNL     1      50.457   3.591  17.768  0.00  0.00    +0.000 NA
ENDROOT
BRANCH   1   7
ATOM      7  C   UNL     1      51.963   1.644  17.727  0.00  0.00    +0.000 C 
BRANCH   7   8
ATOM      8  N   UNL     1      51.789   0.223  18.078  0.00  0.00    +0.000 NA
ATOM      9  H   UNL     1      51.320   0.164  18.978  0.00  0.00    +0.000 HD
ATOM     10  H   UNL     1      52.721  -0.173  18.202  0.00  0.00    +0.000 HD
ENDBRANCH   7   8
ENDBRANCH   1   7
BRANCH   4  11
ATOM     11  C   UNL     1      47.072   4.248  16.183  0.00  0.00    +0.000 C 
BRANCH  11  12
ATOM     12  S   UNL     1      47.339   5.418  14.815  0.00  0.00    +0.000 S 
BRANCH  12  13
ATOM     13  C   UNL     1      46.146   4.836  13.637  0.00  0.00    +0.000 A 
ATOM     14  N   UNL     1      45.345   5.775  13.102  0.00  0.00    +0.000 NA
ATOM     15  C   UNL     1      44.516   5.375  12.121  0.00  0.00    +0.000 A 
ATOM     16  C   UNL     1      44.459   4.085  11.660  0.00  0.00    +0.000 A 
ATOM     17  C   UNL     1      45.309   3.200  12.280  0.00  0.00    +0.000 A 
ATOM     18  N   UNL     1      46.159   3.544  13.271  0.00  0.00    +0.000 NA
ENDBRANCH  12  13
ENDBRANCH  11  12
ENDBRANCH   4  11
TORSDOF 5
ENDMDL
MODEL 8
REMARK VINA RESULT:    -4.884      3.595      5.306
REMARK INTER + INTRA:          -6.490
REMARK INTER:                  -6.199
REMARK INTRA:                  -0.292
REMARK UNBOUND:                -0.321
REMARK  Name = 
REMARK  5 active torsions:
REMARK  status: ('A' for Active; 'I' for Inactive)
REMARK    1  A    between atoms: N_1  and  C_2
REMARK    2  A    between atoms: C_2  and  C_3
REMARK    3  A    between atoms: C_6  and  C_7
REMARK    4  A    between atoms: C_7  and  S_8
REMARK    5  A    between atoms: S_8  and  C_9
REMARK                            x       y       z     vdW  Elec       q    Type
REMARK                         _______ _______ _______ _____ _____    ______ ____
ROOT
ATOM      1  C   UNL     1      44.719   3.979  11.415  0.00  0.00    +0.000 A 
ATOM      2  N   UNL     1      45.073   4.994  10.603  0.00  0.00    +0.000 NA
ATOM      3  C   UNL     1      45.729   6.023  11.176  0.00  0.00    +0.000 A 
ATOM      4  C   UNL     1      46.041   6.096  12.520  0.00  0.00    +0.000 A 
ATOM      5  C   UNL     1      45.632   5.006  13.258  0.00  0.00    +0.000 A 
ATOM      6  N   UNL     1      44.976   3.942  12.742  0.00  0.00    +0.000 NA
ENDROOT
BRANCH   1   7
ATOM      7  C   UNL     1      43.961   2.809  10.805  0.00  0.00    +0.000 C 
BRANCH   7   8
ATOM      8  N   UNL     1      43.030   2.146  11.735  0.00  0.00    +0.000 NA
ATOM      9  H   UNL     1      42.799   1.227  11.366  0.00  0.00    +0.000 HD
ATOM     10  H   UNL     1      42.167   2.691  11.736  0.00  0.00    +0.000 HD
ENDBRANCH   7   8
ENDBRANCH   1   7
BRANCH   4  11
ATOM     11  C   UNL     1      46.763   7.268  13.120  0.00  0.00    +0.000 C 
BRANCH  11  12
ATOM     12  S   UNL     1      48.547   6.934  13.270  0.00  0.00    +0.000 S 
BRANCH  12  13
ATOM     13  C   UNL     1      48.703   6.720  15.024  0.00  0.00    +0.000 A 
ATOM     14  N   UNL     1      48.985   7.832  15.726  0.00  0.00    +0.000 NA
ATOM     15  C   UNL     1      48.990   7.716  17.066  0.00  0.00    +0.000 A 
ATOM     16  C   UNL     1      48.726   6.541  17.723  0.00  0.00    +0.000 A 
ATOM     17  C   UNL     1      48.462   5.461  16.914  0.00  0.00    +0.000 A 
ATOM     18  N   UNL     1      48.447   5.519  15.566  0.00  0.00    +0.000 NA
ENDBRANCH  12  13
ENDBRANCH  11  12
ENDBRANCH   4  11
TORSDOF 5
ENDMDL
MODEL 9
REMARK VINA RESULT:    -4.844      3.878      5.823
REMARK INTER + INTRA:          -6.440
REMARK INTER:                  -6.252
REMARK INTRA:                  -0.188
REMARK UNBOUND:                -0.321
REMARK  Name = 
REMARK  5 active torsions:
REMARK  status: ('A' for Active; 'I' for Inactive)
REMARK    1  A    between atoms: N_1  and  C_2
REMARK    2  A    between atoms: C_2  and  C_3
REMARK    3  A    between atoms: C_6  and  C_7
REMARK    4  A    between atoms: C_7  and  S_8
REMARK    5  A    between atoms: S_8  and  C_9
REMARK                            x       y       z     vdW  Elec       q    Type
REMARK                         _______ _______ _______ _____ _____    ______ ____
ROOT
ATOM      1  C   UNL     1      44.797   4.586  11.579  0.00  0.00    +0.000 A 
ATOM      2  N   UNL     1      45.159   5.854  11.851  0.00  0.00    +0.000 NA
ATOM      3  C   UNL     1      46.051   6.025  12.847  0.00  0.00    +0.000 A 
ATOM      4  C   UNL     1      46.593   4.996  13.592  0.00  0.00    +0.000 A 
ATOM      5  C   UNL     1      46.153   3.740  13.231  0.00  0.00    +0.000 A 
ATOM      6  N   UNL     1      45.265   3.503  12.239  0.00  0.00    +0.000 NA
ENDROOT
BRANCH   1   7
ATOM      7  C   UNL     1      43.777   4.357  10.473  0.00  0.00    +0.000 C 
BRANCH   7   8
ATOM      8  N   UNL     1      44.305   4.574   9.114  0.00  0.00    +0.000 NA
ATOM      9  H   UNL     1      45.320   4.608   9.159  0.00  0.00    +0.000 HD
ATOM     10  H   UNL     1      43.991   5.498   8.813  0.00  0.00    +0.000 HD
ENDBRANCH   7   8
ENDBRANCH   1   7
BRANCH   4  11
ATOM     11  C   UNL     1      47.576   5.232  14.702  0.00  0.00    +0.000 C 
BRANCH  11  12
ATOM     12  S   UNL     1      47.197   4.192  16.148  0.00  0.00    +0.000 S 
BRANCH  12  13
ATOM     13  C   UNL     1      48.826   3.680  16.631  0.00  0.00    +0.000 A 
ATOM     14  N   UNL     1      49.634   4.654  17.088  0.00  0.00    +0.000 NA
ATOM     15  C   UNL     1      50.830   4.271  17.570  0.00  0.00    +0.000 A 
ATOM     16  C   UNL     1      51.243   2.964  17.612  0.00  0.00    +0.000 A 
ATOM     17  C   UNL     1      50.349   2.048  17.110  0.00  0.00    +0.000 A 
ATOM     18  N   UNL     1      49.139   2.375  16.611  0.00  0.00    +0.000 NA
ENDBRANCH  12  13
ENDBRANCH  11  12
ENDBRANCH   4  11
TORSDOF 5
ENDMDL
