MODEL 1
REMARK VINA RESULT:    -8.006      0.000      0.000
REMARK INTER + INTRA:         -10.996
REMARK INTER:                 -10.346
REMARK INTRA:                  -0.650
REMARK UNBOUND:                -0.650
REMARK  Name = 
REMARK  5 active torsions:
REMARK  status: ('A' for Active; 'I' for Inactive)
REMARK    1  A    between atoms: C_2  and  C_4
REMARK    2  A    between atoms: C_8  and  O_9
REMARK    3  A    between atoms: O_9  and  C_10
REMARK    4  A    between atoms: C_10  and  C_11
REMARK    5  A    between atoms: C_15  and  C_16
REMARK                            x       y       z     vdW  Elec       q    Type
REMARK                         _______ _______ _______ _____ _____    ______ ____
ROOT
ATOM      1  C   UNL     1      43.580   6.203  10.875  0.00  0.00    +0.000 C 
ENDROOT
BRANCH   1   2
ATOM      2  C   UNL     1      43.764   4.734  10.595  0.00  0.00    +0.000 A 
ATOM      3  C   UNL     1      43.123   3.783  11.379  0.00  0.00    +0.000 A 
ATOM      4  N   UNL     1      43.289   2.455  11.199  0.00  0.00    +0.000 NA
ATOM      5  C   UNL     1      44.114   2.108  10.181  0.00  0.00    +0.000 A 
ATOM      6  C   UNL     1      44.767   3.033   9.369  0.00  0.00    +0.000 A 
ATOM      7  N   UNL     1      44.591   4.365   9.577  0.00  0.00    +0.000 NA
BRANCH   6   8
ATOM      8  C   UNL     1      45.664   2.664   8.275  0.00  0.00    +0.000 A 
ATOM      9  C   UNL     1      45.996   3.539   7.253  0.00  0.00    +0.000 A 
ATOM     10  N   UNL     1      46.817   3.242   6.217  0.00  0.00    +0.000 NA
ATOM     11  C   UNL     1      47.332   2.006   6.221  0.00  0.00    +0.000 A 
ATOM     12  N   UNL     1      47.103   1.066   7.147  0.00  0.00    +0.000 NA
ATOM     13  C   UNL     1      46.275   1.426   8.153  0.00  0.00    +0.000 A 
ENDBRANCH   6   8
ENDBRANCH   1   2
BRANCH   1  14
ATOM     14  O   UNL     1      43.984   6.497  12.213  0.00  0.00    +0.000 OA
BRANCH  14  19
ATOM     15  C   UNL     1      46.978   5.247  13.858  0.00  0.00    +0.000 A 
ATOM     16  C   UNL     1      48.001   5.947  13.208  0.00  0.00    +0.000 A 
ATOM     17  C   UNL     1      47.681   6.871  12.215  0.00  0.00    +0.000 A 
ATOM     18  C   UNL     1      46.348   7.093  11.860  0.00  0.00    +0.000 A 
ATOM     19  C   UNL     1      45.321   6.384  12.489  0.00  0.00    +0.000 A 
ATOM     20  C   UNL     1      45.643   5.461  13.489  0.00  0.00    +0.000 A 
BRANCH  15  22
ATOM     21  N   UNL     1      47.197   4.664  16.216  0.00  0.00    +0.000 N 
ATOM     22  C   UNL     1      47.273   4.245  14.916  0.00  0.00    +0.000 C 
ATOM     23  O   UNL     1      47.547   3.083  14.645  0.00  0.00    +0.000 OA
ATOM     24  H   UNL     1      47.302   3.947  16.922  0.00  0.00    +0.000 HD
ATOM     25  H   UNL     1      46.737   5.521  16.484  0.00  0.00    +0.000 HD
ENDBRANCH  15  22
ENDBRANCH  14  19
ENDBRANCH   1  14
TORSDOF 5
ENDMDL
MODEL 2
REMARK VINA RESULT:    -7.875      3.026      6.470
REMARK INTER + INTRA:         -10.827
REMARK INTER:                 -10.539
REMARK INTRA:                  -0.288
REMARK UNBOUND:                -0.650
REMARK  Name = 
REMARK  5 active torsions:
REMARK  status: ('A' for Active; 'I' for Inactive)
REMARK    1  A    between atoms: C_2  and  C_4
REMARK    2  A    between atoms: C_8  and  O_9
REMARK    3  A    between atoms: O_9  and  C_10
REMARK    4  A    between atoms: C_10  and  C_11
REMARK    5  A    between atoms: C_15  and  C_16
REMARK                            x       y       z     vdW  Elec       q    Type
REMARK                         _______ _______ _______ _____ _____    ______ ____
ROOT
ATOM      1  C   UNL     1      43.479   3.749  11.165  0.00  0.00    +0.000 C 
ENDROOT
BRANCH   1   2
ATOM      2  C   UNL     1      44.679   4.203  11.957  0.00  0.00    +0.000 A 
ATOM      3  C   UNL     1      45.344   3.317  12.795  0.00  0.00    +0.000 A 
ATOM      4  N   UNL     1      46.396   3.684  13.560  0.00  0.00    +0.000 NA
ATOM      5  C   UNL     1      46.774   4.980  13.439  0.00  0.00    +0.000 A 
ATOM      6  C   UNL     1      46.135   5.895  12.604  0.00  0.00    +0.000 A 
ATOM      7  N   UNL     1      45.073   5.503  11.851  0.00  0.00    +0.000 NA
BRANCH   6   8
ATOM      8  C   UNL     1      46.534   7.296  12.476  0.00  0.00    +0.000 A 
ATOM      9  C   UNL     1      47.838   7.681  12.208  0.00  0.00    +0.000 A 
ATOM     10  N   UNL     1      48.256   8.963  12.086  0.00  0.00    +0.000 NA
ATOM     11  C   UNL     1      47.309   9.899  12.233  0.00  0.00    +0.000 A 
ATOM     12  N   UNL     1      46.015   9.667  12.485  0.00  0.00    +0.000 NA
ATOM     13  C   UNL     1      45.663   8.366  12.596  0.00  0.00    +0.000 A 
ENDBRANCH   6   8
ENDBRANCH   1   2
BRANCH   1  14
ATOM     14  O   UNL     1      43.854   2.695  10.278  0.00  0.00    +0.000 OA
BRANCH  14  19
ATOM     15  C   UNL     1      46.429   2.145   7.768  0.00  0.00    +0.000 A 
ATOM     16  C   UNL     1      46.592   3.418   7.210  0.00  0.00    +0.000 A 
ATOM     17  C   UNL     1      45.841   4.487   7.699  0.00  0.00    +0.000 A 
ATOM     18  C   UNL     1      44.921   4.288   8.733  0.00  0.00    +0.000 A 
ATOM     19  C   UNL     1      44.737   3.016   9.282  0.00  0.00    +0.000 A 
ATOM     20  C   UNL     1      45.495   1.947   8.794  0.00  0.00    +0.000 A 
BRANCH  15  22
ATOM     21  N   UNL     1      46.800  -0.264   7.689  0.00  0.00    +0.000 N 
ATOM     22  C   UNL     1      47.202   0.975   7.272  0.00  0.00    +0.000 C 
ATOM     23  O   UNL     1      48.142   1.105   6.500  0.00  0.00    +0.000 OA
ATOM     24  H   UNL     1      47.272  -1.052   7.264  0.00  0.00    +0.000 HD
ATOM     25  H   UNL     1      45.897  -0.430   8.108  0.00  0.00    +0.000 HD
ENDBRANCH  15  22
ENDBRANCH  14  19
ENDBRANCH   1  14
TORSDOF 5
ENDMDL
MODEL 3
REMARK VINA RESULT:    -7.617      0.945      1.465
REMARK INTER + INTRA:         -10.493
REMARK INTER:                 -10.046
REMARK INTRA:                  -0.447
REMARK UNBOUND:                -0.650
REMARK  Name = 
REMARK  5 active torsions:
REMARK  status: ('A' for Active; 'I' for Inactive)
REMARK    1  A    between atoms: C_2  and  C_4
REMARK    2  A    between atoms: C_8  and  O_9
REMARK    3  A    between atoms: O_9  and  C_10
REMARK    4  A    between atoms: C_10  and  C_11
REMARK    5  A    between atoms: C_15  and  C_16
REMARK                            x       y       z     vdW  Elec       q    Type
REMARK                         _______ _______ _______ _____ _____    ______ ____
ROOT
ATOM      1  C   UNL     1      44.929   6.358  11.185  0.00  0.00    +0.000 C 
ENDROOT
BRANCH   1   2
ATOM      2  C   UNL     1      44.639   4.961  10.700  0.00  0.00    +0.000 A 
ATOM      3  C   UNL     1      43.686   4.179  11.340  0.00  0.00    +0.000 A 
ATOM      4  N   UNL     1      43.421   2.906  10.973  0.00  0.00    +0.000 NA
ATOM      5  C   UNL     1      44.137   2.446   9.919  0.00  0.00    +0.000 A 
ATOM      6  C   UNL     1      45.094   3.204   9.247  0.00  0.00    +0.000 A 
ATOM      7  N   UNL     1      45.350   4.480   9.642  0.00  0.00    +0.000 NA
BRANCH   6   8
ATOM      8  C   UNL     1      45.874   2.711   8.114  0.00  0.00    +0.000 A 
ATOM      9  C   UNL     1      46.393   1.427   8.065  0.00  0.00    +0.000 A 
ATOM     10  N   UNL     1      47.125   0.926   7.041  0.00  0.00    +0.000 NA
ATOM     11  C   UNL     1      47.334   1.762   6.015  0.00  0.00    +0.000 A 
ATOM     12  N   UNL     1      46.886   3.020   5.929  0.00  0.00    +0.000 NA
ATOM     13  C   UNL     1      46.163   3.459   6.984  0.00  0.00    +0.000 A 
ENDBRANCH   6   8
ENDBRANCH   1   2
BRANCH   1  14
ATOM     14  O   UNL     1      46.330   6.622  11.099  0.00  0.00    +0.000 OA
BRANCH  14  19
ATOM     15  C   UNL     1      47.499   5.392  14.318  0.00  0.00    +0.000 A 
ATOM     16  C   UNL     1      48.375   6.402  14.732  0.00  0.00    +0.000 A 
ATOM     17  C   UNL     1      48.562   7.526  13.929  0.00  0.00    +0.000 A 
ATOM     18  C   UNL     1      47.887   7.643  12.711  0.00  0.00    +0.000 A 
ATOM     19  C   UNL     1      47.026   6.631  12.279  0.00  0.00    +0.000 A 
ATOM     20  C   UNL     1      46.836   5.506  13.088  0.00  0.00    +0.000 A 
BRANCH  15  22
ATOM     21  N   UNL     1      46.758   4.344  16.391  0.00  0.00    +0.000 N 
ATOM     22  C   UNL     1      47.276   4.172  15.137  0.00  0.00    +0.000 C 
ATOM     23  O   UNL     1      47.518   3.053  14.705  0.00  0.00    +0.000 OA
ATOM     24  H   UNL     1      46.520   3.499  16.895  0.00  0.00    +0.000 HD
ATOM     25  H   UNL     1      46.316   5.203  16.683  0.00  0.00    +0.000 HD
ENDBRANCH  15  22
ENDBRANCH  14  19
ENDBRANCH   1  14
TORSDOF 5
ENDMDL
MODEL 4
REMARK VINA RESULT:    -7.462      2.889      6.699
REMARK INTER + INTRA:         -10.293
REMARK INTER:                  -9.695
REMARK INTRA:                  -0.598
REMARK UNBOUND:                -0.650
REMARK  Name = 
REMARK  5 active torsions:
REMARK  status: ('A' for Active; 'I' for Inactive)
REMARK    1  A    between atoms: C_2  and  C_4
REMARK    2  A    between atoms: C_8  and  O_9
REMARK    3  A    between atoms: O_9  and  C_10
REMARK    4  A    between atoms: C_10  and  C_11
REMARK    5  A    between atoms: C_15  and  C_16
REMARK                            x       y       z     vdW  Elec       q    Type
REMARK                         _______ _______ _______ _____ _____    ______ ____
ROOT
ATOM      1  C   UNL     1      44.223   5.253  10.754  0.00  0.00    +0.000 C 
ENDROOT
BRANCH   1   2
ATOM      2  C   UNL     1      45.234   5.192  11.870  0.00  0.00    +0.000 A 
ATOM      3  C   UNL     1      45.054   4.317  12.934  0.00  0.00    +0.000 A 
ATOM      4  N   UNL     1      45.906   4.255  13.980  0.00  0.00    +0.000 NA
ATOM      5  C   UNL     1      46.967   5.096  13.914  0.00  0.00    +0.000 A 
ATOM      6  C   UNL     1      47.183   5.981  12.859  0.00  0.00    +0.000 A 
ATOM      7  N   UNL     1      46.305   6.032  11.822  0.00  0.00    +0.000 NA
BRANCH   6   8
ATOM      8  C   UNL     1      48.321   6.896  12.786  0.00  0.00    +0.000 A 
ATOM      9  C   UNL     1      49.155   7.141  13.866  0.00  0.00    +0.000 A 
ATOM     10  N   UNL     1      50.217   7.982  13.848  0.00  0.00    +0.000 NA
ATOM     11  C   UNL     1      50.450   8.597  12.681  0.00  0.00    +0.000 A 
ATOM     12  N   UNL     1      49.732   8.447  11.561  0.00  0.00    +0.000 NA
ATOM     13  C   UNL     1      48.686   7.594  11.646  0.00  0.00    +0.000 A 
ENDBRANCH   6   8
ENDBRANCH   1   2
BRANCH   1  14
ATOM     14  O   UNL     1      44.883   5.135   9.493  0.00  0.00    +0.000 OA
BRANCH  14  19
ATOM     15  C   UNL     1      46.484   2.525   7.528  0.00  0.00    +0.000 A 
ATOM     16  C   UNL     1      45.894   1.358   8.027  0.00  0.00    +0.000 A 
ATOM     17  C   UNL     1      44.924   1.448   9.025  0.00  0.00    +0.000 A 
ATOM     18  C   UNL     1      44.550   2.694   9.535  0.00  0.00    +0.000 A 
ATOM     19  C   UNL     1      45.149   3.863   9.058  0.00  0.00    +0.000 A 
ATOM     20  C   UNL     1      46.117   3.771   8.053  0.00  0.00    +0.000 A 
BRANCH  15  22
ATOM     21  N   UNL     1      47.328   3.242   5.355  0.00  0.00    +0.000 N 
ATOM     22  C   UNL     1      47.529   2.476   6.471  0.00  0.00    +0.000 C 
ATOM     23  O   UNL     1      48.543   1.802   6.598  0.00  0.00    +0.000 OA
ATOM     24  H   UNL     1      48.093   3.274   4.694  0.00  0.00    +0.000 HD
ATOM     25  H   UNL     1      46.650   3.989   5.324  0.00  0.00    +0.000 HD
ENDBRANCH  15  22
ENDBRANCH  14  19
ENDBRANCH   1  14
TORSDOF 5
ENDMDL
MODEL 5
REMARK VINA RESULT:    -7.205      2.237      3.329
REMARK INTER + INTRA:          -9.962
REMARK INTER:                  -9.318
REMARK INTRA:                  -0.644
REMARK UNBOUND:                -0.650
REMARK  Name = 
REMARK  5 active torsions:
REMARK  status: ('A' for Active; 'I' for Inactive)
REMARK    1  A    between atoms: C_2  and  C_4
REMARK    2  A    between atoms: C_8  and  O_9
REMARK    3  A    between atoms: O_9  and  C_10
REMARK    4  A    between atoms: C_10  and  C_11
REMARK    5  A    between atoms: C_15  and  C_16
REMARK                            x       y       z     vdW  Elec       q    Type
REMARK                         _______ _______ _______ _____ _____    ______ ____
ROOT
ATOM      1  C   UNL     1      45.073   5.554  12.974  0.00  0.00    +0.000 C 
ENDROOT
BRANCH   1   2
ATOM      2  C   UNL     1      44.601   4.439  12.077  0.00  0.00    +0.000 A 
ATOM      3  C   UNL     1      43.555   3.614  12.472  0.00  0.00    +0.000 A 
ATOM      4  N   UNL     1      43.124   2.573  11.726  0.00  0.00    +0.000 NA
ATOM      5  C   UNL     1      43.771   2.398  10.548  0.00  0.00    +0.000 A 
ATOM      6  C   UNL     1      44.817   3.211  10.116  0.00  0.00    +0.000 A 
ATOM      7  N   UNL     1      45.240   4.247  10.889  0.00  0.00    +0.000 NA
BRANCH   6   8
ATOM      8  C   UNL     1      45.524   3.022   8.849  0.00  0.00    +0.000 A 
ATOM      9  C   UNL     1      45.779   4.065   7.973  0.00  0.00    +0.000 A 
ATOM     10  N   UNL     1      46.424   3.939   6.788  0.00  0.00    +0.000 NA
ATOM     11  C   UNL     1      46.836   2.702   6.481  0.00  0.00    +0.000 A 
ATOM     12  N   UNL     1      46.664   1.611   7.236  0.00  0.00    +0.000 NA
ATOM     13  C   UNL     1      46.013   1.804   8.406  0.00  0.00    +0.000 A 
ENDBRANCH   6   8
ENDBRANCH   1   2
BRANCH   1  14
ATOM     14  O   UNL     1      46.500   5.608  12.973  0.00  0.00    +0.000 OA
BRANCH  14  19
ATOM     15  C   UNL     1      46.629   9.139  12.105  0.00  0.00    +0.000 A 
ATOM     16  C   UNL     1      47.999   9.360  11.919  0.00  0.00    +0.000 A 
ATOM     17  C   UNL     1      48.894   8.301  12.065  0.00  0.00    +0.000 A 
ATOM     18  C   UNL     1      48.431   7.028  12.406  0.00  0.00    +0.000 A 
ATOM     19  C   UNL     1      47.068   6.802  12.615  0.00  0.00    +0.000 A 
ATOM     20  C   UNL     1      46.171   7.864  12.462  0.00  0.00    +0.000 A 
BRANCH  15  22
ATOM     21  N   UNL     1      44.401  10.041  12.515  0.00  0.00    +0.000 N 
ATOM     22  C   UNL     1      45.640  10.240  11.969  0.00  0.00    +0.000 C 
ATOM     23  O   UNL     1      45.922  11.296  11.417  0.00  0.00    +0.000 OA
ATOM     24  H   UNL     1      43.775  10.836  12.501  0.00  0.00    +0.000 HD
ATOM     25  H   UNL     1      44.214   9.309  13.184  0.00  0.00    +0.000 HD
ENDBRANCH  15  22
ENDBRANCH  14  19
ENDBRANCH   1  14
TORSDOF 5
ENDMDL
MODEL 6
REMARK VINA RESULT:    -7.104      2.024      2.632
REMARK INTER + INTRA:          -9.830
REMARK INTER:                  -9.167
REMARK INTRA:                  -0.663
REMARK UNBOUND:                -0.650
REMARK  Name = 
REMARK  5 active torsions:
REMARK  status: ('A' for Active; 'I' for Inactive)
REMARK    1  A    between atoms: C_2  and  C_4
REMARK    2  A    between atoms: C_8  and  O_9
REMARK    3  A    between atoms: O_9  and  C_10
REMARK    4  A    between atoms: C_10  and  C_11
REMARK    5  A    between atoms: C_15  and  C_16
REMARK                            x       y       z     vdW  Elec       q    Type
REMARK                         _______ _______ _______ _____ _____    ______ ____
ROOT
ATOM      1  C   UNL     1      45.105   5.220  13.218  0.00  0.00    +0.000 C 
ENDROOT
BRANCH   1   2
ATOM      2  C   UNL     1      44.609   4.196  12.230  0.00  0.00    +0.000 A 
ATOM      3  C   UNL     1      43.533   3.376  12.548  0.00  0.00    +0.000 A 
ATOM      4  N   UNL     1      43.079   2.413  11.717  0.00  0.00    +0.000 NA
ATOM      5  C   UNL     1      43.733   2.312  10.535  0.00  0.00    +0.000 A 
ATOM      6  C   UNL     1      44.810   3.122  10.178  0.00  0.00    +0.000 A 
ATOM      7  N   UNL     1      45.256   4.079  11.037  0.00  0.00    +0.000 NA
BRANCH   6   8
ATOM      8  C   UNL     1      45.525   3.013   8.907  0.00  0.00    +0.000 A 
ATOM      9  C   UNL     1      46.022   1.811   8.430  0.00  0.00    +0.000 A 
ATOM     10  N   UNL     1      46.693   1.661   7.263  0.00  0.00    +0.000 NA
ATOM     11  C   UNL     1      46.862   2.778   6.543  0.00  0.00    +0.000 A 
ATOM     12  N   UNL     1      46.428   3.999   6.881  0.00  0.00    +0.000 NA
ATOM     13  C   UNL     1      45.766   4.080   8.057  0.00  0.00    +0.000 A 
ENDBRANCH   6   8
ENDBRANCH   1   2
BRANCH   1  14
ATOM     14  O   UNL     1      44.666   6.523  12.830  0.00  0.00    +0.000 OA
BRANCH  14  19
ATOM     15  C   UNL     1      48.033   7.894  12.700  0.00  0.00    +0.000 A 
ATOM     16  C   UNL     1      47.811   9.215  12.294  0.00  0.00    +0.000 A 
ATOM     17  C   UNL     1      46.508   9.662  12.080  0.00  0.00    +0.000 A 
ATOM     18  C   UNL     1      45.427   8.795  12.260  0.00  0.00    +0.000 A 
ATOM     19  C   UNL     1      45.640   7.468  12.645  0.00  0.00    +0.000 A 
ATOM     20  C   UNL     1      46.947   7.024  12.864  0.00  0.00    +0.000 A 
BRANCH  15  22
ATOM     21  N   UNL     1      50.258   7.357  11.859  0.00  0.00    +0.000 N 
ATOM     22  C   UNL     1      49.406   7.373  12.929  0.00  0.00    +0.000 C 
ATOM     23  O   UNL     1      49.776   6.995  14.033  0.00  0.00    +0.000 OA
ATOM     24  H   UNL     1      51.215   7.094  12.056  0.00  0.00    +0.000 HD
ATOM     25  H   UNL     1      50.081   7.883  11.016  0.00  0.00    +0.000 HD
ENDBRANCH  15  22
ENDBRANCH  14  19
ENDBRANCH   1  14
TORSDOF 5
ENDMDL
MODEL 7
REMARK VINA RESULT:    -7.090      2.408      7.218
REMARK INTER + INTRA:          -9.813
REMARK INTER:                  -9.198
REMARK INTRA:                  -0.615
REMARK UNBOUND:                -0.650
REMARK  Name = 
REMARK  5 active torsions:
REMARK  status: ('A' for Active; 'I' for Inactive)
REMARK    1  A    between atoms: C_2  and  C_4
REMARK    2  A    between atoms: C_8  and  O_9
REMARK    3  A    between atoms: O_9  and  C_10
REMARK    4  A    between atoms: C_10  and  C_11
REMARK    5  A    between atoms: C_15  and  C_16
REMARK                            x       y       z     vdW  Elec       q    Type
REMARK                         _______ _______ _______ _____ _____    ______ ____
ROOT
ATOM      1  C   UNL     1      44.530   5.314  11.372  0.00  0.00    +0.000 C 
ENDROOT
BRANCH   1   2
ATOM      2  C   UNL     1      45.790   5.757  12.071  0.00  0.00    +0.000 A 
ATOM      3  C   UNL     1      46.651   6.661  11.462  0.00  0.00    +0.000 A 
ATOM      4  N   UNL     1      47.814   7.055  12.026  0.00  0.00    +0.000 NA
ATOM      5  C   UNL     1      48.076   6.523  13.244  0.00  0.00    +0.000 A 
ATOM      6  C   UNL     1      47.232   5.621  13.889  0.00  0.00    +0.000 A 
ATOM      7  N   UNL     1      46.072   5.231  13.296  0.00  0.00    +0.000 NA
BRANCH   6   8
ATOM      8  C   UNL     1      47.514   5.037  15.200  0.00  0.00    +0.000 A 
ATOM      9  C   UNL     1      48.363   5.634  16.117  0.00  0.00    +0.000 A 
ATOM     10  N   UNL     1      48.658   5.131  17.339  0.00  0.00    +0.000 NA
ATOM     11  C   UNL     1      48.060   3.973  17.650  0.00  0.00    +0.000 A 
ATOM     12  N   UNL     1      47.215   3.295  16.864  0.00  0.00    +0.000 NA
ATOM     13  C   UNL     1      46.962   3.851  15.658  0.00  0.00    +0.000 A 
ENDBRANCH   6   8
ENDBRANCH   1   2
BRANCH   1  14
ATOM     14  O   UNL     1      44.755   5.244   9.964  0.00  0.00    +0.000 OA
BRANCH  14  19
ATOM     15  C   UNL     1      46.270   2.719   7.826  0.00  0.00    +0.000 A 
ATOM     16  C   UNL     1      45.627   1.545   8.234  0.00  0.00    +0.000 A 
ATOM     17  C   UNL     1      44.650   1.603   9.228  0.00  0.00    +0.000 A 
ATOM     18  C   UNL     1      44.322   2.823   9.824  0.00  0.00    +0.000 A 
ATOM     19  C   UNL     1      44.974   3.998   9.439  0.00  0.00    +0.000 A 
ATOM     20  C   UNL     1      45.949   3.938   8.438  0.00  0.00    +0.000 A 
BRANCH  15  22
ATOM     21  N   UNL     1      47.156   3.540   5.708  0.00  0.00    +0.000 N 
ATOM     22  C   UNL     1      47.324   2.703   6.777  0.00  0.00    +0.000 C 
ATOM     23  O   UNL     1      48.317   1.995   6.872  0.00  0.00    +0.000 OA
ATOM     24  H   UNL     1      47.929   3.590   5.056  0.00  0.00    +0.000 HD
ATOM     25  H   UNL     1      46.500   4.307   5.715  0.00  0.00    +0.000 HD
ENDBRANCH  15  22
ENDBRANCH  14  19
ENDBRANCH   1  14
TORSDOF 5
ENDMDL
MODEL 8
REMARK VINA RESULT:    -6.981      1.891      2.618
REMARK INTER + INTRA:          -9.671
REMARK INTER:                  -9.062
REMARK INTRA:                  -0.609
REMARK UNBOUND:                -0.650
REMARK  Name = 
REMARK  5 active torsions:
REMARK  status: ('A' for Active; 'I' for Inactive)
REMARK    1  A    between atoms: C_2  and  C_4
REMARK    2  A    between atoms: C_8  and  O_9
REMARK    3  A    between atoms: O_9  and  C_10
REMARK    4  A    between atoms: C_10  and  C_11
REMARK    5  A    between atoms: C_15  and  C_16
REMARK                            x       y       z     vdW  Elec       q    Type
REMARK                         _______ _______ _______ _____ _____    ______ ____
ROOT
ATOM      1  C   UNL     1      44.157   6.220  11.005  0.00  0.00    +0.000 C 
ENDROOT
BRANCH   1   2
ATOM      2  C   UNL     1      44.166   4.767  10.603  0.00  0.00    +0.000 A 
ATOM      3  C   UNL     1      43.396   3.842  11.297  0.00  0.00    +0.000 A 
ATOM      4  N   UNL     1      43.402   2.523  11.006  0.00  0.00    +0.000 NA
ATOM      5  C   UNL     1      44.200   2.162   9.971  0.00  0.00    +0.000 A 
ATOM      6  C   UNL     1      44.978   3.063   9.247  0.00  0.00    +0.000 A 
ATOM      7  N   UNL     1      44.963   4.386   9.566  0.00  0.00    +0.000 NA
BRANCH   6   8
ATOM      8  C   UNL     1      45.846   2.679   8.135  0.00  0.00    +0.000 A 
ATOM      9  C   UNL     1      46.413   1.419   8.029  0.00  0.00    +0.000 A 
ATOM     10  N   UNL     1      47.225   1.018   7.022  0.00  0.00    +0.000 NA
ATOM     11  C   UNL     1      47.468   1.933   6.074  0.00  0.00    +0.000 A 
ATOM     12  N   UNL     1      46.980   3.180   6.048  0.00  0.00    +0.000 NA
ATOM     13  C   UNL     1      46.177   3.517   7.082  0.00  0.00    +0.000 A 
ENDBRANCH   6   8
ENDBRANCH   1   2
BRANCH   1  14
ATOM     14  O   UNL     1      44.290   6.332  12.423  0.00  0.00    +0.000 OA
BRANCH  14  19
ATOM     15  C   UNL     1      47.575   7.704  13.173  0.00  0.00    +0.000 A 
ATOM     16  C   UNL     1      48.189   6.663  13.878  0.00  0.00    +0.000 A 
ATOM     17  C   UNL     1      47.499   5.470  14.088  0.00  0.00    +0.000 A 
ATOM     18  C   UNL     1      46.196   5.316  13.607  0.00  0.00    +0.000 A 
ATOM     19  C   UNL     1      45.566   6.357  12.920  0.00  0.00    +0.000 A 
ATOM     20  C   UNL     1      46.263   7.551  12.706  0.00  0.00    +0.000 A 
BRANCH  15  22
ATOM     21  N   UNL     1      47.801  10.094  13.604  0.00  0.00    +0.000 N 
ATOM     22  C   UNL     1      48.270   8.997  12.934  0.00  0.00    +0.000 C 
ATOM     23  O   UNL     1      49.239   9.080  12.192  0.00  0.00    +0.000 OA
ATOM     24  H   UNL     1      48.346  10.941  13.508  0.00  0.00    +0.000 HD
ATOM     25  H   UNL     1      47.185  10.022  14.400  0.00  0.00    +0.000 HD
ENDBRANCH  15  22
ENDBRANCH  14  19
ENDBRANCH   1  14
TORSDOF 5
ENDMDL
MODEL 9
REMARK VINA RESULT:    -6.760      2.974      7.235
REMARK INTER + INTRA:          -9.386
REMARK INTER:                  -8.938
REMARK INTRA:                  -0.448
REMARK UNBOUND:                -0.650
REMARK  Name = 
REMARK  5 active torsions:
REMARK  status: ('A' for Active; 'I' for Inactive)
REMARK    1  A    between atoms: C_2  and  C_4
REMARK    2  A    between atoms: C_8  and  O_9
REMARK    3  A    between atoms: O_9  and  C_10
REMARK    4  A    between atoms: C_10  and  C_11
REMARK    5  A    between atoms: C_15  and  C_16
REMARK                            x       y       z     vdW  Elec       q    Type
REMARK                         _______ _______ _______ _____ _____    ______ ____
ROOT
ATOM      1  C   UNL     1      44.646   5.463  10.967  0.00  0.00    +0.000 C 
ENDROOT
BRANCH   1   2
ATOM      2  C   UNL     1      45.180   6.732  11.581  0.00  0.00    +0.000 A 
ATOM      3  C   UNL     1      44.520   7.939  11.386  0.00  0.00    +0.000 A 
ATOM      4  N   UNL     1      44.980   9.110  11.876  0.00  0.00    +0.000 NA
ATOM      5  C   UNL     1      46.127   9.027  12.593  0.00  0.00    +0.000 A 
ATOM      6  C   UNL     1      46.812   7.834  12.816  0.00  0.00    +0.000 A 
ATOM      7  N   UNL     1      46.333   6.668  12.304  0.00  0.00    +0.000 NA
BRANCH   6   8
ATOM      8  C   UNL     1      48.053   7.739  13.582  0.00  0.00    +0.000 A 
ATOM      9  C   UNL     1      49.027   8.724  13.553  0.00  0.00    +0.000 A 
ATOM     10  N   UNL     1      50.193   8.680  14.241  0.00  0.00    +0.000 NA
ATOM     11  C   UNL     1      50.379   7.591  14.998  0.00  0.00    +0.000 A 
ATOM     12  N   UNL     1      49.520   6.571  15.125  0.00  0.00    +0.000 NA
ATOM     13  C   UNL     1      48.376   6.677  14.412  0.00  0.00    +0.000 A 
ENDBRANCH   6   8
ENDBRANCH   1   2
BRANCH   1  14
ATOM     14  O   UNL     1      45.176   5.299   9.651  0.00  0.00    +0.000 OA
BRANCH  14  19
ATOM     15  C   UNL     1      46.420   2.568   7.595  0.00  0.00    +0.000 A 
ATOM     16  C   UNL     1      45.737   1.460   8.110  0.00  0.00    +0.000 A 
ATOM     17  C   UNL     1      44.826   1.633   9.151  0.00  0.00    +0.000 A 
ATOM     18  C   UNL     1      44.601   2.904   9.687  0.00  0.00    +0.000 A 
ATOM     19  C   UNL     1      45.294   4.013   9.194  0.00  0.00    +0.000 A 
ATOM     20  C   UNL     1      46.203   3.838   8.146  0.00  0.00    +0.000 A 
BRANCH  15  22
ATOM     21  N   UNL     1      47.274   3.269   5.421  0.00  0.00    +0.000 N 
ATOM     22  C   UNL     1      47.408   2.428   6.493  0.00  0.00    +0.000 C 
ATOM     23  O   UNL     1      48.321   1.616   6.545  0.00  0.00    +0.000 OA
ATOM     24  H   UNL     1      48.012   3.228   4.729  0.00  0.00    +0.000 HD
ATOM     25  H   UNL     1      46.707   4.103   5.452  0.00  0.00    +0.000 HD
ENDBRANCH  15  22
ENDBRANCH  14  19
ENDBRANCH   1  14
TORSDOF 5
ENDMDL
