MODEL 1
REMARK VINA RESULT:    -6.881      0.000      0.000
REMARK INTER + INTRA:          -9.017
REMARK INTER:                  -8.491
REMARK INTRA:                  -0.526
REMARK UNBOUND:                -0.526
REMARK  Name = 
REMARK  6 active torsions:
REMARK  status: ('A' for Active; 'I' for Inactive)
REMARK    1  A    between atoms: C_1  and  N_2
REMARK    2  A    between atoms: C_6  and  C_7
REMARK    3  A    between atoms: C_8  and  C_9
REMARK    4  A    between atoms: C_9  and  C_10
REMARK    5  A    between atoms: C_10  and  N_11
REMARK    6  A    between atoms: C_17  and  C_18
REMARK                            x       y       z     vdW  Elec       q    Type
REMARK                         _______ _______ _______ _____ _____    ______ ____
ROOT
ATOM      1  C   UNL     1      43.930   3.157  10.698  0.00  0.00    +0.000 C 
ENDROOT
BRANCH   1   2
ATOM      2  N   UNL     1      44.456   4.248   9.847  0.00  0.00    +0.000 N 
ATOM      3  C   UNL     1      45.340   3.755   8.859  0.00  0.00    +0.000 A 
ATOM      4  C   UNL     1      45.975   4.645   7.995  0.00  0.00    +0.000 A 
ATOM      5  C   UNL     1      46.846   4.154   7.014  0.00  0.00    +0.000 A 
ATOM      6  C   UNL     1      47.063   2.783   6.914  0.00  0.00    +0.000 A 
ATOM      7 CL   UNL     1      48.150   2.188   5.719  0.00  0.00    +0.000 Cl
ATOM      8  C   UNL     1      46.385   1.960   7.798  0.00  0.00    +0.000 A 
ATOM      9  N   UNL     1      45.536   2.427   8.748  0.00  0.00    +0.000 NA
ATOM     10  H   UNL     1      44.942   4.955  10.392  0.00  0.00    +0.000 HD
BRANCH   8  11
ATOM     11  C   UNL     1      46.540   0.530   7.791  0.00  0.00    +0.000 C 
ATOM     12  N   UNL     1      46.666  -0.624   7.771  0.00  0.00    +0.000 NA
ENDBRANCH   8  11
ENDBRANCH   1   2
BRANCH   1  13
ATOM     13  C   UNL     1      44.127   3.408  12.200  0.00  0.00    +0.000 C 
BRANCH  13  21
ATOM     14  C   UNL     1      43.237   8.260  11.133  0.00  0.00    +0.000 C 
ATOM     15  N   UNL     1      44.511   8.260  11.826  0.00  0.00    +0.000 N 
ATOM     16  C   UNL     1      45.017   7.010  12.220  0.00  0.00    +0.000 A 
ATOM     17  C   UNL     1      46.241   6.973  12.883  0.00  0.00    +0.000 A 
ATOM     18  N   UNL     1      46.818   5.844  13.350  0.00  0.00    +0.000 NA
ATOM     19  C   UNL     1      46.129   4.696  13.143  0.00  0.00    +0.000 A 
ATOM     20  C   UNL     1      46.766   3.469  13.718  0.00  0.00    +0.000 C 
ATOM     21  C   UNL     1      44.907   4.690  12.456  0.00  0.00    +0.000 A 
ATOM     22  N   UNL     1      44.337   5.860  12.023  0.00  0.00    +0.000 NA
ATOM     23  H   UNL     1      45.225   8.765  11.308  0.00  0.00    +0.000 HD
ENDBRANCH  13  21
ENDBRANCH   1  13
TORSDOF 4
ENDMDL
MODEL 2
REMARK VINA RESULT:    -6.257      2.289      4.455
REMARK INTER + INTRA:          -8.247
REMARK INTER:                  -7.404
REMARK INTRA:                  -0.843
REMARK UNBOUND:                -0.526
REMARK  Name = 
REMARK  6 active torsions:
REMARK  status: ('A' for Active; 'I' for Inactive)
REMARK    1  A    between atoms: C_1  and  N_2
REMARK    2  A    between atoms: C_6  and  C_7
REMARK    3  A    between atoms: C_8  and  C_9
REMARK    4  A    between atoms: C_9  and  C_10
REMARK    5  A    between atoms: C_10  and  N_11
REMARK    6  A    between atoms: C_17  and  C_18
REMARK                            x       y       z     vdW  Elec       q    Type
REMARK                         _______ _______ _______ _____ _____    ______ ____
ROOT
ATOM      1  C   UNL     1      44.502   7.806  11.350  0.00  0.00    +0.000 C 
ENDROOT
BRANCH   1   2
ATOM      2  N   UNL     1      43.844   6.682  12.055  0.00  0.00    +0.000 N 
ATOM      3  C   UNL     1      44.018   5.462  11.361  0.00  0.00    +0.000 A 
ATOM      4  C   UNL     1      43.424   4.299  11.849  0.00  0.00    +0.000 A 
ATOM      5  C   UNL     1      43.602   3.091  11.162  0.00  0.00    +0.000 A 
ATOM      6  C   UNL     1      44.373   3.068  10.003  0.00  0.00    +0.000 A 
ATOM      7 CL   UNL     1      44.572   1.584   9.154  0.00  0.00    +0.000 Cl
ATOM      8  C   UNL     1      44.944   4.260   9.589  0.00  0.00    +0.000 A 
ATOM      9  N   UNL     1      44.780   5.434  10.250  0.00  0.00    +0.000 NA
ATOM     10  H   UNL     1      42.848   6.842  12.182  0.00  0.00    +0.000 HD
BRANCH   8  11
ATOM     11  C   UNL     1      45.751   4.355   8.403  0.00  0.00    +0.000 C 
ATOM     12  N   UNL     1      46.416   4.437   7.454  0.00  0.00    +0.000 NA
ENDBRANCH   8  11
ENDBRANCH   1   2
BRANCH   1  13
ATOM     13  C   UNL     1      45.248   8.762  12.293  0.00  0.00    +0.000 C 
BRANCH  13  21
ATOM     14  C   UNL     1      46.580   4.434  14.522  0.00  0.00    +0.000 C 
ATOM     15  N   UNL     1      47.828   5.144  14.316  0.00  0.00    +0.000 N 
ATOM     16  C   UNL     1      47.741   6.416  13.725  0.00  0.00    +0.000 A 
ATOM     17  C   UNL     1      48.919   7.128  13.517  0.00  0.00    +0.000 A 
ATOM     18  N   UNL     1      48.979   8.341  12.923  0.00  0.00    +0.000 NA
ATOM     19  C   UNL     1      47.796   8.861  12.515  0.00  0.00    +0.000 A 
ATOM     20  C   UNL     1      47.900  10.179  11.812  0.00  0.00    +0.000 C 
ATOM     21  C   UNL     1      46.587   8.185  12.730  0.00  0.00    +0.000 A 
ATOM     22  N   UNL     1      46.568   6.942  13.310  0.00  0.00    +0.000 NA
ATOM     23  H   UNL     1      48.375   5.205  15.170  0.00  0.00    +0.000 HD
ENDBRANCH  13  21
ENDBRANCH   1  13
TORSDOF 4
ENDMDL
MODEL 3
REMARK VINA RESULT:    -6.085      4.477      6.756
REMARK INTER + INTRA:          -8.034
REMARK INTER:                  -7.393
REMARK INTRA:                  -0.640
REMARK UNBOUND:                -0.526
REMARK  Name = 
REMARK  6 active torsions:
REMARK  status: ('A' for Active; 'I' for Inactive)
REMARK    1  A    between atoms: C_1  and  N_2
REMARK    2  A    between atoms: C_6  and  C_7
REMARK    3  A    between atoms: C_8  and  C_9
REMARK    4  A    between atoms: C_9  and  C_10
REMARK    5  A    between atoms: C_10  and  N_11
REMARK    6  A    between atoms: C_17  and  C_18
REMARK                            x       y       z     vdW  Elec       q    Type
REMARK                         _______ _______ _______ _____ _____    ______ ____
ROOT
ATOM      1  C   UNL     1      47.029   4.024  16.306  0.00  0.00    +0.000 C 
ENDROOT
BRANCH   1   2
ATOM      2  N   UNL     1      47.533   5.127  15.456  0.00  0.00    +0.000 N 
ATOM      3  C   UNL     1      46.892   5.145  14.195  0.00  0.00    +0.000 A 
ATOM      4  C   UNL     1      47.274   6.085  13.240  0.00  0.00    +0.000 A 
ATOM      5  C   UNL     1      46.634   6.104  11.994  0.00  0.00    +0.000 A 
ATOM      6  C   UNL     1      45.624   5.184  11.728  0.00  0.00    +0.000 A 
ATOM      7 CL   UNL     1      44.855   5.201  10.187  0.00  0.00    +0.000 Cl
ATOM      8  C   UNL     1      45.289   4.291  12.731  0.00  0.00    +0.000 A 
ATOM      9  N   UNL     1      45.900   4.269  13.943  0.00  0.00    +0.000 NA
ATOM     10  H   UNL     1      48.537   5.065  15.307  0.00  0.00    +0.000 HD
BRANCH   8  11
ATOM     11  C   UNL     1      44.267   3.293  12.565  0.00  0.00    +0.000 C 
ATOM     12  N   UNL     1      43.430   2.499  12.430  0.00  0.00    +0.000 NA
ENDBRANCH   8  11
ENDBRANCH   1   2
BRANCH   1  13
ATOM     13  C   UNL     1      48.124   3.034  16.730  0.00  0.00    +0.000 C 
BRANCH  13  21
ATOM     14  C   UNL     1      48.457   7.459  19.135  0.00  0.00    +0.000 C 
ATOM     15  N   UNL     1      49.768   6.857  19.283  0.00  0.00    +0.000 N 
ATOM     16  C   UNL     1      49.962   5.607  18.672  0.00  0.00    +0.000 A 
ATOM     17  C   UNL     1      51.211   5.003  18.789  0.00  0.00    +0.000 A 
ATOM     18  N   UNL     1      51.517   3.787  18.284  0.00  0.00    +0.000 NA
ATOM     19  C   UNL     1      50.517   3.145  17.633  0.00  0.00    +0.000 A 
ATOM     20  C   UNL     1      50.869   1.778  17.133  0.00  0.00    +0.000 C 
ATOM     21  C   UNL     1      49.254   3.733  17.472  0.00  0.00    +0.000 A 
ATOM     22  N   UNL     1      48.971   4.957  18.024  0.00  0.00    +0.000 NA
ATOM     23  H   UNL     1      50.510   7.491  18.999  0.00  0.00    +0.000 HD
ENDBRANCH  13  21
ENDBRANCH   1  13
TORSDOF 4
ENDMDL
MODEL 4
REMARK VINA RESULT:    -6.042      3.633      7.106
REMARK INTER + INTRA:          -7.982
REMARK INTER:                  -7.895
REMARK INTRA:                  -0.086
REMARK UNBOUND:                -0.526
REMARK  Name = 
REMARK  6 active torsions:
REMARK  status: ('A' for Active; 'I' for Inactive)
REMARK    1  A    between atoms: C_1  and  N_2
REMARK    2  A    between atoms: C_6  and  C_7
REMARK    3  A    between atoms: C_8  and  C_9
REMARK    4  A    between atoms: C_9  and  C_10
REMARK    5  A    between atoms: C_10  and  N_11
REMARK    6  A    between atoms: C_17  and  C_18
REMARK                            x       y       z     vdW  Elec       q    Type
REMARK                         _______ _______ _______ _____ _____    ______ ____
ROOT
ATOM      1  C   UNL     1      46.032   5.509  12.429  0.00  0.00    +0.000 C 
ENDROOT
BRANCH   1   2
ATOM      2  N   UNL     1      47.191   6.411  12.618  0.00  0.00    +0.000 N 
ATOM      3  C   UNL     1      47.778   6.239  13.894  0.00  0.00    +0.000 A 
ATOM      4  C   UNL     1      48.853   7.041  14.272  0.00  0.00    +0.000 A 
ATOM      5  C   UNL     1      49.437   6.865  15.533  0.00  0.00    +0.000 A 
ATOM      6  C   UNL     1      48.937   5.890  16.391  0.00  0.00    +0.000 A 
ATOM      7 CL   UNL     1      49.646   5.692  17.947  0.00  0.00    +0.000 Cl
ATOM      8  C   UNL     1      47.877   5.121  15.939  0.00  0.00    +0.000 A 
ATOM      9  N   UNL     1      47.308   5.281  14.717  0.00  0.00    +0.000 NA
ATOM     10  H   UNL     1      46.934   7.389  12.511  0.00  0.00    +0.000 HD
BRANCH   8  11
ATOM     11  C   UNL     1      47.275   4.091  16.742  0.00  0.00    +0.000 C 
ATOM     12  N   UNL     1      46.775   3.265  17.388  0.00  0.00    +0.000 NA
ENDBRANCH   8  11
ENDBRANCH   1   2
BRANCH   1  13
ATOM     13  C   UNL     1      45.292   5.740  11.103  0.00  0.00    +0.000 C 
BRANCH  13  21
ATOM     14  C   UNL     1      46.958   3.641   6.826  0.00  0.00    +0.000 C 
ATOM     15  N   UNL     1      46.022   2.677   7.372  0.00  0.00    +0.000 N 
ATOM     16  C   UNL     1      45.379   3.029   8.570  0.00  0.00    +0.000 A 
ATOM     17  C   UNL     1      44.470   2.129   9.120  0.00  0.00    +0.000 A 
ATOM     18  N   UNL     1      43.815   2.327  10.285  0.00  0.00    +0.000 NA
ATOM     19  C   UNL     1      44.092   3.485  10.932  0.00  0.00    +0.000 A 
ATOM     20  C   UNL     1      43.394   3.651  12.247  0.00  0.00    +0.000 C 
ATOM     21  C   UNL     1      44.982   4.427  10.398  0.00  0.00    +0.000 A 
ATOM     22  N   UNL     1      45.650   4.179   9.226  0.00  0.00    +0.000 NA
ATOM     23  H   UNL     1      45.327   2.393   6.686  0.00  0.00    +0.000 HD
ENDBRANCH  13  21
ENDBRANCH   1  13
TORSDOF 4
ENDMDL
MODEL 5
REMARK VINA RESULT:    -5.950      4.644      7.490
REMARK INTER + INTRA:          -7.867
REMARK INTER:                  -7.440
REMARK INTRA:                  -0.428
REMARK UNBOUND:                -0.526
REMARK  Name = 
REMARK  6 active torsions:
REMARK  status: ('A' for Active; 'I' for Inactive)
REMARK    1  A    between atoms: C_1  and  N_2
REMARK    2  A    between atoms: C_6  and  C_7
REMARK    3  A    between atoms: C_8  and  C_9
REMARK    4  A    between atoms: C_9  and  C_10
REMARK    5  A    between atoms: C_10  and  N_11
REMARK    6  A    between atoms: C_17  and  C_18
REMARK                            x       y       z     vdW  Elec       q    Type
REMARK                         _______ _______ _______ _____ _____    ______ ____
ROOT
ATOM      1  C   UNL     1      46.921   4.274  13.867  0.00  0.00    +0.000 C 
ENDROOT
BRANCH   1   2
ATOM      2  N   UNL     1      46.645   3.922  15.278  0.00  0.00    +0.000 N 
ATOM      3  C   UNL     1      47.545   4.566  16.159  0.00  0.00    +0.000 A 
ATOM      4  C   UNL     1      47.471   4.315  17.528  0.00  0.00    +0.000 A 
ATOM      5  C   UNL     1      48.360   4.958  18.398  0.00  0.00    +0.000 A 
ATOM      6  C   UNL     1      49.304   5.842  17.884  0.00  0.00    +0.000 A 
ATOM      7 CL   UNL     1      50.407   6.614  18.957  0.00  0.00    +0.000 Cl
ATOM      8  C   UNL     1      49.307   6.053  16.515  0.00  0.00    +0.000 A 
ATOM      9  N   UNL     1      48.447   5.438  15.665  0.00  0.00    +0.000 NA
ATOM     10  H   UNL     1      46.699   2.919  15.439  0.00  0.00    +0.000 HD
BRANCH   8  11
ATOM     11  C   UNL     1      50.242   6.938  15.874  0.00  0.00    +0.000 C 
ATOM     12  N   UNL     1      51.009   7.644  15.362  0.00  0.00    +0.000 NA
ENDBRANCH   8  11
ENDBRANCH   1   2
BRANCH   1  13
ATOM     13  C   UNL     1      46.018   3.534  12.868  0.00  0.00    +0.000 C 
BRANCH  13  21
ATOM     14  C   UNL     1      45.709   8.529  12.217  0.00  0.00    +0.000 C 
ATOM     15  N   UNL     1      44.450   8.012  11.716  0.00  0.00    +0.000 N 
ATOM     16  C   UNL     1      44.258   6.623  11.805  0.00  0.00    +0.000 A 
ATOM     17  C   UNL     1      43.058   6.092  11.339  0.00  0.00    +0.000 A 
ATOM     18  N   UNL     1      42.763   4.773  11.329  0.00  0.00    +0.000 NA
ATOM     19  C   UNL     1      43.724   3.947  11.808  0.00  0.00    +0.000 A 
ATOM     20  C   UNL     1      43.392   2.489  11.735  0.00  0.00    +0.000 C 
ATOM     21  C   UNL     1      44.934   4.446  12.311  0.00  0.00    +0.000 A 
ATOM     22  N   UNL     1      45.210   5.789  12.277  0.00  0.00    +0.000 NA
ATOM     23  H   UNL     1      43.653   8.490  12.127  0.00  0.00    +0.000 HD
ENDBRANCH  13  21
ENDBRANCH   1  13
TORSDOF 4
ENDMDL
MODEL 6
REMARK VINA RESULT:    -5.921      4.539      7.062
REMARK INTER + INTRA:          -7.832
REMARK INTER:                  -7.366
REMARK INTRA:                  -0.465
REMARK UNBOUND:                -0.526
REMARK  Name = 
REMARK  6 active torsions:
REMARK  status: ('A' for Active; 'I' for Inactive)
REMARK    1  A    between atoms: C_1  and  N_2
REMARK    2  A    between atoms: C_6  and  C_7
REMARK    3  A    between atoms: C_8  and  C_9
REMARK    4  A    between atoms: C_9  and  C_10
REMARK    5  A    between atoms: C_10  and  N_11
REMARK    6  A    between atoms: C_17  and  C_18
REMARK                            x       y       z     vdW  Elec       q    Type
REMARK                         _______ _______ _______ _____ _____    ______ ____
ROOT
ATOM      1  C   UNL     1      47.141   4.030  15.994  0.00  0.00    +0.000 C 
ENDROOT
BRANCH   1   2
ATOM      2  N   UNL     1      47.504   5.167  15.116  0.00  0.00    +0.000 N 
ATOM      3  C   UNL     1      46.767   5.146  13.909  0.00  0.00    +0.000 A 
ATOM      4  C   UNL     1      47.011   6.111  12.935  0.00  0.00    +0.000 A 
ATOM      5  C   UNL     1      46.276   6.091  11.742  0.00  0.00    +0.000 A 
ATOM      6  C   UNL     1      45.309   5.109  11.548  0.00  0.00    +0.000 A 
ATOM      7 CL   UNL     1      44.423   5.079  10.072  0.00  0.00    +0.000 Cl
ATOM      8  C   UNL     1      45.113   4.193  12.568  0.00  0.00    +0.000 A 
ATOM      9  N   UNL     1      45.817   4.207  13.728  0.00  0.00    +0.000 NA
ATOM     10  H   UNL     1      48.495   5.171  14.889  0.00  0.00    +0.000 HD
BRANCH   8  11
ATOM     11  C   UNL     1      44.148   3.131  12.474  0.00  0.00    +0.000 C 
ATOM     12  N   UNL     1      43.360   2.282  12.388  0.00  0.00    +0.000 NA
ENDBRANCH   8  11
ENDBRANCH   1   2
BRANCH   1  13
ATOM     13  C   UNL     1      47.239   4.363  17.490  0.00  0.00    +0.000 C 
BRANCH  13  21
ATOM     14  C   UNL     1      51.365   1.457  17.423  0.00  0.00    +0.000 C 
ATOM     15  N   UNL     1      51.811   2.723  17.974  0.00  0.00    +0.000 N 
ATOM     16  C   UNL     1      50.837   3.723  18.130  0.00  0.00    +0.000 A 
ATOM     17  C   UNL     1      51.230   4.948  18.661  0.00  0.00    +0.000 A 
ATOM     18  N   UNL     1      50.403   6.005  18.827  0.00  0.00    +0.000 NA
ATOM     19  C   UNL     1      49.119   5.821  18.435  0.00  0.00    +0.000 A 
ATOM     20  C   UNL     1      48.240   7.025  18.578  0.00  0.00    +0.000 C 
ATOM     21  C   UNL     1      48.680   4.592  17.920  0.00  0.00    +0.000 A 
ATOM     22  N   UNL     1      49.555   3.552  17.740  0.00  0.00    +0.000 NA
ATOM     23  H   UNL     1      52.313   2.600  18.849  0.00  0.00    +0.000 HD
ENDBRANCH  13  21
ENDBRANCH   1  13
TORSDOF 4
ENDMDL
MODEL 7
REMARK VINA RESULT:    -5.778      4.881      7.904
REMARK INTER + INTRA:          -7.655
REMARK INTER:                  -7.215
REMARK INTRA:                  -0.440
REMARK UNBOUND:                -0.526
REMARK  Name = 
REMARK  6 active torsions:
REMARK  status: ('A' for Active; 'I' for Inactive)
REMARK    1  A    between atoms: C_1  and  N_2
REMARK    2  A    between atoms: C_6  and  C_7
REMARK    3  A    between atoms: C_8  and  C_9
REMARK    4  A    between atoms: C_9  and  C_10
REMARK    5  A    between atoms: C_10  and  N_11
REMARK    6  A    between atoms: C_17  and  C_18
REMARK                            x       y       z     vdW  Elec       q    Type
REMARK                         _______ _______ _______ _____ _____    ______ ____
ROOT
ATOM      1  C   UNL     1      47.167   4.385  15.178  0.00  0.00    +0.000 C 
ENDROOT
BRANCH   1   2
ATOM      2  N   UNL     1      47.554   5.497  16.076  0.00  0.00    +0.000 N 
ATOM      3  C   UNL     1      48.642   5.138  16.906  0.00  0.00    +0.000 A 
ATOM      4  C   UNL     1      49.113   6.043  17.856  0.00  0.00    +0.000 A 
ATOM      5  C   UNL     1      50.194   5.687  18.673  0.00  0.00    +0.000 A 
ATOM      6  C   UNL     1      50.784   4.436  18.524  0.00  0.00    +0.000 A 
ATOM      7 CL   UNL     1      52.099   3.998  19.546  0.00  0.00    +0.000 Cl
ATOM      8  C   UNL     1      50.270   3.597  17.549  0.00  0.00    +0.000 A 
ATOM      9  N   UNL     1      49.227   3.935  16.750  0.00  0.00    +0.000 NA
ATOM     10  H   UNL     1      46.782   5.796  16.666  0.00  0.00    +0.000 HD
BRANCH   8  11
ATOM     11  C   UNL     1      50.796   2.279  17.313  0.00  0.00    +0.000 C 
ATOM     12  N   UNL     1      51.216   1.216  17.106  0.00  0.00    +0.000 NA
ENDBRANCH   8  11
ENDBRANCH   1   2
BRANCH   1  13
ATOM     13  C   UNL     1      47.416   4.689  13.693  0.00  0.00    +0.000 C 
BRANCH  13  21
ATOM     14  C   UNL     1      43.272   2.496  11.823  0.00  0.00    +0.000 C 
ATOM     15  N   UNL     1      43.070   3.916  11.606  0.00  0.00    +0.000 N 
ATOM     16  C   UNL     1      44.106   4.772  12.017  0.00  0.00    +0.000 A 
ATOM     17  C   UNL     1      43.948   6.141  11.819  0.00  0.00    +0.000 A 
ATOM     18  N   UNL     1      44.848   7.073  12.203  0.00  0.00    +0.000 NA
ATOM     19  C   UNL     1      45.959   6.605  12.822  0.00  0.00    +0.000 A 
ATOM     20  C   UNL     1      46.912   7.664  13.285  0.00  0.00    +0.000 C 
ATOM     21  C   UNL     1      46.166   5.232  13.015  0.00  0.00    +0.000 A 
ATOM     22  N   UNL     1      45.216   4.317  12.637  0.00  0.00    +0.000 NA
ATOM     23  H   UNL     1      42.825   4.121  10.641  0.00  0.00    +0.000 HD
ENDBRANCH  13  21
ENDBRANCH   1  13
TORSDOF 4
ENDMDL
MODEL 8
REMARK VINA RESULT:    -5.690      4.765      7.645
REMARK INTER + INTRA:          -7.547
REMARK INTER:                  -6.892
REMARK INTRA:                  -0.655
REMARK UNBOUND:                -0.526
REMARK  Name = 
REMARK  6 active torsions:
REMARK  status: ('A' for Active; 'I' for Inactive)
REMARK    1  A    between atoms: C_1  and  N_2
REMARK    2  A    between atoms: C_6  and  C_7
REMARK    3  A    between atoms: C_8  and  C_9
REMARK    4  A    between atoms: C_9  and  C_10
REMARK    5  A    between atoms: C_10  and  N_11
REMARK    6  A    between atoms: C_17  and  C_18
REMARK                            x       y       z     vdW  Elec       q    Type
REMARK                         _______ _______ _______ _____ _____    ______ ____
ROOT
ATOM      1  C   UNL     1      46.953   3.999  15.284  0.00  0.00    +0.000 C 
ENDROOT
BRANCH   1   2
ATOM      2  N   UNL     1      47.421   5.234  15.954  0.00  0.00    +0.000 N 
ATOM      3  C   UNL     1      48.583   4.997  16.726  0.00  0.00    +0.000 A 
ATOM      4  C   UNL     1      49.139   6.035  17.471  0.00  0.00    +0.000 A 
ATOM      5  C   UNL     1      50.293   5.799  18.230  0.00  0.00    +0.000 A 
ATOM      6  C   UNL     1      50.870   4.532  18.227  0.00  0.00    +0.000 A 
ATOM      7 CL   UNL     1      52.276   4.245  19.177  0.00  0.00    +0.000 Cl
ATOM      8  C   UNL     1      50.268   3.556  17.450  0.00  0.00    +0.000 A 
ATOM      9  N   UNL     1      49.153   3.777  16.708  0.00  0.00    +0.000 NA
ATOM     10  H   UNL     1      46.707   5.632  16.560  0.00  0.00    +0.000 HD
BRANCH   8  11
ATOM     11  C   UNL     1      50.772   2.211  17.377  0.00  0.00    +0.000 C 
ATOM     12  N   UNL     1      51.164   1.119  17.321  0.00  0.00    +0.000 NA
ENDBRANCH   8  11
ENDBRANCH   1   2
BRANCH   1  13
ATOM     13  C   UNL     1      47.109   4.040  13.757  0.00  0.00    +0.000 C 
BRANCH  13  21
ATOM     14  C   UNL     1      47.352   9.071  13.446  0.00  0.00    +0.000 C 
ATOM     15  N   UNL     1      46.134   8.715  12.744  0.00  0.00    +0.000 N 
ATOM     16  C   UNL     1      45.805   7.350  12.702  0.00  0.00    +0.000 A 
ATOM     17  C   UNL     1      44.639   6.973  12.041  0.00  0.00    +0.000 A 
ATOM     18  N   UNL     1      44.229   5.694  11.893  0.00  0.00    +0.000 NA
ATOM     19  C   UNL     1      45.034   4.746  12.434  0.00  0.00    +0.000 A 
ATOM     20  C   UNL     1      44.583   3.336  12.207  0.00  0.00    +0.000 C 
ATOM     21  C   UNL     1      46.202   5.089  13.129  0.00  0.00    +0.000 A 
ATOM     22  N   UNL     1      46.601   6.397  13.234  0.00  0.00    +0.000 NA
ATOM     23  H   UNL     1      45.335   9.245  13.079  0.00  0.00    +0.000 HD
ENDBRANCH  13  21
ENDBRANCH   1  13
TORSDOF 4
ENDMDL
MODEL 9
REMARK VINA RESULT:    -5.649      3.538      6.860
REMARK INTER + INTRA:          -7.497
REMARK INTER:                  -7.015
REMARK INTRA:                  -0.482
REMARK UNBOUND:                -0.526
REMARK  Name = 
REMARK  6 active torsions:
REMARK  status: ('A' for Active; 'I' for Inactive)
REMARK    1  A    between atoms: C_1  and  N_2
REMARK    2  A    between atoms: C_6  and  C_7
REMARK    3  A    between atoms: C_8  and  C_9
REMARK    4  A    between atoms: C_9  and  C_10
REMARK    5  A    between atoms: C_10  and  N_11
REMARK    6  A    between atoms: C_17  and  C_18
REMARK                            x       y       z     vdW  Elec       q    Type
REMARK                         _______ _______ _______ _____ _____    ______ ____
ROOT
ATOM      1  C   UNL     1      46.017   6.577  12.258  0.00  0.00    +0.000 C 
ENDROOT
BRANCH   1   2
ATOM      2  N   UNL     1      47.178   7.020  11.453  0.00  0.00    +0.000 N 
ATOM      3  C   UNL     1      48.292   7.320  12.271  0.00  0.00    +0.000 A 
ATOM      4  C   UNL     1      49.464   7.803  11.692  0.00  0.00    +0.000 A 
ATOM      5  C   UNL     1      50.567   8.095  12.504  0.00  0.00    +0.000 A 
ATOM      6  C   UNL     1      50.479   7.897  13.879  0.00  0.00    +0.000 A 
ATOM      7 CL   UNL     1      51.832   8.276  14.873  0.00  0.00    +0.000 Cl
ATOM      8  C   UNL     1      49.287   7.400  14.380  0.00  0.00    +0.000 A 
ATOM      9  N   UNL     1      48.215   7.110  13.600  0.00  0.00    +0.000 NA
ATOM     10  H   UNL     1      46.961   7.838  10.890  0.00  0.00    +0.000 HD
BRANCH   8  11
ATOM     11  C   UNL     1      49.081   7.163  15.783  0.00  0.00    +0.000 C 
ATOM     12  N   UNL     1      48.929   6.969  16.918  0.00  0.00    +0.000 NA
ENDBRANCH   8  11
ENDBRANCH   1   2
BRANCH   1  13
ATOM     13  C   UNL     1      44.718   6.471  11.445  0.00  0.00    +0.000 C 
BRANCH  13  21
ATOM     14  C   UNL     1      46.439   3.853   7.489  0.00  0.00    +0.000 C 
ATOM     15  N   UNL     1      45.575   2.928   8.197  0.00  0.00    +0.000 N 
ATOM     16  C   UNL     1      44.932   3.419   9.346  0.00  0.00    +0.000 A 
ATOM     17  C   UNL     1      44.090   2.560  10.048  0.00  0.00    +0.000 A 
ATOM     18  N   UNL     1      43.445   2.892  11.187  0.00  0.00    +0.000 NA
ATOM     19  C   UNL     1      43.659   4.149  11.646  0.00  0.00    +0.000 A 
ATOM     20  C   UNL     1      42.975   4.470  12.939  0.00  0.00    +0.000 C 
ATOM     21  C   UNL     1      44.479   5.051  10.953  0.00  0.00    +0.000 A 
ATOM     22  N   UNL     1      45.141   4.668   9.815  0.00  0.00    +0.000 NA
ATOM     23  H   UNL     1      44.888   2.504   7.580  0.00  0.00    +0.000 HD
ENDBRANCH  13  21
ENDBRANCH   1  13
TORSDOF 4
ENDMDL
