MODEL 1
REMARK VINA RESULT:    -7.707      0.000      0.000
REMARK INTER + INTRA:          -9.581
REMARK INTER:                  -9.284
REMARK INTRA:                  -0.297
REMARK UNBOUND:                -0.297
REMARK  Name = 
REMARK  4 active torsions:
REMARK  status: ('A' for Active; 'I' for Inactive)
REMARK    1  A    between atoms: N_1  and  C_2
REMARK    2  A    between atoms: C_2  and  C_3
REMARK    3  A    between atoms: C_6  and  C_7
REMARK    4  A    between atoms: C_7  and  N_8
REMARK                            x       y       z     vdW  Elec       q    Type
REMARK                         _______ _______ _______ _____ _____    ______ ____
ROOT
ATOM      1  C   UNL     1      43.838   4.710   9.668  0.00  0.00    +0.000 C 
ENDROOT
BRANCH   1   2
ATOM      2  N   UNL     1      44.308   4.557  11.039  0.00  0.00    +0.000 N 
ATOM      3  C   UNL     1      43.758   3.676  11.936  0.00  0.00    +0.000 A 
ATOM      4  C   UNL     1      44.539   3.675  13.066  0.00  0.00    +0.000 A 
ATOM      5  C   UNL     1      45.580   4.623  12.874  0.00  0.00    +0.000 A 
ATOM      6  C   UNL     1      46.670   5.039  13.666  0.00  0.00    +0.000 A 
ATOM      7  C   UNL     1      47.525   6.038  13.192  0.00  0.00    +0.000 A 
ATOM      8  C   UNL     1      47.282   6.630  11.961  0.00  0.00    +0.000 A 
ATOM      9  F   UNL     1      48.101   7.601  11.532  0.00  0.00    +0.000 F 
ATOM     10  C   UNL     1      46.217   6.237  11.148  0.00  0.00    +0.000 A 
ATOM     11  C   UNL     1      45.383   5.208  11.616  0.00  0.00    +0.000 A 
ENDBRANCH   1   2
BRANCH   1  15
ATOM     12  C   UNL     1      46.895   2.151   7.790  0.00  0.00    +0.000 C 
ATOM     13  C   UNL     1      45.650   1.483   8.391  0.00  0.00    +0.000 C 
ATOM     14  C   UNL     1      44.905   2.415   9.343  0.00  0.00    +0.000 C 
ATOM     15  C   UNL     1      44.508   3.738   8.669  0.00  0.00    +0.000 C 
ATOM     16  C   UNL     1      45.734   4.405   8.021  0.00  0.00    +0.000 C 
ATOM     17  C   UNL     1      46.497   3.460   7.089  0.00  0.00    +0.000 C 
BRANCH  12  18
ATOM     18  C   UNL     1      47.599   1.163   6.841  0.00  0.00    +0.000 C 
BRANCH  18  19
ATOM     19  N   UNL     1      48.378   1.842   5.810  0.00  0.00    +0.000 NA
ATOM     20  H   UNL     1      47.788   2.525   5.337  0.00  0.00    +0.000 HD
ATOM     21  H   UNL     1      48.660   1.168   5.098  0.00  0.00    +0.000 HD
ENDBRANCH  18  19
ENDBRANCH  12  18
ENDBRANCH   1  15
TORSDOF 4
ENDMDL
MODEL 2
REMARK VINA RESULT:    -7.494      1.550      2.145
REMARK INTER + INTRA:          -9.324
REMARK INTER:                  -8.817
REMARK INTRA:                  -0.507
REMARK UNBOUND:                -0.297
REMARK  Name = 
REMARK  4 active torsions:
REMARK  status: ('A' for Active; 'I' for Inactive)
REMARK    1  A    between atoms: N_1  and  C_2
REMARK    2  A    between atoms: C_2  and  C_3
REMARK    3  A    between atoms: C_6  and  C_7
REMARK    4  A    between atoms: C_7  and  N_8
REMARK                            x       y       z     vdW  Elec       q    Type
REMARK                         _______ _______ _______ _____ _____    ______ ____
ROOT
ATOM      1  C   UNL     1      44.683   3.340  10.557  0.00  0.00    +0.000 C 
ENDROOT
BRANCH   1   2
ATOM      2  N   UNL     1      45.202   4.071  11.706  0.00  0.00    +0.000 N 
ATOM      3  C   UNL     1      45.830   3.470  12.768  0.00  0.00    +0.000 A 
ATOM      4  C   UNL     1      46.330   4.457  13.581  0.00  0.00    +0.000 A 
ATOM      5  C   UNL     1      45.958   5.709  13.023  0.00  0.00    +0.000 A 
ATOM      6  C   UNL     1      46.196   7.047  13.400  0.00  0.00    +0.000 A 
ATOM      7  C   UNL     1      45.657   8.085  12.634  0.00  0.00    +0.000 A 
ATOM      8  C   UNL     1      44.874   7.794  11.526  0.00  0.00    +0.000 A 
ATOM      9  F   UNL     1      44.350   8.802  10.815  0.00  0.00    +0.000 F 
ATOM     10  C   UNL     1      44.626   6.481  11.120  0.00  0.00    +0.000 A 
ATOM     11  C   UNL     1      45.199   5.444  11.875  0.00  0.00    +0.000 A 
ENDBRANCH   1   2
BRANCH   1  15
ATOM     12  C   UNL     1      46.346   2.657   6.534  0.00  0.00    +0.000 C 
ATOM     13  C   UNL     1      46.565   4.025   7.194  0.00  0.00    +0.000 C 
ATOM     14  C   UNL     1      45.613   4.255   8.365  0.00  0.00    +0.000 C 
ATOM     15  C   UNL     1      45.717   3.147   9.424  0.00  0.00    +0.000 C 
ATOM     16  C   UNL     1      45.542   1.761   8.778  0.00  0.00    +0.000 C 
ATOM     17  C   UNL     1      46.478   1.543   7.586  0.00  0.00    +0.000 C 
BRANCH  12  18
ATOM     18  C   UNL     1      47.333   2.486   5.366  0.00  0.00    +0.000 C 
BRANCH  18  19
ATOM     19  N   UNL     1      48.559   1.804   5.768  0.00  0.00    +0.000 NA
ATOM     20  H   UNL     1      49.195   2.476   6.194  0.00  0.00    +0.000 HD
ATOM     21  H   UNL     1      49.036   1.444   4.941  0.00  0.00    +0.000 HD
ENDBRANCH  18  19
ENDBRANCH  12  18
ENDBRANCH   1  15
TORSDOF 4
ENDMDL
MODEL 3
REMARK VINA RESULT:    -7.362      1.588      2.211
REMARK INTER + INTRA:          -9.165
REMARK INTER:                  -8.828
REMARK INTRA:                  -0.337
REMARK UNBOUND:                -0.297
REMARK  Name = 
REMARK  4 active torsions:
REMARK  status: ('A' for Active; 'I' for Inactive)
REMARK    1  A    between atoms: N_1  and  C_2
REMARK    2  A    between atoms: C_2  and  C_3
REMARK    3  A    between atoms: C_6  and  C_7
REMARK    4  A    between atoms: C_7  and  N_8
REMARK                            x       y       z     vdW  Elec       q    Type
REMARK                         _______ _______ _______ _____ _____    ______ ____
ROOT
ATOM      1  C   UNL     1      43.673   4.717  10.578  0.00  0.00    +0.000 C 
ENDROOT
BRANCH   1   2
ATOM      2  N   UNL     1      44.652   5.612  11.181  0.00  0.00    +0.000 N 
ATOM      3  C   UNL     1      44.738   6.950  10.891  0.00  0.00    +0.000 A 
ATOM      4  C   UNL     1      45.650   7.515  11.750  0.00  0.00    +0.000 A 
ATOM      5  C   UNL     1      46.176   6.478  12.566  0.00  0.00    +0.000 A 
ATOM      6  C   UNL     1      47.117   6.456  13.617  0.00  0.00    +0.000 A 
ATOM      7  C   UNL     1      47.449   5.237  14.217  0.00  0.00    +0.000 A 
ATOM      8  C   UNL     1      46.873   4.060  13.761  0.00  0.00    +0.000 A 
ATOM      9  F   UNL     1      47.220   2.900  14.337  0.00  0.00    +0.000 F 
ATOM     10  C   UNL     1      45.933   4.049  12.729  0.00  0.00    +0.000 A 
ATOM     11  C   UNL     1      45.578   5.280  12.153  0.00  0.00    +0.000 A 
ENDBRANCH   1   2
BRANCH   1  15
ATOM     12  C   UNL     1      46.456   2.326   8.138  0.00  0.00    +0.000 C 
ATOM     13  C   UNL     1      45.188   1.650   8.676  0.00  0.00    +0.000 C 
ATOM     14  C   UNL     1      44.550   2.448   9.809  0.00  0.00    +0.000 C 
ATOM     15  C   UNL     1      44.231   3.893   9.394  0.00  0.00    +0.000 C 
ATOM     16  C   UNL     1      45.479   4.578   8.812  0.00  0.00    +0.000 C 
ATOM     17  C   UNL     1      46.133   3.762   7.694  0.00  0.00    +0.000 C 
BRANCH  12  18
ATOM     18  C   UNL     1      47.049   1.475   7.000  0.00  0.00    +0.000 C 
BRANCH  18  19
ATOM     19  N   UNL     1      48.377   1.929   6.599  0.00  0.00    +0.000 NA
ATOM     20  H   UNL     1      49.078   1.481   7.187  0.00  0.00    +0.000 HD
ATOM     21  H   UNL     1      48.460   2.932   6.770  0.00  0.00    +0.000 HD
ENDBRANCH  18  19
ENDBRANCH  12  18
ENDBRANCH   1  15
TORSDOF 4
ENDMDL
MODEL 4
REMARK VINA RESULT:    -6.831      2.547      5.907
REMARK INTER + INTRA:          -8.526
REMARK INTER:                  -8.200
REMARK INTRA:                  -0.325
REMARK UNBOUND:                -0.297
REMARK  Name = 
REMARK  4 active torsions:
REMARK  status: ('A' for Active; 'I' for Inactive)
REMARK    1  A    between atoms: N_1  and  C_2
REMARK    2  A    between atoms: C_2  and  C_3
REMARK    3  A    between atoms: C_6  and  C_7
REMARK    4  A    between atoms: C_7  and  N_8
REMARK                            x       y       z     vdW  Elec       q    Type
REMARK                         _______ _______ _______ _____ _____    ______ ____
ROOT
ATOM      1  C   UNL     1      44.210   6.388  11.522  0.00  0.00    +0.000 C 
ENDROOT
BRANCH   1   2
ATOM      2  N   UNL     1      44.147   4.961  11.236  0.00  0.00    +0.000 N 
ATOM      3  C   UNL     1      43.450   4.062  12.005  0.00  0.00    +0.000 A 
ATOM      4  C   UNL     1      43.469   2.848  11.363  0.00  0.00    +0.000 A 
ATOM      5  C   UNL     1      44.242   2.994  10.181  0.00  0.00    +0.000 A 
ATOM      6  C   UNL     1      44.592   2.112   9.137  0.00  0.00    +0.000 A 
ATOM      7  C   UNL     1      45.411   2.566   8.098  0.00  0.00    +0.000 A 
ATOM      8  C   UNL     1      45.892   3.867   8.113  0.00  0.00    +0.000 A 
ATOM      9  F   UNL     1      46.692   4.276   7.118  0.00  0.00    +0.000 F 
ATOM     10  C   UNL     1      45.558   4.767   9.126  0.00  0.00    +0.000 A 
ATOM     11  C   UNL     1      44.708   4.315  10.149  0.00  0.00    +0.000 A 
ENDBRANCH   1   2
BRANCH   1  15
ATOM     12  C   UNL     1      47.996   7.636  13.401  0.00  0.00    +0.000 C 
ATOM     13  C   UNL     1      46.782   8.570  13.508  0.00  0.00    +0.000 C 
ATOM     14  C   UNL     1      45.698   8.219  12.493  0.00  0.00    +0.000 C 
ATOM     15  C   UNL     1      45.239   6.758  12.616  0.00  0.00    +0.000 C 
ATOM     16  C   UNL     1      46.445   5.804  12.554  0.00  0.00    +0.000 C 
ATOM     17  C   UNL     1      47.543   6.175  13.553  0.00  0.00    +0.000 C 
BRANCH  12  18
ATOM     18  C   UNL     1      49.049   8.041  14.449  0.00  0.00    +0.000 C 
BRANCH  18  19
ATOM     19  N   UNL     1      50.175   7.113  14.493  0.00  0.00    +0.000 NA
ATOM     20  H   UNL     1      51.018   7.619  14.758  0.00  0.00    +0.000 HD
ATOM     21  H   UNL     1      50.347   6.742  13.558  0.00  0.00    +0.000 HD
ENDBRANCH  18  19
ENDBRANCH  12  18
ENDBRANCH   1  15
TORSDOF 4
ENDMDL
MODEL 5
REMARK VINA RESULT:    -6.030      4.162      7.648
REMARK INTER + INTRA:          -7.561
REMARK INTER:                  -7.099
REMARK INTRA:                  -0.462
REMARK UNBOUND:                -0.297
REMARK  Name = 
REMARK  4 active torsions:
REMARK  status: ('A' for Active; 'I' for Inactive)
REMARK    1  A    between atoms: N_1  and  C_2
REMARK    2  A    between atoms: C_2  and  C_3
REMARK    3  A    between atoms: C_6  and  C_7
REMARK    4  A    between atoms: C_7  and  N_8
REMARK                            x       y       z     vdW  Elec       q    Type
REMARK                         _______ _______ _______ _____ _____    ______ ____
ROOT
ATOM      1  C   UNL     1      47.477   5.151  13.829  0.00  0.00    +0.000 C 
ENDROOT
BRANCH   1   2
ATOM      2  N   UNL     1      46.337   5.837  13.237  0.00  0.00    +0.000 N 
ATOM      3  C   UNL     1      46.276   7.197  13.062  0.00  0.00    +0.000 A 
ATOM      4  C   UNL     1      45.145   7.483  12.336  0.00  0.00    +0.000 A 
ATOM      5  C   UNL     1      44.463   6.260  12.096  0.00  0.00    +0.000 A 
ATOM      6  C   UNL     1      43.278   5.931  11.406  0.00  0.00    +0.000 A 
ATOM      7  C   UNL     1      42.848   4.601  11.371  0.00  0.00    +0.000 A 
ATOM      8  C   UNL     1      43.573   3.621  12.034  0.00  0.00    +0.000 A 
ATOM      9  F   UNL     1      43.133   2.355  12.005  0.00  0.00    +0.000 F 
ATOM     10  C   UNL     1      44.754   3.912  12.719  0.00  0.00    +0.000 A 
ATOM     11  C   UNL     1      45.199   5.244  12.721  0.00  0.00    +0.000 A 
ENDBRANCH   1   2
BRANCH   1  15
ATOM     12  C   UNL     1      48.741   4.403  17.984  0.00  0.00    +0.000 C 
ATOM     13  C   UNL     1      48.603   5.857  17.511  0.00  0.00    +0.000 C 
ATOM     14  C   UNL     1      48.566   5.962  15.989  0.00  0.00    +0.000 C 
ATOM     15  C   UNL     1      47.445   5.109  15.375  0.00  0.00    +0.000 C 
ATOM     16  C   UNL     1      47.538   3.655  15.868  0.00  0.00    +0.000 C 
ATOM     17  C   UNL     1      47.604   3.552  17.394  0.00  0.00    +0.000 C 
BRANCH  12  18
ATOM     18  C   UNL     1      48.771   4.364  19.522  0.00  0.00    +0.000 C 
BRANCH  18  19
ATOM     19  N   UNL     1      48.321   3.082  20.055  0.00  0.00    +0.000 NA
ATOM     20  H   UNL     1      48.832   2.874  20.912  0.00  0.00    +0.000 HD
ATOM     21  H   UNL     1      48.556   2.338  19.397  0.00  0.00    +0.000 HD
ENDBRANCH  18  19
ENDBRANCH  12  18
ENDBRANCH   1  15
TORSDOF 4
ENDMDL
MODEL 6
REMARK VINA RESULT:    -5.698      2.525      4.243
REMARK INTER + INTRA:          -7.161
REMARK INTER:                  -6.807
REMARK INTRA:                  -0.353
REMARK UNBOUND:                -0.297
REMARK  Name = 
REMARK  4 active torsions:
REMARK  status: ('A' for Active; 'I' for Inactive)
REMARK    1  A    between atoms: N_1  and  C_2
REMARK    2  A    between atoms: C_2  and  C_3
REMARK    3  A    between atoms: C_6  and  C_7
REMARK    4  A    between atoms: C_7  and  N_8
REMARK                            x       y       z     vdW  Elec       q    Type
REMARK                         _______ _______ _______ _____ _____    ______ ____
ROOT
ATOM      1  C   UNL     1      45.602   6.483  12.954  0.00  0.00    +0.000 C 
ENDROOT
BRANCH   1   2
ATOM      2  N   UNL     1      46.034   7.791  12.480  0.00  0.00    +0.000 N 
ATOM      3  C   UNL     1      45.206   8.883  12.405  0.00  0.00    +0.000 A 
ATOM      4  C   UNL     1      45.970   9.976  12.078  0.00  0.00    +0.000 A 
ATOM      5  C   UNL     1      47.308   9.532  11.901  0.00  0.00    +0.000 A 
ATOM      6  C   UNL     1      48.513  10.192  11.581  0.00  0.00    +0.000 A 
ATOM      7  C   UNL     1      49.691   9.449  11.452  0.00  0.00    +0.000 A 
ATOM      8  C   UNL     1      49.663   8.071  11.615  0.00  0.00    +0.000 A 
ATOM      9  F   UNL     1      50.799   7.375  11.467  0.00  0.00    +0.000 F 
ATOM     10  C   UNL     1      48.489   7.389  11.940  0.00  0.00    +0.000 A 
ATOM     11  C   UNL     1      47.316   8.146  12.102  0.00  0.00    +0.000 A 
ENDBRANCH   1   2
BRANCH   1  15
ATOM     12  C   UNL     1      44.449   3.510   9.912  0.00  0.00    +0.000 C 
ATOM     13  C   UNL     1      45.279   4.723   9.472  0.00  0.00    +0.000 C 
ATOM     14  C   UNL     1      45.252   5.842  10.509  0.00  0.00    +0.000 C 
ATOM     15  C   UNL     1      45.724   5.366  11.891  0.00  0.00    +0.000 C 
ATOM     16  C   UNL     1      44.934   4.123  12.335  0.00  0.00    +0.000 C 
ATOM     17  C   UNL     1      44.939   3.012  11.282  0.00  0.00    +0.000 C 
BRANCH  12  18
ATOM     18  C   UNL     1      44.518   2.419   8.828  0.00  0.00    +0.000 C 
BRANCH  18  19
ATOM     19  N   UNL     1      45.872   1.905   8.642  0.00  0.00    +0.000 NA
ATOM     20  H   UNL     1      46.537   2.673   8.714  0.00  0.00    +0.000 HD
ATOM     21  H   UNL     1      45.968   1.532   7.697  0.00  0.00    +0.000 HD
ENDBRANCH  18  19
ENDBRANCH  12  18
ENDBRANCH   1  15
TORSDOF 4
ENDMDL
MODEL 7
REMARK VINA RESULT:    -5.630      3.176      5.371
REMARK INTER + INTRA:          -7.079
REMARK INTER:                  -6.650
REMARK INTRA:                  -0.429
REMARK UNBOUND:                -0.297
REMARK  Name = 
REMARK  4 active torsions:
REMARK  status: ('A' for Active; 'I' for Inactive)
REMARK    1  A    between atoms: N_1  and  C_2
REMARK    2  A    between atoms: C_2  and  C_3
REMARK    3  A    between atoms: C_6  and  C_7
REMARK    4  A    between atoms: C_7  and  N_8
REMARK                            x       y       z     vdW  Elec       q    Type
REMARK                         _______ _______ _______ _____ _____    ______ ____
ROOT
ATOM      1  C   UNL     1      47.285   6.822  13.388  0.00  0.00    +0.000 C 
ENDROOT
BRANCH   1   2
ATOM      2  N   UNL     1      47.545   8.093  12.725  0.00  0.00    +0.000 N 
ATOM      3  C   UNL     1      46.642   9.124  12.678  0.00  0.00    +0.000 A 
ATOM      4  C   UNL     1      47.267  10.215  12.125  0.00  0.00    +0.000 A 
ATOM      5  C   UNL     1      48.588   9.826  11.777  0.00  0.00    +0.000 A 
ATOM      6  C   UNL     1      49.680  10.510  11.201  0.00  0.00    +0.000 A 
ATOM      7  C   UNL     1      50.872   9.821  10.956  0.00  0.00    +0.000 A 
ATOM      8  C   UNL     1      50.966   8.470  11.257  0.00  0.00    +0.000 A 
ATOM      9  F   UNL     1      52.110   7.822  10.995  0.00  0.00    +0.000 F 
ATOM     10  C   UNL     1      49.908   7.765  11.834  0.00  0.00    +0.000 A 
ATOM     11  C   UNL     1      48.725   8.471  12.110  0.00  0.00    +0.000 A 
ENDBRANCH   1   2
BRANCH   1  15
ATOM     12  C   UNL     1      44.979   3.730  11.257  0.00  0.00    +0.000 C 
ATOM     13  C   UNL     1      44.823   3.841  12.781  0.00  0.00    +0.000 C 
ATOM     14  C   UNL     1      45.952   4.646  13.415  0.00  0.00    +0.000 C 
ATOM     15  C   UNL     1      46.079   6.051  12.804  0.00  0.00    +0.000 C 
ATOM     16  C   UNL     1      46.195   5.967  11.272  0.00  0.00    +0.000 C 
ATOM     17  C   UNL     1      45.076   5.134  10.640  0.00  0.00    +0.000 C 
BRANCH  12  18
ATOM     18  C   UNL     1      43.812   2.909  10.679  0.00  0.00    +0.000 C 
BRANCH  18  19
ATOM     19  N   UNL     1      43.063   2.202  11.714  0.00  0.00    +0.000 NA
ATOM     20  H   UNL     1      42.730   2.872  12.406  0.00  0.00    +0.000 HD
ATOM     21  H   UNL     1      43.687   1.566  12.211  0.00  0.00    +0.000 HD
ENDBRANCH  18  19
ENDBRANCH  12  18
ENDBRANCH   1  15
TORSDOF 4
ENDMDL
MODEL 8
REMARK VINA RESULT:    -5.586      4.356      6.290
REMARK INTER + INTRA:          -7.025
REMARK INTER:                  -6.614
REMARK INTRA:                  -0.411
REMARK UNBOUND:                -0.297
REMARK  Name = 
REMARK  4 active torsions:
REMARK  status: ('A' for Active; 'I' for Inactive)
REMARK    1  A    between atoms: N_1  and  C_2
REMARK    2  A    between atoms: C_2  and  C_3
REMARK    3  A    between atoms: C_6  and  C_7
REMARK    4  A    between atoms: C_7  and  N_8
REMARK                            x       y       z     vdW  Elec       q    Type
REMARK                         _______ _______ _______ _____ _____    ______ ____
ROOT
ATOM      1  C   UNL     1      48.083   5.900  13.556  0.00  0.00    +0.000 C 
ENDROOT
BRANCH   1   2
ATOM      2  N   UNL     1      48.459   6.279  14.912  0.00  0.00    +0.000 N 
ATOM      3  C   UNL     1      49.046   7.477  15.231  0.00  0.00    +0.000 A 
ATOM      4  C   UNL     1      49.112   7.569  16.599  0.00  0.00    +0.000 A 
ATOM      5  C   UNL     1      48.589   6.364  17.140  0.00  0.00    +0.000 A 
ATOM      6  C   UNL     1      48.390   5.899  18.457  0.00  0.00    +0.000 A 
ATOM      7  C   UNL     1      47.862   4.621  18.663  0.00  0.00    +0.000 A 
ATOM      8  C   UNL     1      47.561   3.812  17.577  0.00  0.00    +0.000 A 
ATOM      9  F   UNL     1      47.075   2.582  17.797  0.00  0.00    +0.000 F 
ATOM     10  C   UNL     1      47.738   4.244  16.262  0.00  0.00    +0.000 A 
ATOM     11  C   UNL     1      48.237   5.542  16.061  0.00  0.00    +0.000 A 
ENDBRANCH   1   2
BRANCH   1  15
ATOM     12  C   UNL     1      44.190   5.206  11.612  0.00  0.00    +0.000 C 
ATOM     13  C   UNL     1      44.471   4.518  12.955  0.00  0.00    +0.000 C 
ATOM     14  C   UNL     1      45.958   4.512  13.295  0.00  0.00    +0.000 C 
ATOM     15  C   UNL     1      46.558   5.927  13.303  0.00  0.00    +0.000 C 
ATOM     16  C   UNL     1      46.252   6.653  11.982  0.00  0.00    +0.000 C 
ATOM     17  C   UNL     1      44.762   6.633  11.628  0.00  0.00    +0.000 C 
BRANCH  12  18
ATOM     18  C   UNL     1      42.677   5.180  11.328  0.00  0.00    +0.000 C 
BRANCH  18  19
ATOM     19  N   UNL     1      42.018   6.426  11.707  0.00  0.00    +0.000 NA
ATOM     20  H   UNL     1      42.122   6.572  12.710  0.00  0.00    +0.000 HD
ATOM     21  H   UNL     1      41.015   6.348  11.533  0.00  0.00    +0.000 HD
ENDBRANCH  18  19
ENDBRANCH  12  18
ENDBRANCH   1  15
TORSDOF 4
ENDMDL
MODEL 9
REMARK VINA RESULT:    -5.582      4.444      7.482
REMARK INTER + INTRA:          -7.021
REMARK INTER:                  -6.561
REMARK INTRA:                  -0.460
REMARK UNBOUND:                -0.297
REMARK  Name = 
REMARK  4 active torsions:
REMARK  status: ('A' for Active; 'I' for Inactive)
REMARK    1  A    between atoms: N_1  and  C_2
REMARK    2  A    between atoms: C_2  and  C_3
REMARK    3  A    between atoms: C_6  and  C_7
REMARK    4  A    between atoms: C_7  and  N_8
REMARK                            x       y       z     vdW  Elec       q    Type
REMARK                         _______ _______ _______ _____ _____    ______ ____
ROOT
ATOM      1  C   UNL     1      47.316   4.192  14.239  0.00  0.00    +0.000 C 
ENDROOT
BRANCH   1   2
ATOM      2  N   UNL     1      46.345   5.054  13.577  0.00  0.00    +0.000 N 
ATOM      3  C   UNL     1      45.021   4.728  13.423  0.00  0.00    +0.000 A 
ATOM      4  C   UNL     1      44.370   5.823  12.910  0.00  0.00    +0.000 A 
ATOM      5  C   UNL     1      45.336   6.842  12.698  0.00  0.00    +0.000 A 
ATOM      6  C   UNL     1      45.259   8.166  12.215  0.00  0.00    +0.000 A 
ATOM      7  C   UNL     1      46.427   8.925  12.099  0.00  0.00    +0.000 A 
ATOM      8  C   UNL     1      47.653   8.368  12.435  0.00  0.00    +0.000 A 
ATOM      9  F   UNL     1      48.763   9.106  12.297  0.00  0.00    +0.000 F 
ATOM     10  C   UNL     1      47.763   7.065  12.923  0.00  0.00    +0.000 A 
ATOM     11  C   UNL     1      46.582   6.319  13.070  0.00  0.00    +0.000 A 
ENDBRANCH   1   2
BRANCH   1  15
ATOM     12  C   UNL     1      48.956   4.434  18.322  0.00  0.00    +0.000 C 
ATOM     13  C   UNL     1      48.438   5.721  17.663  0.00  0.00    +0.000 C 
ATOM     14  C   UNL     1      48.291   5.570  16.152  0.00  0.00    +0.000 C 
ATOM     15  C   UNL     1      47.382   4.392  15.771  0.00  0.00    +0.000 C 
ATOM     16  C   UNL     1      47.857   3.098  16.454  0.00  0.00    +0.000 C 
ATOM     17  C   UNL     1      48.032   3.258  17.967  0.00  0.00    +0.000 C 
BRANCH  12  18
ATOM     18  C   UNL     1      49.081   4.650  19.841  0.00  0.00    +0.000 C 
BRANCH  18  19
ATOM     19  N   UNL     1      48.337   3.655  20.607  0.00  0.00    +0.000 NA
ATOM     20  H   UNL     1      47.992   2.933  19.977  0.00  0.00    +0.000 HD
ATOM     21  H   UNL     1      47.511   4.091  21.019  0.00  0.00    +0.000 HD
ENDBRANCH  18  19
ENDBRANCH  12  18
ENDBRANCH   1  15
TORSDOF 4
ENDMDL
