MODEL 1
REMARK VINA RESULT:    -6.708      0.000      0.000
REMARK INTER + INTRA:          -9.124
REMARK INTER:                  -8.669
REMARK INTRA:                  -0.455
REMARK UNBOUND:                -0.455
REMARK  Name = 
REMARK  7 active torsions:
REMARK  status: ('A' for Active; 'I' for Inactive)
REMARK    1  A    between atoms: C_1  and  O_2
REMARK    2  A    between atoms: O_2  and  C_3
REMARK    3  A    between atoms: C_7  and  C_8
REMARK    4  A    between atoms: C_8  and  N_9
REMARK    5  A    between atoms: C_14  and  C_15
REMARK    6  A    between atoms: C_21  and  O_22
REMARK    7  A    between atoms: O_22  and  C_23
REMARK                            x       y       z     vdW  Elec       q    Type
REMARK                         _______ _______ _______ _____ _____    ______ ____
ROOT
ATOM      1  N   UNL     1      43.995   4.720  10.806  0.00  0.00    +0.000 N 
ATOM      2  C   UNL     1      43.429   3.614  11.402  0.00  0.00    +0.000 A 
ATOM      3  C   UNL     1      43.879   2.488  10.744  0.00  0.00    +0.000 A 
ATOM      4  C   UNL     1      44.745   2.916   9.714  0.00  0.00    +0.000 A 
ATOM      5  C   UNL     1      45.439   2.241   8.705  0.00  0.00    +0.000 A 
ATOM      6  C   UNL     1      46.181   3.031   7.836  0.00  0.00    +0.000 A 
ATOM      7  N   UNL     1      46.303   4.384   7.923  0.00  0.00    +0.000 NA
ATOM      8  C   UNL     1      45.638   5.030   8.901  0.00  0.00    +0.000 A 
ATOM      9  C   UNL     1      44.836   4.312   9.784  0.00  0.00    +0.000 A 
ENDROOT
BRANCH   6  10
ATOM     10  C   UNL     1      46.860   2.383   6.668  0.00  0.00    +0.000 C 
ATOM     11  N   UNL     1      47.100   3.193   5.596  0.00  0.00    +0.000 N 
ATOM     12  O   UNL     1      47.169   1.198   6.663  0.00  0.00    +0.000 OA
ATOM     13  H   UNL     1      46.792   4.156   5.622  0.00  0.00    +0.000 HD
ATOM     14  H   UNL     1      47.499   2.797   4.755  0.00  0.00    +0.000 HD
ENDBRANCH   6  10
BRANCH   1  15
ATOM     15  C   UNL     1      43.581   6.095  11.089  0.00  0.00    +0.000 C 
BRANCH  15  20
ATOM     16  C   UNL     1      45.935   8.831  12.160  0.00  0.00    +0.000 A 
ATOM     17  N   UNL     1      46.711   8.169  13.043  0.00  0.00    +0.000 NA
ATOM     18  C   UNL     1      46.390   6.896  13.282  0.00  0.00    +0.000 A 
ATOM     19  N   UNL     1      45.404   6.215  12.688  0.00  0.00    +0.000 NA
ATOM     20  C   UNL     1      44.660   6.896  11.780  0.00  0.00    +0.000 A 
ATOM     21  C   UNL     1      44.861   8.245  11.494  0.00  0.00    +0.000 A 
BRANCH  16  23
ATOM     22  C   UNL     1      47.580  10.549  12.060  0.00  0.00    +0.000 C 
ATOM     23  O   UNL     1      46.213  10.162  11.938  0.00  0.00    +0.000 OA
ENDBRANCH  16  23
BRANCH  21  24
ATOM     24  O   UNL     1      43.961   8.808  10.639  0.00  0.00    +0.000 OA
ATOM     25  C   UNL     1      43.131   9.877  11.073  0.00  0.00    +0.000 C 
ENDBRANCH  21  24
ENDBRANCH  15  20
ENDBRANCH   1  15
TORSDOF 5
ENDMDL
MODEL 2
REMARK VINA RESULT:    -6.597      1.816      2.512
REMARK INTER + INTRA:          -8.981
REMARK INTER:                  -8.985
REMARK INTRA:                   0.004
REMARK UNBOUND:                -0.455
REMARK  Name = 
REMARK  7 active torsions:
REMARK  status: ('A' for Active; 'I' for Inactive)
REMARK    1  A    between atoms: C_1  and  O_2
REMARK    2  A    between atoms: O_2  and  C_3
REMARK    3  A    between atoms: C_7  and  C_8
REMARK    4  A    between atoms: C_8  and  N_9
REMARK    5  A    between atoms: C_14  and  C_15
REMARK    6  A    between atoms: C_21  and  O_22
REMARK    7  A    between atoms: O_22  and  C_23
REMARK                            x       y       z     vdW  Elec       q    Type
REMARK                         _______ _______ _______ _____ _____    ______ ____
ROOT
ATOM      1  N   UNL     1      44.072   4.343  10.942  0.00  0.00    +0.000 N 
ATOM      2  C   UNL     1      43.573   3.120  11.332  0.00  0.00    +0.000 A 
ATOM      3  C   UNL     1      44.083   2.155  10.489  0.00  0.00    +0.000 A 
ATOM      4  C   UNL     1      44.917   2.806   9.553  0.00  0.00    +0.000 A 
ATOM      5  C   UNL     1      45.642   2.360   8.444  0.00  0.00    +0.000 A 
ATOM      6  C   UNL     1      46.333   3.331   7.731  0.00  0.00    +0.000 A 
ATOM      7  N   UNL     1      46.379   4.652   8.055  0.00  0.00    +0.000 NA
ATOM      8  C   UNL     1      45.684   5.077   9.129  0.00  0.00    +0.000 A 
ATOM      9  C   UNL     1      44.929   4.171   9.869  0.00  0.00    +0.000 A 
ENDROOT
BRANCH   6  10
ATOM     10  C   UNL     1      47.041   2.938   6.470  0.00  0.00    +0.000 C 
ATOM     11  N   UNL     1      48.369   2.650   6.600  0.00  0.00    +0.000 N 
ATOM     12  O   UNL     1      46.474   2.892   5.386  0.00  0.00    +0.000 OA
ATOM     13  H   UNL     1      48.810   2.741   7.505  0.00  0.00    +0.000 HD
ATOM     14  H   UNL     1      48.914   2.440   5.774  0.00  0.00    +0.000 HD
ENDBRANCH   6  10
BRANCH   1  15
ATOM     15  C   UNL     1      43.582   5.622  11.462  0.00  0.00    +0.000 C 
BRANCH  15  20
ATOM     16  C   UNL     1      46.535   7.093  13.277  0.00  0.00    +0.000 A 
ATOM     17  N   UNL     1      46.596   8.317  12.714  0.00  0.00    +0.000 NA
ATOM     18  C   UNL     1      45.717   8.572  11.743  0.00  0.00    +0.000 A 
ATOM     19  N   UNL     1      44.759   7.740  11.319  0.00  0.00    +0.000 NA
ATOM     20  C   UNL     1      44.700   6.527  11.925  0.00  0.00    +0.000 A 
ATOM     21  C   UNL     1      45.603   6.125  12.908  0.00  0.00    +0.000 A 
BRANCH  16  23
ATOM     22  C   UNL     1      48.833   7.003  13.892  0.00  0.00    +0.000 C 
ATOM     23  O   UNL     1      47.467   6.788  14.243  0.00  0.00    +0.000 OA
ENDBRANCH  16  23
BRANCH  21  24
ATOM     24  O   UNL     1      45.473   4.839  13.337  0.00  0.00    +0.000 OA
ATOM     25  C   UNL     1      46.587   3.957  13.308  0.00  0.00    +0.000 C 
ENDBRANCH  21  24
ENDBRANCH  15  20
ENDBRANCH   1  15
TORSDOF 5
ENDMDL
MODEL 3
REMARK VINA RESULT:    -6.559      3.030      7.214
REMARK INTER + INTRA:          -8.932
REMARK INTER:                  -8.403
REMARK INTRA:                  -0.529
REMARK UNBOUND:                -0.455
REMARK  Name = 
REMARK  7 active torsions:
REMARK  status: ('A' for Active; 'I' for Inactive)
REMARK    1  A    between atoms: C_1  and  O_2
REMARK    2  A    between atoms: O_2  and  C_3
REMARK    3  A    between atoms: C_7  and  C_8
REMARK    4  A    between atoms: C_8  and  N_9
REMARK    5  A    between atoms: C_14  and  C_15
REMARK    6  A    between atoms: C_21  and  O_22
REMARK    7  A    between atoms: O_22  and  C_23
REMARK                            x       y       z     vdW  Elec       q    Type
REMARK                         _______ _______ _______ _____ _____    ______ ____
ROOT
ATOM      1  N   UNL     1      46.138   5.895  11.666  0.00  0.00    +0.000 N 
ATOM      2  C   UNL     1      46.862   7.028  11.367  0.00  0.00    +0.000 A 
ATOM      3  C   UNL     1      47.733   7.274  12.407  0.00  0.00    +0.000 A 
ATOM      4  C   UNL     1      47.536   6.263  13.374  0.00  0.00    +0.000 A 
ATOM      5  C   UNL     1      48.082   6.030  14.640  0.00  0.00    +0.000 A 
ATOM      6  C   UNL     1      47.600   4.921  15.321  0.00  0.00    +0.000 A 
ATOM      7  N   UNL     1      46.679   4.045  14.834  0.00  0.00    +0.000 NA
ATOM      8  C   UNL     1      46.161   4.269  13.611  0.00  0.00    +0.000 A 
ATOM      9  C   UNL     1      46.560   5.387  12.883  0.00  0.00    +0.000 A 
ENDROOT
BRANCH   6  10
ATOM     10  C   UNL     1      48.062   4.675  16.726  0.00  0.00    +0.000 C 
ATOM     11  N   UNL     1      47.118   4.837  17.698  0.00  0.00    +0.000 N 
ATOM     12  O   UNL     1      49.216   4.365  16.992  0.00  0.00    +0.000 OA
ATOM     13  H   UNL     1      46.186   5.135  17.442  0.00  0.00    +0.000 HD
ATOM     14  H   UNL     1      47.387   4.745  18.670  0.00  0.00    +0.000 HD
ENDBRANCH   6  10
BRANCH   1  15
ATOM     15  C   UNL     1      44.969   5.453  10.902  0.00  0.00    +0.000 C 
BRANCH  15  20
ATOM     16  C   UNL     1      45.691   2.455   8.743  0.00  0.00    +0.000 A 
ATOM     17  N   UNL     1      46.126   3.053   7.614  0.00  0.00    +0.000 NA
ATOM     18  C   UNL     1      46.104   4.387   7.599  0.00  0.00    +0.000 A 
ATOM     19  N   UNL     1      45.737   5.173   8.617  0.00  0.00    +0.000 NA
ATOM     20  C   UNL     1      45.336   4.546   9.751  0.00  0.00    +0.000 A 
ATOM     21  C   UNL     1      45.257   3.159   9.864  0.00  0.00    +0.000 A 
BRANCH  16  23
ATOM     22  C   UNL     1      46.532   0.411   7.860  0.00  0.00    +0.000 C 
ATOM     23  O   UNL     1      45.652   1.079   8.762  0.00  0.00    +0.000 OA
ENDBRANCH  16  23
BRANCH  21  24
ATOM     24  O   UNL     1      44.732   2.691  11.031  0.00  0.00    +0.000 OA
ATOM     25  C   UNL     1      43.328   2.510  11.165  0.00  0.00    +0.000 C 
ENDBRANCH  21  24
ENDBRANCH  15  20
ENDBRANCH   1  15
TORSDOF 5
ENDMDL
MODEL 4
REMARK VINA RESULT:    -6.058      4.291      6.209
REMARK INTER + INTRA:          -8.285
REMARK INTER:                  -7.875
REMARK INTRA:                  -0.410
REMARK UNBOUND:                -0.455
REMARK  Name = 
REMARK  7 active torsions:
REMARK  status: ('A' for Active; 'I' for Inactive)
REMARK    1  A    between atoms: C_1  and  O_2
REMARK    2  A    between atoms: O_2  and  C_3
REMARK    3  A    between atoms: C_7  and  C_8
REMARK    4  A    between atoms: C_8  and  N_9
REMARK    5  A    between atoms: C_14  and  C_15
REMARK    6  A    between atoms: C_21  and  O_22
REMARK    7  A    between atoms: O_22  and  C_23
REMARK                            x       y       z     vdW  Elec       q    Type
REMARK                         _______ _______ _______ _____ _____    ______ ____
ROOT
ATOM      1  N   UNL     1      47.355   6.619  13.654  0.00  0.00    +0.000 N 
ATOM      2  C   UNL     1      46.812   7.796  13.190  0.00  0.00    +0.000 A 
ATOM      3  C   UNL     1      45.703   7.492  12.428  0.00  0.00    +0.000 A 
ATOM      4  C   UNL     1      45.564   6.086  12.423  0.00  0.00    +0.000 A 
ATOM      5  C   UNL     1      44.677   5.214  11.785  0.00  0.00    +0.000 A 
ATOM      6  C   UNL     1      44.885   3.859  12.003  0.00  0.00    +0.000 A 
ATOM      7  N   UNL     1      45.850   3.337  12.809  0.00  0.00    +0.000 NA
ATOM      8  C   UNL     1      46.699   4.181  13.427  0.00  0.00    +0.000 A 
ATOM      9  C   UNL     1      46.584   5.554  13.222  0.00  0.00    +0.000 A 
ENDROOT
BRANCH   6  10
ATOM     10  C   UNL     1      44.038   2.867  11.264  0.00  0.00    +0.000 C 
ATOM     11  N   UNL     1      44.562   2.395  10.096  0.00  0.00    +0.000 N 
ATOM     12  O   UNL     1      42.939   2.512  11.669  0.00  0.00    +0.000 OA
ATOM     13  H   UNL     1      45.454   2.744   9.773  0.00  0.00    +0.000 HD
ATOM     14  H   UNL     1      44.009   1.771   9.521  0.00  0.00    +0.000 HD
ENDBRANCH   6  10
BRANCH   1  15
ATOM     15  C   UNL     1      48.661   6.532  14.311  0.00  0.00    +0.000 C 
BRANCH  15  20
ATOM     16  C   UNL     1      48.421   6.282  18.060  0.00  0.00    +0.000 A 
ATOM     17  N   UNL     1      48.369   7.587  18.399  0.00  0.00    +0.000 NA
ATOM     18  C   UNL     1      48.473   8.467  17.403  0.00  0.00    +0.000 A 
ATOM     19  N   UNL     1      48.574   8.167  16.103  0.00  0.00    +0.000 NA
ATOM     20  C   UNL     1      48.591   6.848  15.787  0.00  0.00    +0.000 A 
ATOM     21  C   UNL     1      48.552   5.837  16.746  0.00  0.00    +0.000 A 
BRANCH  16  23
ATOM     22  C   UNL     1      49.618   5.010  19.678  0.00  0.00    +0.000 C 
ATOM     23  O   UNL     1      48.371   5.356  19.077  0.00  0.00    +0.000 OA
ENDBRANCH  16  23
BRANCH  21  24
ATOM     24  O   UNL     1      48.687   4.567  16.271  0.00  0.00    +0.000 OA
ATOM     25  C   UNL     1      47.721   3.575  16.592  0.00  0.00    +0.000 C 
ENDBRANCH  21  24
ENDBRANCH  15  20
ENDBRANCH   1  15
TORSDOF 5
ENDMDL
MODEL 5
REMARK VINA RESULT:    -5.847      3.994      5.807
REMARK INTER + INTRA:          -8.012
REMARK INTER:                  -7.419
REMARK INTRA:                  -0.593
REMARK UNBOUND:                -0.455
REMARK  Name = 
REMARK  7 active torsions:
REMARK  status: ('A' for Active; 'I' for Inactive)
REMARK    1  A    between atoms: C_1  and  O_2
REMARK    2  A    between atoms: O_2  and  C_3
REMARK    3  A    between atoms: C_7  and  C_8
REMARK    4  A    between atoms: C_8  and  N_9
REMARK    5  A    between atoms: C_14  and  C_15
REMARK    6  A    between atoms: C_21  and  O_22
REMARK    7  A    between atoms: O_22  and  C_23
REMARK                            x       y       z     vdW  Elec       q    Type
REMARK                         _______ _______ _______ _____ _____    ______ ____
ROOT
ATOM      1  N   UNL     1      47.349   6.655  13.612  0.00  0.00    +0.000 N 
ATOM      2  C   UNL     1      46.773   7.824  13.167  0.00  0.00    +0.000 A 
ATOM      3  C   UNL     1      45.652   7.504  12.431  0.00  0.00    +0.000 A 
ATOM      4  C   UNL     1      45.538   6.096  12.423  0.00  0.00    +0.000 A 
ATOM      5  C   UNL     1      44.651   5.210  11.803  0.00  0.00    +0.000 A 
ATOM      6  C   UNL     1      44.888   3.858  12.009  0.00  0.00    +0.000 A 
ATOM      7  N   UNL     1      45.882   3.350  12.788  0.00  0.00    +0.000 NA
ATOM      8  C   UNL     1      46.731   4.207  13.390  0.00  0.00    +0.000 A 
ATOM      9  C   UNL     1      46.587   5.578  13.194  0.00  0.00    +0.000 A 
ENDROOT
BRANCH   6  10
ATOM     10  C   UNL     1      44.042   2.855  11.286  0.00  0.00    +0.000 C 
ATOM     11  N   UNL     1      44.551   2.386  10.110  0.00  0.00    +0.000 N 
ATOM     12  O   UNL     1      42.954   2.486  11.710  0.00  0.00    +0.000 OA
ATOM     13  H   UNL     1      45.433   2.746   9.772  0.00  0.00    +0.000 HD
ATOM     14  H   UNL     1      43.997   1.754   9.547  0.00  0.00    +0.000 HD
ENDBRANCH   6  10
BRANCH   1  15
ATOM     15  C   UNL     1      48.672   6.589  14.236  0.00  0.00    +0.000 C 
BRANCH  15  20
ATOM     16  C   UNL     1      48.619   7.239  17.943  0.00  0.00    +0.000 A 
ATOM     17  N   UNL     1      48.559   5.979  18.422  0.00  0.00    +0.000 NA
ATOM     18  C   UNL     1      48.481   5.000  17.519  0.00  0.00    +0.000 A 
ATOM     19  N   UNL     1      48.506   5.160  16.191  0.00  0.00    +0.000 NA
ATOM     20  C   UNL     1      48.600   6.435  15.737  0.00  0.00    +0.000 A 
ATOM     21  C   UNL     1      48.626   7.542  16.584  0.00  0.00    +0.000 A 
BRANCH  16  23
ATOM     22  C   UNL     1      47.379   8.779  19.269  0.00  0.00    +0.000 C 
ATOM     23  O   UNL     1      48.645   8.268  18.858  0.00  0.00    +0.000 OA
ENDBRANCH  16  23
BRANCH  21  24
ATOM     24  O   UNL     1      48.612   8.757  15.967  0.00  0.00    +0.000 OA
ATOM     25  C   UNL     1      49.800   9.534  15.888  0.00  0.00    +0.000 C 
ENDBRANCH  21  24
ENDBRANCH  15  20
ENDBRANCH   1  15
TORSDOF 5
ENDMDL
MODEL 6
REMARK VINA RESULT:    -5.460      3.416      4.996
REMARK INTER + INTRA:          -7.511
REMARK INTER:                  -6.851
REMARK INTRA:                  -0.660
REMARK UNBOUND:                -0.455
REMARK  Name = 
REMARK  7 active torsions:
REMARK  status: ('A' for Active; 'I' for Inactive)
REMARK    1  A    between atoms: C_1  and  O_2
REMARK    2  A    between atoms: O_2  and  C_3
REMARK    3  A    between atoms: C_7  and  C_8
REMARK    4  A    between atoms: C_8  and  N_9
REMARK    5  A    between atoms: C_14  and  C_15
REMARK    6  A    between atoms: C_21  and  O_22
REMARK    7  A    between atoms: O_22  and  C_23
REMARK                            x       y       z     vdW  Elec       q    Type
REMARK                         _______ _______ _______ _____ _____    ______ ____
ROOT
ATOM      1  N   UNL     1      47.488   6.468  13.887  0.00  0.00    +0.000 N 
ATOM      2  C   UNL     1      47.630   5.500  14.856  0.00  0.00    +0.000 A 
ATOM      3  C   UNL     1      46.930   4.380  14.458  0.00  0.00    +0.000 A 
ATOM      4  C   UNL     1      46.341   4.671  13.208  0.00  0.00    +0.000 A 
ATOM      5  C   UNL     1      45.487   3.955  12.362  0.00  0.00    +0.000 A 
ATOM      6  C   UNL     1      45.083   4.606  11.204  0.00  0.00    +0.000 A 
ATOM      7  N   UNL     1      45.483   5.851  10.828  0.00  0.00    +0.000 NA
ATOM      8  C   UNL     1      46.311   6.535  11.642  0.00  0.00    +0.000 A 
ATOM      9  C   UNL     1      46.725   5.968  12.845  0.00  0.00    +0.000 A 
ENDROOT
BRANCH   6  10
ATOM     10  C   UNL     1      44.083   3.938  10.309  0.00  0.00    +0.000 C 
ATOM     11  N   UNL     1      44.020   4.414   9.031  0.00  0.00    +0.000 N 
ATOM     12  O   UNL     1      43.355   3.034  10.697  0.00  0.00    +0.000 OA
ATOM     13  H   UNL     1      44.609   5.190   8.760  0.00  0.00    +0.000 HD
ATOM     14  H   UNL     1      43.321   4.045   8.399  0.00  0.00    +0.000 HD
ENDBRANCH   6  10
BRANCH   1  15
ATOM     15  C   UNL     1      47.905   7.860  14.063  0.00  0.00    +0.000 C 
BRANCH  15  20
ATOM     16  C   UNL     1      51.246   8.541  12.467  0.00  0.00    +0.000 A 
ATOM     17  N   UNL     1      52.078   8.283  13.497  0.00  0.00    +0.000 NA
ATOM     18  C   UNL     1      51.507   7.962  14.659  0.00  0.00    +0.000 A 
ATOM     19  N   UNL     1      50.193   7.828  14.873  0.00  0.00    +0.000 NA
ATOM     20  C   UNL     1      49.381   8.062  13.811  0.00  0.00    +0.000 A 
ATOM     21  C   UNL     1      49.858   8.464  12.565  0.00  0.00    +0.000 A 
BRANCH  16  23
ATOM     22  C   UNL     1      52.402   7.893  10.490  0.00  0.00    +0.000 C 
ATOM     23  O   UNL     1      51.811   8.928  11.272  0.00  0.00    +0.000 OA
ENDBRANCH  16  23
BRANCH  21  24
ATOM     24  O   UNL     1      48.906   8.761  11.637  0.00  0.00    +0.000 OA
ATOM     25  C   UNL     1      48.576  10.115  11.356  0.00  0.00    +0.000 C 
ENDBRANCH  21  24
ENDBRANCH  15  20
ENDBRANCH   1  15
TORSDOF 5
ENDMDL
MODEL 7
REMARK VINA RESULT:    -5.443      3.877      5.526
REMARK INTER + INTRA:          -7.489
REMARK INTER:                  -6.788
REMARK INTRA:                  -0.701
REMARK UNBOUND:                -0.455
REMARK  Name = 
REMARK  7 active torsions:
REMARK  status: ('A' for Active; 'I' for Inactive)
REMARK    1  A    between atoms: C_1  and  O_2
REMARK    2  A    between atoms: O_2  and  C_3
REMARK    3  A    between atoms: C_7  and  C_8
REMARK    4  A    between atoms: C_8  and  N_9
REMARK    5  A    between atoms: C_14  and  C_15
REMARK    6  A    between atoms: C_21  and  O_22
REMARK    7  A    between atoms: O_22  and  C_23
REMARK                            x       y       z     vdW  Elec       q    Type
REMARK                         _______ _______ _______ _____ _____    ______ ____
ROOT
ATOM      1  N   UNL     1      47.539   6.532  13.665  0.00  0.00    +0.000 N 
ATOM      2  C   UNL     1      47.620   5.652  14.722  0.00  0.00    +0.000 A 
ATOM      3  C   UNL     1      46.884   4.528  14.409  0.00  0.00    +0.000 A 
ATOM      4  C   UNL     1      46.334   4.726  13.123  0.00  0.00    +0.000 A 
ATOM      5  C   UNL     1      45.470   3.969  12.325  0.00  0.00    +0.000 A 
ATOM      6  C   UNL     1      45.118   4.526  11.103  0.00  0.00    +0.000 A 
ATOM      7  N   UNL     1      45.577   5.715  10.626  0.00  0.00    +0.000 NA
ATOM      8  C   UNL     1      46.415   6.438  11.395  0.00  0.00    +0.000 A 
ATOM      9  C   UNL     1      46.779   5.968  12.654  0.00  0.00    +0.000 A 
ENDROOT
BRANCH   6  10
ATOM     10  C   UNL     1      44.111   3.819  10.247  0.00  0.00    +0.000 C 
ATOM     11  N   UNL     1      43.927   4.335   8.997  0.00  0.00    +0.000 N 
ATOM     12  O   UNL     1      43.477   2.849  10.644  0.00  0.00    +0.000 OA
ATOM     13  H   UNL     1      44.438   5.163   8.721  0.00  0.00    +0.000 HD
ATOM     14  H   UNL     1      43.215   3.939   8.397  0.00  0.00    +0.000 HD
ENDBRANCH   6  10
BRANCH   1  15
ATOM     15  C   UNL     1      48.010   7.917  13.724  0.00  0.00    +0.000 C 
BRANCH  15  20
ATOM     16  C   UNL     1      51.730   8.465  13.539  0.00  0.00    +0.000 A 
ATOM     17  N   UNL     1      51.928   8.417  12.206  0.00  0.00    +0.000 NA
ATOM     18  C   UNL     1      50.860   8.153  11.452  0.00  0.00    +0.000 A 
ATOM     19  N   UNL     1      49.611   7.982  11.901  0.00  0.00    +0.000 NA
ATOM     20  C   UNL     1      49.435   8.068  13.244  0.00  0.00    +0.000 A 
ATOM     21  C   UNL     1      50.485   8.278  14.135  0.00  0.00    +0.000 A 
BRANCH  16  23
ATOM     22  C   UNL     1      53.901   7.751  14.206  0.00  0.00    +0.000 C 
ATOM     23  O   UNL     1      52.829   8.682  14.340  0.00  0.00    +0.000 OA
ENDBRANCH  16  23
BRANCH  21  24
ATOM     24  O   UNL     1      50.156   8.230  15.457  0.00  0.00    +0.000 OA
ATOM     25  C   UNL     1      50.577   7.137  16.262  0.00  0.00    +0.000 C 
ENDBRANCH  21  24
ENDBRANCH  15  20
ENDBRANCH   1  15
TORSDOF 5
ENDMDL
MODEL 8
REMARK VINA RESULT:    -5.266      3.203      5.031
REMARK INTER + INTRA:          -7.261
REMARK INTER:                  -6.701
REMARK INTRA:                  -0.560
REMARK UNBOUND:                -0.455
REMARK  Name = 
REMARK  7 active torsions:
REMARK  status: ('A' for Active; 'I' for Inactive)
REMARK    1  A    between atoms: C_1  and  O_2
REMARK    2  A    between atoms: O_2  and  C_3
REMARK    3  A    between atoms: C_7  and  C_8
REMARK    4  A    between atoms: C_8  and  N_9
REMARK    5  A    between atoms: C_14  and  C_15
REMARK    6  A    between atoms: C_21  and  O_22
REMARK    7  A    between atoms: O_22  and  C_23
REMARK                            x       y       z     vdW  Elec       q    Type
REMARK                         _______ _______ _______ _____ _____    ______ ____
ROOT
ATOM      1  N   UNL     1      46.191   7.587  13.051  0.00  0.00    +0.000 N 
ATOM      2  C   UNL     1      45.621   8.516  12.207  0.00  0.00    +0.000 A 
ATOM      3  C   UNL     1      44.733   7.863  11.379  0.00  0.00    +0.000 A 
ATOM      4  C   UNL     1      44.760   6.493  11.723  0.00  0.00    +0.000 A 
ATOM      5  C   UNL     1      44.126   5.362  11.200  0.00  0.00    +0.000 A 
ATOM      6  C   UNL     1      44.439   4.150  11.800  0.00  0.00    +0.000 A 
ATOM      7  N   UNL     1      45.274   3.999  12.864  0.00  0.00    +0.000 NA
ATOM      8  C   UNL     1      45.877   5.092  13.371  0.00  0.00    +0.000 A 
ATOM      9  C   UNL     1      45.650   6.339  12.793  0.00  0.00    +0.000 A 
ENDROOT
BRANCH   6  10
ATOM     10  C   UNL     1      43.880   2.887  11.219  0.00  0.00    +0.000 C 
ATOM     11  N   UNL     1      44.499   2.426  10.093  0.00  0.00    +0.000 N 
ATOM     12  O   UNL     1      42.918   2.309  11.708  0.00  0.00    +0.000 OA
ATOM     13  H   UNL     1      45.264   2.955   9.695  0.00  0.00    +0.000 HD
ATOM     14  H   UNL     1      44.127   1.613   9.620  0.00  0.00    +0.000 HD
ENDBRANCH   6  10
BRANCH   1  15
ATOM     15  C   UNL     1      47.337   7.872  13.916  0.00  0.00    +0.000 C 
BRANCH  15  20
ATOM     16  C   UNL     1      50.418   9.580  12.586  0.00  0.00    +0.000 A 
ATOM     17  N   UNL     1      50.744   8.759  11.566  0.00  0.00    +0.000 NA
ATOM     18  C   UNL     1      49.984   7.674  11.407  0.00  0.00    +0.000 A 
ATOM     19  N   UNL     1      48.907   7.362  12.136  0.00  0.00    +0.000 NA
ATOM     20  C   UNL     1      48.583   8.221  13.134  0.00  0.00    +0.000 A 
ATOM     21  C   UNL     1      49.337   9.354  13.436  0.00  0.00    +0.000 A 
BRANCH  16  23
ATOM     22  C   UNL     1      51.500  11.491  11.666  0.00  0.00    +0.000 C 
ATOM     23  O   UNL     1      51.221  10.677  12.804  0.00  0.00    +0.000 OA
ENDBRANCH  16  23
BRANCH  21  24
ATOM     24  O   UNL     1      48.938  10.053  14.535  0.00  0.00    +0.000 OA
ATOM     25  C   UNL     1      49.665   9.951  15.753  0.00  0.00    +0.000 C 
ENDBRANCH  21  24
ENDBRANCH  15  20
ENDBRANCH   1  15
TORSDOF 5
ENDMDL
MODEL 9
REMARK VINA RESULT:    -5.196      6.980      9.012
REMARK INTER + INTRA:          -7.170
REMARK INTER:                  -6.817
REMARK INTRA:                  -0.353
REMARK UNBOUND:                -0.455
REMARK  Name = 
REMARK  7 active torsions:
REMARK  status: ('A' for Active; 'I' for Inactive)
REMARK    1  A    between atoms: C_1  and  O_2
REMARK    2  A    between atoms: O_2  and  C_3
REMARK    3  A    between atoms: C_7  and  C_8
REMARK    4  A    between atoms: C_8  and  N_9
REMARK    5  A    between atoms: C_14  and  C_15
REMARK    6  A    between atoms: C_21  and  O_22
REMARK    7  A    between atoms: O_22  and  C_23
REMARK                            x       y       z     vdW  Elec       q    Type
REMARK                         _______ _______ _______ _____ _____    ______ ____
ROOT
ATOM      1  N   UNL     1      49.813   4.589  17.542  0.00  0.00    +0.000 N 
ATOM      2  C   UNL     1      50.633   5.591  18.013  0.00  0.00    +0.000 A 
ATOM      3  C   UNL     1      51.881   5.056  18.252  0.00  0.00    +0.000 A 
ATOM      4  C   UNL     1      51.825   3.684  17.920  0.00  0.00    +0.000 A 
ATOM      5  C   UNL     1      52.750   2.639  18.009  0.00  0.00    +0.000 A 
ATOM      6  C   UNL     1      52.302   1.387  17.608  0.00  0.00    +0.000 A 
ATOM      7  N   UNL     1      51.064   1.124  17.110  0.00  0.00    +0.000 NA
ATOM      8  C   UNL     1      50.177   2.135  17.019  0.00  0.00    +0.000 A 
ATOM      9  C   UNL     1      50.536   3.412  17.445  0.00  0.00    +0.000 A 
ENDROOT
BRANCH   6  10
ATOM     10  C   UNL     1      53.207   0.205  17.779  0.00  0.00    +0.000 C 
ATOM     11  N   UNL     1      53.840  -0.227  16.650  0.00  0.00    +0.000 N 
ATOM     12  O   UNL     1      53.360  -0.354  18.858  0.00  0.00    +0.000 OA
ATOM     13  H   UNL     1      53.655   0.234  15.770  0.00  0.00    +0.000 HD
ATOM     14  H   UNL     1      54.415  -1.059  16.691  0.00  0.00    +0.000 HD
ENDBRANCH   6  10
BRANCH   1  15
ATOM     15  C   UNL     1      48.364   4.730  17.389  0.00  0.00    +0.000 C 
BRANCH  15  20
ATOM     16  C   UNL     1      47.523   5.825  13.887  0.00  0.00    +0.000 A 
ATOM     17  N   UNL     1      47.022   4.682  13.376  0.00  0.00    +0.000 NA
ATOM     18  C   UNL     1      47.041   3.613  14.174  0.00  0.00    +0.000 A 
ATOM     19  N   UNL     1      47.465   3.593  15.443  0.00  0.00    +0.000 NA
ATOM     20  C   UNL     1      47.933   4.765  15.942  0.00  0.00    +0.000 A 
ATOM     21  C   UNL     1      48.021   5.931  15.184  0.00  0.00    +0.000 A 
BRANCH  16  23
ATOM     22  C   UNL     1      46.388   7.732  13.025  0.00  0.00    +0.000 C 
ATOM     23  O   UNL     1      47.565   6.927  13.063  0.00  0.00    +0.000 OA
ENDBRANCH  16  23
BRANCH  21  24
ATOM     24  O   UNL     1      48.614   6.992  15.800  0.00  0.00    +0.000 OA
ATOM     25  C   UNL     1      49.805   7.556  15.269  0.00  0.00    +0.000 C 
ENDBRANCH  21  24
ENDBRANCH  15  20
ENDBRANCH   1  15
TORSDOF 5
ENDMDL
