MODEL 1
REMARK VINA RESULT:    -8.221      0.000      0.000
REMARK INTER + INTRA:         -11.618
REMARK INTER:                 -10.624
REMARK INTRA:                  -0.994
REMARK UNBOUND:                -0.994
REMARK  Name = 
REMARK  5 active torsions:
REMARK  status: ('A' for Active; 'I' for Inactive)
REMARK    1  A    between atoms: C_2  and  C_4
REMARK    2  A    between atoms: N_8  and  C_9
REMARK    3  A    between atoms: C_9  and  C_10
REMARK    4  A    between atoms: C_14  and  C_15
REMARK    5  A    between atoms: C_18  and  C_19
REMARK                            x       y       z     vdW  Elec       q    Type
REMARK                         _______ _______ _______ _____ _____    ______ ____
ROOT
ATOM      1  C   UNL     1      44.260   4.282  11.601  0.00  0.00    +0.000 C 
ATOM      2  C   UNL     1      42.900   4.507  12.265  0.00  0.00    +0.000 C 
ATOM      3  C   UNL     1      43.494   5.591  11.447  0.00  0.00    +0.000 C 
ATOM      4  F   UNL     1      42.860   5.893  10.259  0.00  0.00    +0.000 F 
ENDROOT
BRANCH   1   9
ATOM      5  C   UNL     1      46.690   2.663   7.289  0.00  0.00    +0.000 A 
ATOM      6  C   UNL     1      46.348   3.954   7.671  0.00  0.00    +0.000 A 
ATOM      7  C   UNL     1      45.561   4.150   8.805  0.00  0.00    +0.000 A 
ATOM      8  C   UNL     1      45.126   3.053   9.537  0.00  0.00    +0.000 A 
ATOM      9  N   UNL     1      44.273   3.166  10.638  0.00  0.00    +0.000 N 
ATOM     10  N   UNL     1      45.442   1.792   9.175  0.00  0.00    +0.000 NA
ATOM     11  C   UNL     1      46.202   1.617   8.056  0.00  0.00    +0.000 A 
ATOM     12  H   UNL     1      44.168   2.221  11.009  0.00  0.00    +0.000 HD
BRANCH   5  14
ATOM     13  N   UNL     1      47.325   3.233   5.018  0.00  0.00    +0.000 N 
ATOM     14  C   UNL     1      47.492   2.383   6.079  0.00  0.00    +0.000 C 
ATOM     15  O   UNL     1      48.278   1.453   6.032  0.00  0.00    +0.000 OA
ATOM     16  H   UNL     1      47.895   3.069   4.202  0.00  0.00    +0.000 HD
ATOM     17  H   UNL     1      46.853   4.125   5.091  0.00  0.00    +0.000 HD
ENDBRANCH   5  14
ENDBRANCH   1   9
BRANCH   1  18
ATOM     18  C   UNL     1      45.505   4.363  12.477  0.00  0.00    +0.000 A 
ATOM     19  C   UNL     1      46.043   3.244  13.109  0.00  0.00    +0.000 A 
ATOM     20  N   UNL     1      47.086   3.269  13.970  0.00  0.00    +0.000 NA
ATOM     21  C   UNL     1      47.635   4.480  14.223  0.00  0.00    +0.000 A 
ATOM     22  C   UNL     1      47.226   5.680  13.645  0.00  0.00    +0.000 A 
ATOM     23  C   UNL     1      46.147   5.584  12.749  0.00  0.00    +0.000 A 
BRANCH  22  24
ATOM     24  C   UNL     1      47.840   6.973  13.982  0.00  0.00    +0.000 A 
ATOM     25  C   UNL     1      48.854   7.131  14.933  0.00  0.00    +0.000 A 
ATOM     26  N   UNL     1      49.399   8.329  15.273  0.00  0.00    +0.000 NA
ATOM     27  C   UNL     1      48.880   9.398  14.608  0.00  0.00    +0.000 A 
ATOM     28  C   UNL     1      47.882   9.266  13.658  0.00  0.00    +0.000 A 
ATOM     29  N   UNL     1      47.350   8.058  13.323  0.00  0.00    +0.000 NA
BRANCH  27  30
ATOM     30  C   UNL     1      49.425  10.745  14.925  0.00  0.00    +0.000 C 
ATOM     31  N   UNL     1      48.672  11.516  15.769  0.00  0.00    +0.000 N 
ATOM     32  O   UNL     1      50.484  11.146  14.459  0.00  0.00    +0.000 OA
ATOM     33  H   UNL     1      47.801  11.163  16.148  0.00  0.00    +0.000 HD
ATOM     34  H   UNL     1      48.999  12.439  16.023  0.00  0.00    +0.000 HD
ENDBRANCH  27  30
ENDBRANCH  22  24
ENDBRANCH   1  18
TORSDOF 5
ENDMDL
MODEL 2
REMARK VINA RESULT:    -7.127      4.597      8.845
REMARK INTER + INTRA:         -10.204
REMARK INTER:                  -9.165
REMARK INTRA:                  -1.040
REMARK UNBOUND:                -0.994
REMARK  Name = 
REMARK  5 active torsions:
REMARK  status: ('A' for Active; 'I' for Inactive)
REMARK    1  A    between atoms: C_2  and  C_4
REMARK    2  A    between atoms: N_8  and  C_9
REMARK    3  A    between atoms: C_9  and  C_10
REMARK    4  A    between atoms: C_14  and  C_15
REMARK    5  A    between atoms: C_18  and  C_19
REMARK                            x       y       z     vdW  Elec       q    Type
REMARK                         _______ _______ _______ _____ _____    ______ ____
ROOT
ATOM      1  C   UNL     1      49.273   6.891  17.363  0.00  0.00    +0.000 C 
ATOM      2  C   UNL     1      48.778   8.144  18.087  0.00  0.00    +0.000 C 
ATOM      3  C   UNL     1      47.914   6.941  18.050  0.00  0.00    +0.000 C 
ATOM      4  F   UNL     1      47.711   6.281  19.245  0.00  0.00    +0.000 F 
ENDROOT
BRANCH   1   9
ATOM      5  C   UNL     1      51.911   2.415  17.719  0.00  0.00    +0.000 A 
ATOM      6  C   UNL     1      50.539   2.627  17.731  0.00  0.00    +0.000 A 
ATOM      7  C   UNL     1      50.045   3.931  17.774  0.00  0.00    +0.000 A 
ATOM      8  C   UNL     1      50.930   5.000  17.808  0.00  0.00    +0.000 A 
ATOM      9  N   UNL     1      50.512   6.327  17.929  0.00  0.00    +0.000 N 
ATOM     10  N   UNL     1      52.267   4.811  17.806  0.00  0.00    +0.000 NA
ATOM     11  C   UNL     1      52.734   3.530  17.776  0.00  0.00    +0.000 A 
ATOM     12  H   UNL     1      51.358   6.895  17.871  0.00  0.00    +0.000 HD
BRANCH   5  14
ATOM     13  N   UNL     1      51.710   0.039  18.163  0.00  0.00    +0.000 N 
ATOM     14  C   UNL     1      52.501   1.059  17.709  0.00  0.00    +0.000 C 
ATOM     15  O   UNL     1      53.631   0.855  17.298  0.00  0.00    +0.000 OA
ATOM     16  H   UNL     1      52.093  -0.894  18.126  0.00  0.00    +0.000 HD
ATOM     17  H   UNL     1      50.712   0.132  18.307  0.00  0.00    +0.000 HD
ENDBRANCH   5  14
ENDBRANCH   1   9
BRANCH   1  18
ATOM     18  C   UNL     1      49.226   6.881  15.839  0.00  0.00    +0.000 A 
ATOM     19  C   UNL     1      50.166   7.553  15.061  0.00  0.00    +0.000 A 
ATOM     20  N   UNL     1      50.123   7.658  13.714  0.00  0.00    +0.000 NA
ATOM     21  C   UNL     1      49.081   7.058  13.092  0.00  0.00    +0.000 A 
ATOM     22  C   UNL     1      48.082   6.326  13.730  0.00  0.00    +0.000 A 
ATOM     23  C   UNL     1      48.193   6.243  15.130  0.00  0.00    +0.000 A 
BRANCH  22  24
ATOM     24  C   UNL     1      46.954   5.721  13.006  0.00  0.00    +0.000 A 
ATOM     25  C   UNL     1      46.205   4.642  13.490  0.00  0.00    +0.000 A 
ATOM     26  N   UNL     1      45.185   4.057  12.808  0.00  0.00    +0.000 NA
ATOM     27  C   UNL     1      44.930   4.605  11.588  0.00  0.00    +0.000 A 
ATOM     28  C   UNL     1      45.652   5.676  11.091  0.00  0.00    +0.000 A 
ATOM     29  N   UNL     1      46.667   6.257  11.788  0.00  0.00    +0.000 NA
BRANCH  27  30
ATOM     30  C   UNL     1      43.828   4.019  10.780  0.00  0.00    +0.000 C 
ATOM     31  N   UNL     1      43.750   4.433   9.477  0.00  0.00    +0.000 N 
ATOM     32  O   UNL     1      43.034   3.213  11.248  0.00  0.00    +0.000 OA
ATOM     33  H   UNL     1      44.421   5.096   9.108  0.00  0.00    +0.000 HD
ATOM     34  H   UNL     1      43.023   4.061   8.881  0.00  0.00    +0.000 HD
ENDBRANCH  27  30
ENDBRANCH  22  24
ENDBRANCH   1  18
TORSDOF 5
ENDMDL
MODEL 3
REMARK VINA RESULT:    -6.675      3.794      9.079
REMARK INTER + INTRA:          -9.620
REMARK INTER:                  -8.724
REMARK INTRA:                  -0.896
REMARK UNBOUND:                -0.994
REMARK  Name = 
REMARK  5 active torsions:
REMARK  status: ('A' for Active; 'I' for Inactive)
REMARK    1  A    between atoms: C_2  and  C_4
REMARK    2  A    between atoms: N_8  and  C_9
REMARK    3  A    between atoms: C_9  and  C_10
REMARK    4  A    between atoms: C_14  and  C_15
REMARK    5  A    between atoms: C_18  and  C_19
REMARK                            x       y       z     vdW  Elec       q    Type
REMARK                         _______ _______ _______ _____ _____    ______ ____
ROOT
ATOM      1  C   UNL     1      50.525   8.426  13.479  0.00  0.00    +0.000 C 
ATOM      2  C   UNL     1      51.697   8.518  12.499  0.00  0.00    +0.000 C 
ATOM      3  C   UNL     1      51.362   9.692  13.339  0.00  0.00    +0.000 C 
ATOM      4  F   UNL     1      52.272  10.039  14.317  0.00  0.00    +0.000 F 
ENDROOT
BRANCH   1   9
ATOM      5  C   UNL     1      48.423   6.746  17.937  0.00  0.00    +0.000 A 
ATOM      6  C   UNL     1      48.562   8.045  17.469  0.00  0.00    +0.000 A 
ATOM      7  C   UNL     1      49.296   8.283  16.306  0.00  0.00    +0.000 A 
ATOM      8  C   UNL     1      49.880   7.218  15.634  0.00  0.00    +0.000 A 
ATOM      9  N   UNL     1      50.692   7.384  14.509  0.00  0.00    +0.000 N 
ATOM     10  N   UNL     1      49.762   5.949  16.081  0.00  0.00    +0.000 NA
ATOM     11  C   UNL     1      49.052   5.736  17.225  0.00  0.00    +0.000 A 
ATOM     12  H   UNL     1      50.933   6.444  14.194  0.00  0.00    +0.000 HD
BRANCH   5  14
ATOM     13  N   UNL     1      46.711   5.474  19.093  0.00  0.00    +0.000 N 
ATOM     14  C   UNL     1      47.688   6.428  19.181  0.00  0.00    +0.000 C 
ATOM     15  O   UNL     1      47.952   6.975  20.238  0.00  0.00    +0.000 OA
ATOM     16  H   UNL     1      46.229   5.227  19.944  0.00  0.00    +0.000 HD
ATOM     17  H   UNL     1      46.609   4.855  18.298  0.00  0.00    +0.000 HD
ENDBRANCH   5  14
ENDBRANCH   1   9
BRANCH   1  18
ATOM     18  C   UNL     1      49.112   8.521  12.914  0.00  0.00    +0.000 A 
ATOM     19  C   UNL     1      48.447   9.737  12.774  0.00  0.00    +0.000 A 
ATOM     20  N   UNL     1      47.164   9.875  12.368  0.00  0.00    +0.000 NA
ATOM     21  C   UNL     1      46.493   8.736  12.081  0.00  0.00    +0.000 A 
ATOM     22  C   UNL     1      47.032   7.452  12.144  0.00  0.00    +0.000 A 
ATOM     23  C   UNL     1      48.374   7.378  12.559  0.00  0.00    +0.000 A 
BRANCH  22  24
ATOM     24  C   UNL     1      46.245   6.245  11.851  0.00  0.00    +0.000 A 
ATOM     25  C   UNL     1      46.022   5.216  12.773  0.00  0.00    +0.000 A 
ATOM     26  N   UNL     1      45.325   4.083  12.494  0.00  0.00    +0.000 NA
ATOM     27  C   UNL     1      44.844   4.010  11.223  0.00  0.00    +0.000 A 
ATOM     28  C   UNL     1      45.045   5.018  10.295  0.00  0.00    +0.000 A 
ATOM     29  N   UNL     1      45.739   6.151  10.591  0.00  0.00    +0.000 NA
BRANCH  27  30
ATOM     30  C   UNL     1      44.070   2.799  10.841  0.00  0.00    +0.000 C 
ATOM     31  N   UNL     1      44.568   2.073   9.792  0.00  0.00    +0.000 N 
ATOM     32  O   UNL     1      43.048   2.466  11.427  0.00  0.00    +0.000 OA
ATOM     33  H   UNL     1      45.419   2.361   9.324  0.00  0.00    +0.000 HD
ATOM     34  H   UNL     1      44.084   1.235   9.494  0.00  0.00    +0.000 HD
ENDBRANCH  27  30
ENDBRANCH  22  24
ENDBRANCH   1  18
TORSDOF 5
ENDMDL
MODEL 4
REMARK VINA RESULT:    -6.480      2.314      8.101
REMARK INTER + INTRA:          -9.369
REMARK INTER:                  -9.441
REMARK INTRA:                   0.072
REMARK UNBOUND:                -0.994
REMARK  Name = 
REMARK  5 active torsions:
REMARK  status: ('A' for Active; 'I' for Inactive)
REMARK    1  A    between atoms: C_2  and  C_4
REMARK    2  A    between atoms: N_8  and  C_9
REMARK    3  A    between atoms: C_9  and  C_10
REMARK    4  A    between atoms: C_14  and  C_15
REMARK    5  A    between atoms: C_18  and  C_19
REMARK                            x       y       z     vdW  Elec       q    Type
REMARK                         _______ _______ _______ _____ _____    ______ ____
ROOT
ATOM      1  C   UNL     1      44.902   8.220  12.071  0.00  0.00    +0.000 C 
ATOM      2  C   UNL     1      45.419   9.146  10.968  0.00  0.00    +0.000 C 
ATOM      3  C   UNL     1      44.096   9.416  11.579  0.00  0.00    +0.000 C 
ATOM      4  F   UNL     1      43.988  10.552  12.357  0.00  0.00    +0.000 F 
ENDROOT
BRANCH   1   9
ATOM      5  C   UNL     1      49.917   8.182  13.474  0.00  0.00    +0.000 A 
ATOM      6  C   UNL     1      49.309   7.583  12.379  0.00  0.00    +0.000 A 
ATOM      7  C   UNL     1      47.918   7.594  12.273  0.00  0.00    +0.000 A 
ATOM      8  C   UNL     1      47.159   8.200  13.266  0.00  0.00    +0.000 A 
ATOM      9  N   UNL     1      45.762   8.184  13.268  0.00  0.00    +0.000 N 
ATOM     10  N   UNL     1      47.734   8.779  14.341  0.00  0.00    +0.000 NA
ATOM     11  C   UNL     1      49.094   8.749  14.436  0.00  0.00    +0.000 A 
ATOM     12  H   UNL     1      45.476   8.745  14.071  0.00  0.00    +0.000 HD
BRANCH   5  14
ATOM     13  N   UNL     1      51.856   7.559  14.792  0.00  0.00    +0.000 N 
ATOM     14  C   UNL     1      51.384   8.176  13.665  0.00  0.00    +0.000 C 
ATOM     15  O   UNL     1      52.138   8.679  12.850  0.00  0.00    +0.000 OA
ATOM     16  H   UNL     1      52.857   7.519  14.911  0.00  0.00    +0.000 HD
ATOM     17  H   UNL     1      51.289   6.953  15.372  0.00  0.00    +0.000 HD
ENDBRANCH   5  14
ENDBRANCH   1   9
BRANCH   1  18
ATOM     18  C   UNL     1      44.352   6.858  11.660  0.00  0.00    +0.000 A 
ATOM     19  C   UNL     1      43.252   6.280  12.289  0.00  0.00    +0.000 A 
ATOM     20  N   UNL     1      42.778   5.040  12.033  0.00  0.00    +0.000 NA
ATOM     21  C   UNL     1      43.433   4.322  11.092  0.00  0.00    +0.000 A 
ATOM     22  C   UNL     1      44.527   4.776  10.358  0.00  0.00    +0.000 A 
ATOM     23  C   UNL     1      44.962   6.079  10.662  0.00  0.00    +0.000 A 
BRANCH  22  24
ATOM     24  C   UNL     1      45.222   3.940   9.367  0.00  0.00    +0.000 A 
ATOM     25  C   UNL     1      45.216   2.540   9.387  0.00  0.00    +0.000 A 
ATOM     26  N   UNL     1      45.886   1.764   8.494  0.00  0.00    +0.000 NA
ATOM     27  C   UNL     1      46.582   2.456   7.551  0.00  0.00    +0.000 A 
ATOM     28  C   UNL     1      46.597   3.840   7.507  0.00  0.00    +0.000 A 
ATOM     29  N   UNL     1      45.916   4.604   8.404  0.00  0.00    +0.000 NA
BRANCH  27  30
ATOM     30  C   UNL     1      47.342   1.677   6.537  0.00  0.00    +0.000 C 
ATOM     31  N   UNL     1      48.285   2.370   5.827  0.00  0.00    +0.000 N 
ATOM     32  O   UNL     1      47.139   0.484   6.346  0.00  0.00    +0.000 OA
ATOM     33  H   UNL     1      48.441   3.355   6.006  0.00  0.00    +0.000 HD
ATOM     34  H   UNL     1      48.835   1.887   5.129  0.00  0.00    +0.000 HD
ENDBRANCH  27  30
ENDBRANCH  22  24
ENDBRANCH   1  18
TORSDOF 5
ENDMDL
MODEL 5
REMARK VINA RESULT:    -5.567      4.104      6.792
REMARK INTER + INTRA:          -8.189
REMARK INTER:                  -8.232
REMARK INTRA:                   0.044
REMARK UNBOUND:                -0.994
REMARK  Name = 
REMARK  5 active torsions:
REMARK  status: ('A' for Active; 'I' for Inactive)
REMARK    1  A    between atoms: C_2  and  C_4
REMARK    2  A    between atoms: N_8  and  C_9
REMARK    3  A    between atoms: C_9  and  C_10
REMARK    4  A    between atoms: C_14  and  C_15
REMARK    5  A    between atoms: C_18  and  C_19
REMARK                            x       y       z     vdW  Elec       q    Type
REMARK                         _______ _______ _______ _____ _____    ______ ____
ROOT
ATOM      1  C   UNL     1      46.024   4.761  12.811  0.00  0.00    +0.000 C 
ATOM      2  C   UNL     1      44.592   4.419  13.229  0.00  0.00    +0.000 C 
ATOM      3  C   UNL     1      44.982   4.286  11.805  0.00  0.00    +0.000 C 
ATOM      4  F   UNL     1      45.039   3.006  11.292  0.00  0.00    +0.000 F 
ENDROOT
BRANCH   1   9
ATOM      5  C   UNL     1      48.305   3.978  17.426  0.00  0.00    +0.000 A 
ATOM      6  C   UNL     1      47.870   5.165  16.853  0.00  0.00    +0.000 A 
ATOM      7  C   UNL     1      47.418   5.168  15.534  0.00  0.00    +0.000 A 
ATOM      8  C   UNL     1      47.413   3.984  14.808  0.00  0.00    +0.000 A 
ATOM      9  N   UNL     1      47.048   3.923  13.460  0.00  0.00    +0.000 N 
ATOM     10  N   UNL     1      47.840   2.823  15.347  0.00  0.00    +0.000 NA
ATOM     11  C   UNL     1      48.290   2.840  16.634  0.00  0.00    +0.000 A 
ATOM     12  H   UNL     1      47.082   2.935  13.205  0.00  0.00    +0.000 HD
BRANCH   5  14
ATOM     13  N   UNL     1      48.264   2.979  19.636  0.00  0.00    +0.000 N 
ATOM     14  C   UNL     1      48.828   3.911  18.808  0.00  0.00    +0.000 C 
ATOM     15  O   UNL     1      49.730   4.638  19.187  0.00  0.00    +0.000 OA
ATOM     16  H   UNL     1      48.639   2.904  20.570  0.00  0.00    +0.000 HD
ATOM     17  H   UNL     1      47.674   2.226  19.304  0.00  0.00    +0.000 HD
ENDBRANCH   5  14
ENDBRANCH   1   9
BRANCH   1  18
ATOM     18  C   UNL     1      46.404   6.233  12.700  0.00  0.00    +0.000 A 
ATOM     19  C   UNL     1      45.471   7.256  12.851  0.00  0.00    +0.000 A 
ATOM     20  N   UNL     1      45.728   8.571  12.672  0.00  0.00    +0.000 NA
ATOM     21  C   UNL     1      46.993   8.899  12.320  0.00  0.00    +0.000 A 
ATOM     22  C   UNL     1      48.039   7.993  12.161  0.00  0.00    +0.000 A 
ATOM     23  C   UNL     1      47.709   6.643  12.376  0.00  0.00    +0.000 A 
BRANCH  22  24
ATOM     24  C   UNL     1      49.389   8.403  11.746  0.00  0.00    +0.000 A 
ATOM     25  C   UNL     1      49.866   9.716  11.831  0.00  0.00    +0.000 A 
ATOM     26  N   UNL     1      51.100  10.105  11.415  0.00  0.00    +0.000 NA
ATOM     27  C   UNL     1      51.866   9.107  10.896  0.00  0.00    +0.000 A 
ATOM     28  C   UNL     1      51.419   7.800  10.808  0.00  0.00    +0.000 A 
ATOM     29  N   UNL     1      50.183   7.423  11.234  0.00  0.00    +0.000 NA
BRANCH  27  30
ATOM     30  C   UNL     1      53.231   9.454  10.419  0.00  0.00    +0.000 C 
ATOM     31  N   UNL     1      53.297  10.310   9.352  0.00  0.00    +0.000 N 
ATOM     32  O   UNL     1      54.240   9.003  10.945  0.00  0.00    +0.000 OA
ATOM     33  H   UNL     1      52.450  10.677   8.934  0.00  0.00    +0.000 HD
ATOM     34  H   UNL     1      54.201  10.584   8.991  0.00  0.00    +0.000 HD
ENDBRANCH  27  30
ENDBRANCH  22  24
ENDBRANCH   1  18
TORSDOF 5
ENDMDL
MODEL 6
REMARK VINA RESULT:    -5.542      5.431      7.698
REMARK INTER + INTRA:          -8.156
REMARK INTER:                  -8.207
REMARK INTRA:                   0.051
REMARK UNBOUND:                -0.994
REMARK  Name = 
REMARK  5 active torsions:
REMARK  status: ('A' for Active; 'I' for Inactive)
REMARK    1  A    between atoms: C_2  and  C_4
REMARK    2  A    between atoms: N_8  and  C_9
REMARK    3  A    between atoms: C_9  and  C_10
REMARK    4  A    between atoms: C_14  and  C_15
REMARK    5  A    between atoms: C_18  and  C_19
REMARK                            x       y       z     vdW  Elec       q    Type
REMARK                         _______ _______ _______ _____ _____    ______ ____
ROOT
ATOM      1  C   UNL     1      52.460   8.786  11.208  0.00  0.00    +0.000 C 
ATOM      2  C   UNL     1      53.242   9.723  10.284  0.00  0.00    +0.000 C 
ATOM      3  C   UNL     1      53.340   9.904  11.752  0.00  0.00    +0.000 C 
ATOM      4  F   UNL     1      54.556   9.614  12.336  0.00  0.00    +0.000 F 
ENDROOT
BRANCH   1   9
ATOM      5  C   UNL     1      53.419   5.154   7.601  0.00  0.00    +0.000 A 
ATOM      6  C   UNL     1      52.489   6.184   7.582  0.00  0.00    +0.000 A 
ATOM      7  C   UNL     1      52.295   6.958   8.725  0.00  0.00    +0.000 A 
ATOM      8  C   UNL     1      53.033   6.687   9.871  0.00  0.00    +0.000 A 
ATOM      9  N   UNL     1      52.840   7.367  11.076  0.00  0.00    +0.000 N 
ATOM     10  N   UNL     1      53.935   5.683   9.909  0.00  0.00    +0.000 NA
ATOM     11  C   UNL     1      54.102   4.928   8.786  0.00  0.00    +0.000 A 
ATOM     12  H   UNL     1      53.546   7.007  11.718  0.00  0.00    +0.000 HD
BRANCH   5  14
ATOM     13  N   UNL     1      53.387   2.941   6.607  0.00  0.00    +0.000 N 
ATOM     14  C   UNL     1      53.648   4.274   6.435  0.00  0.00    +0.000 C 
ATOM     15  O   UNL     1      54.033   4.715   5.366  0.00  0.00    +0.000 OA
ATOM     16  H   UNL     1      53.507   2.340   5.806  0.00  0.00    +0.000 HD
ATOM     17  H   UNL     1      52.870   2.575   7.397  0.00  0.00    +0.000 HD
ENDBRANCH   5  14
ENDBRANCH   1   9
BRANCH   1  18
ATOM     18  C   UNL     1      50.959   9.016  11.354  0.00  0.00    +0.000 A 
ATOM     19  C   UNL     1      50.403  10.292  11.392  0.00  0.00    +0.000 A 
ATOM     20  N   UNL     1      49.096  10.560  11.614  0.00  0.00    +0.000 NA
ATOM     21  C   UNL     1      48.284   9.495  11.810  0.00  0.00    +0.000 A 
ATOM     22  C   UNL     1      48.688   8.163  11.771  0.00  0.00    +0.000 A 
ATOM     23  C   UNL     1      50.056   7.952  11.522  0.00  0.00    +0.000 A 
BRANCH  22  24
ATOM     24  C   UNL     1      47.766   7.045  12.023  0.00  0.00    +0.000 A 
ATOM     25  C   UNL     1      46.766   6.642  11.130  0.00  0.00    +0.000 A 
ATOM     26  N   UNL     1      45.889   5.633  11.375  0.00  0.00    +0.000 NA
ATOM     27  C   UNL     1      46.051   5.020  12.579  0.00  0.00    +0.000 A 
ATOM     28  C   UNL     1      47.037   5.395  13.476  0.00  0.00    +0.000 A 
ATOM     29  N   UNL     1      47.913   6.404  13.215  0.00  0.00    +0.000 NA
BRANCH  27  30
ATOM     30  C   UNL     1      45.129   3.904  12.921  0.00  0.00    +0.000 C 
ATOM     31  N   UNL     1      45.439   2.681  12.389  0.00  0.00    +0.000 N 
ATOM     32  O   UNL     1      44.148   4.066  13.636  0.00  0.00    +0.000 OA
ATOM     33  H   UNL     1      46.258   2.568  11.805  0.00  0.00    +0.000 HD
ATOM     34  H   UNL     1      44.848   1.886  12.596  0.00  0.00    +0.000 HD
ENDBRANCH  27  30
ENDBRANCH  22  24
ENDBRANCH   1  18
TORSDOF 5
ENDMDL
