MODEL 1
REMARK VINA RESULT:    -8.021      0.000      0.000
REMARK INTER + INTRA:         -12.217
REMARK INTER:                 -11.069
REMARK INTRA:                  -1.148
REMARK UNBOUND:                -1.148
REMARK  Name = 
REMARK  8 active torsions:
REMARK  status: ('A' for Active; 'I' for Inactive)
REMARK    1  A    between atoms: C_1  and  C_2
REMARK    2  A    between atoms: C_2  and  N_3
REMARK    3  A    between atoms: N_3  and  C_4
REMARK    4  A    between atoms: C_4  and  C_5
REMARK    5  A    between atoms: C_8  and  C_9
REMARK    6  A    between atoms: C_9  and  O_10
REMARK    7  A    between atoms: C_9  and  C_11
REMARK    8  A    between atoms: C_20  and  C_22
REMARK                            x       y       z     vdW  Elec       q    Type
REMARK                         _______ _______ _______ _____ _____    ______ ____
ROOT
ATOM      1  C   UNL     1      47.034   6.262  12.266  0.00  0.00    +0.000 C 
ENDROOT
BRANCH   1   2
ATOM      2  C   UNL     1      47.175   5.773  13.685  0.00  0.00    +0.000 A 
ATOM      3  C   UNL     1      48.080   6.389  14.562  0.00  0.00    +0.000 A 
ATOM      4  C   UNL     1      48.407   5.780  15.771  0.00  0.00    +0.000 A 
ATOM      5  C   UNL     1      47.836   4.548  16.120  0.00  0.00    +0.000 A 
ATOM      6  C   UNL     1      46.820   4.018  15.310  0.00  0.00    +0.000 A 
ATOM      7  C   UNL     1      46.493   4.627  14.100  0.00  0.00    +0.000 A 
BRANCH   5   8
ATOM      8  C   UNL     1      48.338   3.816  17.349  0.00  0.00    +0.000 C 
BRANCH   8   9
ATOM      9  C   UNL     1      49.406   2.735  17.015  0.00  0.00    +0.000 C 
ATOM     10  O   UNL     1      49.128   1.797  16.260  0.00  0.00    +0.000 OA
ATOM     11  N   UNL     1      50.659   2.858  17.587  0.00  0.00    +0.000 N 
ATOM     12  C   UNL     1      51.136   3.925  18.447  0.00  0.00    +0.000 C 
ATOM     13  C   UNL     1      52.649   3.839  18.323  0.00  0.00    +0.000 C 
ATOM     14  C   UNL     1      52.908   2.347  18.149  0.00  0.00    +0.000 C 
ATOM     15  C   UNL     1      51.669   1.826  17.426  0.00  0.00    +0.000 C 
ENDBRANCH   8   9
BRANCH   8  16
ATOM     16  O   UNL     1      47.201   3.285  18.018  0.00  0.00    +0.000 OA
ATOM     17  H   UNL     1      47.424   3.306  18.965  0.00  0.00    +0.000 HD
ENDBRANCH   8  16
ENDBRANCH   5   8
ENDBRANCH   1   2
BRANCH   1  18
ATOM     18  N   UNL     1      45.871   7.132  12.005  0.00  0.00    +0.000 N 
ATOM     19  C   UNL     1      44.626   6.659  11.562  0.00  0.00    +0.000 C 
ATOM     20  O   UNL     1      43.691   7.426  11.333  0.00  0.00    +0.000 OA
BRANCH  19  21
ATOM     21  C   UNL     1      44.410   5.220  11.415  0.00  0.00    +0.000 A 
ATOM     22  C   UNL     1      43.654   4.448  12.279  0.00  0.00    +0.000 A 
ATOM     23  S   UNL     1      43.467   2.834  11.752  0.00  0.00    +0.000 S 
ATOM     24  C   UNL     1      44.296   3.156  10.300  0.00  0.00    +0.000 A 
ATOM     25  N   UNL     1      44.408   2.215   9.327  0.00  0.00    +0.000 NA
ATOM     26  C   UNL     1      45.010   2.626   8.264  0.00  0.00    +0.000 A 
ATOM     27  N   UNL     1      45.547   3.880   8.095  0.00  0.00    +0.000 N 
ATOM     28  C   UNL     1      45.565   4.825   9.099  0.00  0.00    +0.000 A 
ATOM     29  O   UNL     1      46.245   5.841   9.002  0.00  0.00    +0.000 OA
ATOM     30  C   UNL     1      44.794   4.445  10.265  0.00  0.00    +0.000 A 
ATOM     31  H   UNL     1      46.065   4.115   7.261  0.00  0.00    +0.000 HD
ENDBRANCH  19  21
BRANCH  18  33
ATOM     32  C   UNL     1      47.364   9.129  12.082  0.00  0.00    +0.000 C 
ATOM     33  C   UNL     1      45.952   8.580  12.247  0.00  0.00    +0.000 C 
ENDBRANCH  18  33
ENDBRANCH   1  18
TORSDOF 7
ENDMDL
MODEL 2
REMARK VINA RESULT:    -7.953      1.339      2.008
REMARK INTER + INTRA:         -12.123
REMARK INTER:                 -10.656
REMARK INTRA:                  -1.467
REMARK UNBOUND:                -1.148
REMARK  Name = 
REMARK  8 active torsions:
REMARK  status: ('A' for Active; 'I' for Inactive)
REMARK    1  A    between atoms: C_1  and  C_2
REMARK    2  A    between atoms: C_2  and  N_3
REMARK    3  A    between atoms: N_3  and  C_4
REMARK    4  A    between atoms: C_4  and  C_5
REMARK    5  A    between atoms: C_8  and  C_9
REMARK    6  A    between atoms: C_9  and  O_10
REMARK    7  A    between atoms: C_9  and  C_11
REMARK    8  A    between atoms: C_20  and  C_22
REMARK                            x       y       z     vdW  Elec       q    Type
REMARK                         _______ _______ _______ _____ _____    ______ ____
ROOT
ATOM      1  C   UNL     1      47.396   6.545  12.450  0.00  0.00    +0.000 C 
ENDROOT
BRANCH   1   2
ATOM      2  C   UNL     1      47.393   5.878  13.801  0.00  0.00    +0.000 A 
ATOM      3  C   UNL     1      48.225   6.349  14.827  0.00  0.00    +0.000 A 
ATOM      4  C   UNL     1      48.424   5.583  15.973  0.00  0.00    +0.000 A 
ATOM      5  C   UNL     1      47.797   4.337  16.109  0.00  0.00    +0.000 A 
ATOM      6  C   UNL     1      46.850   3.946  15.150  0.00  0.00    +0.000 A 
ATOM      7  C   UNL     1      46.651   4.712  14.004  0.00  0.00    +0.000 A 
BRANCH   5   8
ATOM      8  C   UNL     1      48.167   3.440  17.275  0.00  0.00    +0.000 C 
BRANCH   8   9
ATOM      9  C   UNL     1      49.357   2.492  16.955  0.00  0.00    +0.000 C 
ATOM     10  O   UNL     1      49.208   1.544  16.176  0.00  0.00    +0.000 OA
ATOM     11  N   UNL     1      50.573   2.742  17.565  0.00  0.00    +0.000 N 
ATOM     12  C   UNL     1      50.903   3.838  18.458  0.00  0.00    +0.000 C 
ATOM     13  C   UNL     1      52.419   3.923  18.377  0.00  0.00    +0.000 C 
ATOM     14  C   UNL     1      52.848   2.473  18.186  0.00  0.00    +0.000 C 
ATOM     15  C   UNL     1      51.696   1.832  17.417  0.00  0.00    +0.000 C 
ENDBRANCH   8   9
BRANCH   8  16
ATOM     16  O   UNL     1      46.989   2.742  17.660  0.00  0.00    +0.000 OA
ATOM     17  H   UNL     1      46.303   3.026  17.029  0.00  0.00    +0.000 HD
ENDBRANCH   8  16
ENDBRANCH   5   8
ENDBRANCH   1   2
BRANCH   1  18
ATOM     18  N   UNL     1      46.336   7.550  12.234  0.00  0.00    +0.000 N 
ATOM     19  C   UNL     1      45.226   7.348  11.398  0.00  0.00    +0.000 C 
ATOM     20  O   UNL     1      44.380   8.225  11.230  0.00  0.00    +0.000 OA
BRANCH  19  21
ATOM     21  C   UNL     1      45.035   6.050  10.751  0.00  0.00    +0.000 A 
ATOM     22  C   UNL     1      45.619   5.678   9.553  0.00  0.00    +0.000 A 
ATOM     23  S   UNL     1      45.324   4.046   9.139  0.00  0.00    +0.000 S 
ATOM     24  C   UNL     1      44.504   3.767  10.605  0.00  0.00    +0.000 A 
ATOM     25  N   UNL     1      44.070   2.526  10.945  0.00  0.00    +0.000 NA
ATOM     26  C   UNL     1      43.522   2.462  12.110  0.00  0.00    +0.000 A 
ATOM     27  N   UNL     1      43.330   3.529  12.954  0.00  0.00    +0.000 N 
ATOM     28  C   UNL     1      43.643   4.824  12.599  0.00  0.00    +0.000 A 
ATOM     29  O   UNL     1      43.256   5.776  13.268  0.00  0.00    +0.000 OA
ATOM     30  C   UNL     1      44.370   4.923  11.350  0.00  0.00    +0.000 A 
ATOM     31  H   UNL     1      42.832   3.420  13.825  0.00  0.00    +0.000 HD
ENDBRANCH  19  21
BRANCH  18  33
ATOM     32  C   UNL     1      47.410   9.798  12.370  0.00  0.00    +0.000 C 
ATOM     33  C   UNL     1      46.373   8.839  12.942  0.00  0.00    +0.000 C 
ENDBRANCH  18  33
ENDBRANCH   1  18
TORSDOF 7
ENDMDL
MODEL 3
REMARK VINA RESULT:    -7.644      3.162      8.284
REMARK INTER + INTRA:         -11.696
REMARK INTER:                 -10.524
REMARK INTRA:                  -1.171
REMARK UNBOUND:                -1.148
REMARK  Name = 
REMARK  8 active torsions:
REMARK  status: ('A' for Active; 'I' for Inactive)
REMARK    1  A    between atoms: C_1  and  C_2
REMARK    2  A    between atoms: C_2  and  N_3
REMARK    3  A    between atoms: N_3  and  C_4
REMARK    4  A    between atoms: C_4  and  C_5
REMARK    5  A    between atoms: C_8  and  C_9
REMARK    6  A    between atoms: C_9  and  O_10
REMARK    7  A    between atoms: C_9  and  C_11
REMARK    8  A    between atoms: C_20  and  C_22
REMARK                            x       y       z     vdW  Elec       q    Type
REMARK                         _______ _______ _______ _____ _____    ______ ____
ROOT
ATOM      1  C   UNL     1      47.419   7.757  14.054  0.00  0.00    +0.000 C 
ENDROOT
BRANCH   1   2
ATOM      2  C   UNL     1      46.513   6.914  13.195  0.00  0.00    +0.000 A 
ATOM      3  C   UNL     1      46.555   5.515  13.279  0.00  0.00    +0.000 A 
ATOM      4  C   UNL     1      45.925   4.737  12.310  0.00  0.00    +0.000 A 
ATOM      5  C   UNL     1      45.247   5.344  11.245  0.00  0.00    +0.000 A 
ATOM      6  C   UNL     1      45.080   6.738  11.255  0.00  0.00    +0.000 A 
ATOM      7  C   UNL     1      45.710   7.517  12.223  0.00  0.00    +0.000 A 
BRANCH   5   8
ATOM      8  C   UNL     1      44.725   4.488  10.108  0.00  0.00    +0.000 C 
BRANCH   8   9
ATOM      9  C   UNL     1      45.691   4.446   8.890  0.00  0.00    +0.000 C 
ATOM     10  O   UNL     1      46.221   5.484   8.478  0.00  0.00    +0.000 OA
ATOM     11  N   UNL     1      45.932   3.223   8.290  0.00  0.00    +0.000 N 
ATOM     12  C   UNL     1      45.420   1.926   8.693  0.00  0.00    +0.000 C 
ATOM     13  C   UNL     1      46.393   0.944   8.063  0.00  0.00    +0.000 C 
ATOM     14  C   UNL     1      46.797   1.627   6.762  0.00  0.00    +0.000 C 
ATOM     15  C   UNL     1      46.720   3.118   7.074  0.00  0.00    +0.000 C 
ENDBRANCH   8   9
BRANCH   8  16
ATOM     16  O   UNL     1      43.431   4.974   9.774  0.00  0.00    +0.000 OA
ATOM     17  H   UNL     1      43.266   4.668   8.864  0.00  0.00    +0.000 HD
ENDBRANCH   8  16
ENDBRANCH   5   8
ENDBRANCH   1   2
BRANCH   1  18
ATOM     18  N   UNL     1      48.865   7.512  13.885  0.00  0.00    +0.000 N 
ATOM     19  C   UNL     1      49.797   7.583  14.932  0.00  0.00    +0.000 C 
ATOM     20  O   UNL     1      50.998   7.395  14.739  0.00  0.00    +0.000 OA
BRANCH  19  21
ATOM     21  C   UNL     1      49.334   7.834  16.297  0.00  0.00    +0.000 A 
ATOM     22  C   UNL     1      49.390   9.063  16.931  0.00  0.00    +0.000 A 
ATOM     23  S   UNL     1      48.631   9.065  18.462  0.00  0.00    +0.000 S 
ATOM     24  C   UNL     1      48.111   7.456  18.266  0.00  0.00    +0.000 A 
ATOM     25  N   UNL     1      47.307   6.857  19.182  0.00  0.00    +0.000 NA
ATOM     26  C   UNL     1      46.949   5.660  18.866  0.00  0.00    +0.000 A 
ATOM     27  N   UNL     1      47.351   4.987  17.737  0.00  0.00    +0.000 N 
ATOM     28  C   UNL     1      48.262   5.509  16.843  0.00  0.00    +0.000 A 
ATOM     29  O   UNL     1      48.774   4.807  15.978  0.00  0.00    +0.000 OA
ATOM     30  C   UNL     1      48.595   6.896  17.099  0.00  0.00    +0.000 A 
ATOM     31  H   UNL     1      47.086   4.025  17.584  0.00  0.00    +0.000 HD
ENDBRANCH  19  21
BRANCH  18  33
ATOM     32  C   UNL     1      49.440   8.285  11.584  0.00  0.00    +0.000 C 
ATOM     33  C   UNL     1      49.409   7.128  12.574  0.00  0.00    +0.000 C 
ENDBRANCH  18  33
ENDBRANCH   1  18
TORSDOF 7
ENDMDL
MODEL 4
REMARK VINA RESULT:    -7.591      3.253      8.125
REMARK INTER + INTRA:         -11.623
REMARK INTER:                 -10.698
REMARK INTRA:                  -0.925
REMARK UNBOUND:                -1.148
REMARK  Name = 
REMARK  8 active torsions:
REMARK  status: ('A' for Active; 'I' for Inactive)
REMARK    1  A    between atoms: C_1  and  C_2
REMARK    2  A    between atoms: C_2  and  N_3
REMARK    3  A    between atoms: N_3  and  C_4
REMARK    4  A    between atoms: C_4  and  C_5
REMARK    5  A    between atoms: C_8  and  C_9
REMARK    6  A    between atoms: C_9  and  O_10
REMARK    7  A    between atoms: C_9  and  C_11
REMARK    8  A    between atoms: C_20  and  C_22
REMARK                            x       y       z     vdW  Elec       q    Type
REMARK                         _______ _______ _______ _____ _____    ______ ____
ROOT
ATOM      1  C   UNL     1      47.624   8.005  14.030  0.00  0.00    +0.000 C 
ENDROOT
BRANCH   1   2
ATOM      2  C   UNL     1      46.696   7.171  13.185  0.00  0.00    +0.000 A 
ATOM      3  C   UNL     1      45.936   7.767  12.167  0.00  0.00    +0.000 A 
ATOM      4  C   UNL     1      44.892   7.062  11.572  0.00  0.00    +0.000 A 
ATOM      5  C   UNL     1      44.591   5.757  11.985  0.00  0.00    +0.000 A 
ATOM      6  C   UNL     1      45.452   5.119  12.892  0.00  0.00    +0.000 A 
ATOM      7  C   UNL     1      46.496   5.823  13.488  0.00  0.00    +0.000 A 
BRANCH   5   8
ATOM      8  C   UNL     1      43.344   5.077  11.457  0.00  0.00    +0.000 C 
BRANCH   8   9
ATOM      9  C   UNL     1      43.614   3.632  10.946  0.00  0.00    +0.000 C 
ATOM     10  O   UNL     1      43.048   2.669  11.474  0.00  0.00    +0.000 OA
ATOM     11  N   UNL     1      44.498   3.467   9.896  0.00  0.00    +0.000 N 
ATOM     12  C   UNL     1      45.193   4.503   9.155  0.00  0.00    +0.000 C 
ATOM     13  C   UNL     1      45.563   3.824   7.846  0.00  0.00    +0.000 C 
ATOM     14  C   UNL     1      45.827   2.380   8.257  0.00  0.00    +0.000 C 
ATOM     15  C   UNL     1      44.899   2.145   9.445  0.00  0.00    +0.000 C 
ENDBRANCH   8   9
BRANCH   8  16
ATOM     16  O   UNL     1      42.792   5.925  10.458  0.00  0.00    +0.000 OA
ATOM     17  H   UNL     1      42.039   6.372  10.884  0.00  0.00    +0.000 HD
ENDBRANCH   8  16
ENDBRANCH   5   8
ENDBRANCH   1   2
BRANCH   1  18
ATOM     18  N   UNL     1      49.060   7.683  13.906  0.00  0.00    +0.000 N 
ATOM     19  C   UNL     1      49.959   7.691  14.985  0.00  0.00    +0.000 C 
ATOM     20  O   UNL     1      51.152   7.440  14.829  0.00  0.00    +0.000 OA
BRANCH  19  21
ATOM     21  C   UNL     1      49.463   7.951  16.337  0.00  0.00    +0.000 A 
ATOM     22  C   UNL     1      49.514   9.181  16.967  0.00  0.00    +0.000 A 
ATOM     23  S   UNL     1      48.717   9.196  18.479  0.00  0.00    +0.000 S 
ATOM     24  C   UNL     1      48.189   7.590  18.276  0.00  0.00    +0.000 A 
ATOM     25  N   UNL     1      47.358   7.002  19.174  0.00  0.00    +0.000 NA
ATOM     26  C   UNL     1      46.998   5.806  18.854  0.00  0.00    +0.000 A 
ATOM     27  N   UNL     1      47.422   5.126  17.737  0.00  0.00    +0.000 N 
ATOM     28  C   UNL     1      48.359   5.636  16.865  0.00  0.00    +0.000 A 
ATOM     29  O   UNL     1      48.887   4.927  16.015  0.00  0.00    +0.000 OA
ATOM     30  C   UNL     1      48.697   7.021  17.123  0.00  0.00    +0.000 A 
ATOM     31  H   UNL     1      47.153   4.165  17.581  0.00  0.00    +0.000 HD
ENDBRANCH  19  21
BRANCH  18  33
ATOM     32  C   UNL     1      49.809   8.460  11.657  0.00  0.00    +0.000 C 
ATOM     33  C   UNL     1      49.626   7.285  12.609  0.00  0.00    +0.000 C 
ENDBRANCH  18  33
ENDBRANCH   1  18
TORSDOF 7
ENDMDL
MODEL 5
REMARK VINA RESULT:    -7.444      1.762      2.386
REMARK INTER + INTRA:         -11.420
REMARK INTER:                 -10.182
REMARK INTRA:                  -1.238
REMARK UNBOUND:                -1.148
REMARK  Name = 
REMARK  8 active torsions:
REMARK  status: ('A' for Active; 'I' for Inactive)
REMARK    1  A    between atoms: C_1  and  C_2
REMARK    2  A    between atoms: C_2  and  N_3
REMARK    3  A    between atoms: N_3  and  C_4
REMARK    4  A    between atoms: C_4  and  C_5
REMARK    5  A    between atoms: C_8  and  C_9
REMARK    6  A    between atoms: C_9  and  O_10
REMARK    7  A    between atoms: C_9  and  C_11
REMARK    8  A    between atoms: C_20  and  C_22
REMARK                            x       y       z     vdW  Elec       q    Type
REMARK                         _______ _______ _______ _____ _____    ______ ____
ROOT
ATOM      1  C   UNL     1      47.355   6.194  12.139  0.00  0.00    +0.000 C 
ENDROOT
BRANCH   1   2
ATOM      2  C   UNL     1      47.546   5.577  13.501  0.00  0.00    +0.000 A 
ATOM      3  C   UNL     1      47.026   4.305  13.782  0.00  0.00    +0.000 A 
ATOM      4  C   UNL     1      46.963   3.851  15.098  0.00  0.00    +0.000 A 
ATOM      5  C   UNL     1      47.416   4.660  16.149  0.00  0.00    +0.000 A 
ATOM      6  C   UNL     1      48.073   5.862  15.843  0.00  0.00    +0.000 A 
ATOM      7  C   UNL     1      48.136   6.317  14.528  0.00  0.00    +0.000 A 
BRANCH   5   8
ATOM      8  C   UNL     1      47.174   4.226  17.581  0.00  0.00    +0.000 C 
BRANCH   8   9
ATOM      9  C   UNL     1      48.449   4.327  18.467  0.00  0.00    +0.000 C 
ATOM     10  O   UNL     1      49.361   3.502  18.342  0.00  0.00    +0.000 OA
ATOM     11  N   UNL     1      48.524   5.357  19.387  0.00  0.00    +0.000 N 
ATOM     12  C   UNL     1      47.557   6.416  19.607  0.00  0.00    +0.000 C 
ATOM     13  C   UNL     1      48.366   7.504  20.295  0.00  0.00    +0.000 C 
ATOM     14  C   UNL     1      49.374   6.724  21.130  0.00  0.00    +0.000 C 
ATOM     15  C   UNL     1      49.621   5.445  20.336  0.00  0.00    +0.000 C 
ENDBRANCH   8   9
BRANCH   8  16
ATOM     16  O   UNL     1      46.630   2.913  17.538  0.00  0.00    +0.000 OA
ATOM     17  H   UNL     1      45.769   2.974  17.989  0.00  0.00    +0.000 HD
ENDBRANCH   8  16
ENDBRANCH   5   8
ENDBRANCH   1   2
BRANCH   1  18
ATOM     18  N   UNL     1      46.208   7.114  12.012  0.00  0.00    +0.000 N 
ATOM     19  C   UNL     1      44.904   6.699  11.700  0.00  0.00    +0.000 C 
ATOM     20  O   UNL     1      43.983   7.506  11.580  0.00  0.00    +0.000 OA
BRANCH  19  21
ATOM     21  C   UNL     1      44.613   5.272  11.564  0.00  0.00    +0.000 A 
ATOM     22  C   UNL     1      43.898   4.526  12.485  0.00  0.00    +0.000 A 
ATOM     23  S   UNL     1      43.597   2.926  11.966  0.00  0.00    +0.000 S 
ATOM     24  C   UNL     1      44.316   3.225  10.452  0.00  0.00    +0.000 A 
ATOM     25  N   UNL     1      44.304   2.289   9.468  0.00  0.00    +0.000 NA
ATOM     26  C   UNL     1      44.834   2.683   8.361  0.00  0.00    +0.000 A 
ATOM     27  N   UNL     1      45.410   3.913   8.154  0.00  0.00    +0.000 N 
ATOM     28  C   UNL     1      45.553   4.847   9.158  0.00  0.00    +0.000 A 
ATOM     29  O   UNL     1      46.267   5.833   9.009  0.00  0.00    +0.000 OA
ATOM     30  C   UNL     1      44.865   4.491  10.382  0.00  0.00    +0.000 A 
ATOM     31  H   UNL     1      45.867   4.133   7.281  0.00  0.00    +0.000 HD
ENDBRANCH  19  21
BRANCH  18  33
ATOM     32  C   UNL     1      47.800   9.035  12.007  0.00  0.00    +0.000 C 
ATOM     33  C   UNL     1      46.376   8.555  12.257  0.00  0.00    +0.000 C 
ENDBRANCH  18  33
ENDBRANCH   1  18
TORSDOF 7
ENDMDL
MODEL 6
REMARK VINA RESULT:    -7.314      2.480      7.999
REMARK INTER + INTRA:         -11.241
REMARK INTER:                 -10.648
REMARK INTRA:                  -0.593
REMARK UNBOUND:                -1.148
REMARK  Name = 
REMARK  8 active torsions:
REMARK  status: ('A' for Active; 'I' for Inactive)
REMARK    1  A    between atoms: C_1  and  C_2
REMARK    2  A    between atoms: C_2  and  N_3
REMARK    3  A    between atoms: N_3  and  C_4
REMARK    4  A    between atoms: C_4  and  C_5
REMARK    5  A    between atoms: C_8  and  C_9
REMARK    6  A    between atoms: C_9  and  O_10
REMARK    7  A    between atoms: C_9  and  C_11
REMARK    8  A    between atoms: C_20  and  C_22
REMARK                            x       y       z     vdW  Elec       q    Type
REMARK                         _______ _______ _______ _____ _____    ______ ____
ROOT
ATOM      1  C   UNL     1      48.411   6.283  14.164  0.00  0.00    +0.000 C 
ENDROOT
BRANCH   1   2
ATOM      2  C   UNL     1      47.004   6.030  13.687  0.00  0.00    +0.000 A 
ATOM      3  C   UNL     1      46.394   4.785  13.905  0.00  0.00    +0.000 A 
ATOM      4  C   UNL     1      45.214   4.459  13.239  0.00  0.00    +0.000 A 
ATOM      5  C   UNL     1      44.630   5.368  12.347  0.00  0.00    +0.000 A 
ATOM      6  C   UNL     1      45.162   6.663  12.254  0.00  0.00    +0.000 A 
ATOM      7  C   UNL     1      46.342   6.990  12.919  0.00  0.00    +0.000 A 
BRANCH   5   8
ATOM      8  C   UNL     1      43.453   4.927  11.499  0.00  0.00    +0.000 C 
BRANCH   8   9
ATOM      9  C   UNL     1      43.649   3.514  10.879  0.00  0.00    +0.000 C 
ATOM     10  O   UNL     1      43.022   2.546  11.321  0.00  0.00    +0.000 OA
ATOM     11  N   UNL     1      44.540   3.381   9.829  0.00  0.00    +0.000 N 
ATOM     12  C   UNL     1      45.305   4.431   9.181  0.00  0.00    +0.000 C 
ATOM     13  C   UNL     1      45.658   3.835   7.828  0.00  0.00    +0.000 C 
ATOM     14  C   UNL     1      45.833   2.352   8.126  0.00  0.00    +0.000 C 
ATOM     15  C   UNL     1      44.874   2.077   9.281  0.00  0.00    +0.000 C 
ENDBRANCH   8   9
BRANCH   8  16
ATOM     16  O   UNL     1      43.236   5.937  10.521  0.00  0.00    +0.000 OA
ATOM     17  H   UNL     1      42.627   5.543   9.872  0.00  0.00    +0.000 HD
ENDBRANCH   8  16
ENDBRANCH   5   8
ENDBRANCH   1   2
BRANCH   1  18
ATOM     18  N   UNL     1      48.550   7.302  15.223  0.00  0.00    +0.000 N 
ATOM     19  C   UNL     1      48.583   7.004  16.594  0.00  0.00    +0.000 C 
ATOM     20  O   UNL     1      48.675   7.890  17.443  0.00  0.00    +0.000 OA
BRANCH  19  21
ATOM     21  C   UNL     1      48.559   5.608  17.032  0.00  0.00    +0.000 A 
ATOM     22  C   UNL     1      47.421   4.824  17.089  0.00  0.00    +0.000 A 
ATOM     23  S   UNL     1      47.745   3.195  17.494  0.00  0.00    +0.000 S 
ATOM     24  C   UNL     1      49.425   3.474  17.491  0.00  0.00    +0.000 A 
ATOM     25  N   UNL     1      50.309   2.458  17.664  0.00  0.00    +0.000 NA
ATOM     26  C   UNL     1      51.545   2.815  17.577  0.00  0.00    +0.000 A 
ATOM     27  N   UNL     1      51.983   4.101  17.371  0.00  0.00    +0.000 N 
ATOM     28  C   UNL     1      51.126   5.180  17.313  0.00  0.00    +0.000 A 
ATOM     29  O   UNL     1      51.551   6.329  17.358  0.00  0.00    +0.000 OA
ATOM     30  C   UNL     1      49.727   4.807  17.285  0.00  0.00    +0.000 A 
ATOM     31  H   UNL     1      52.968   4.322  17.381  0.00  0.00    +0.000 HD
ENDBRANCH  19  21
BRANCH  18  33
ATOM     32  C   UNL     1      49.521   8.933  13.604  0.00  0.00    +0.000 C 
ATOM     33  C   UNL     1      48.709   8.722  14.876  0.00  0.00    +0.000 C 
ENDBRANCH  18  33
ENDBRANCH   1  18
TORSDOF 7
ENDMDL
MODEL 7
REMARK VINA RESULT:    -6.876      3.746      7.894
REMARK INTER + INTRA:         -10.637
REMARK INTER:                  -9.658
REMARK INTRA:                  -0.979
REMARK UNBOUND:                -1.148
REMARK  Name = 
REMARK  8 active torsions:
REMARK  status: ('A' for Active; 'I' for Inactive)
REMARK    1  A    between atoms: C_1  and  C_2
REMARK    2  A    between atoms: C_2  and  N_3
REMARK    3  A    between atoms: N_3  and  C_4
REMARK    4  A    between atoms: C_4  and  C_5
REMARK    5  A    between atoms: C_8  and  C_9
REMARK    6  A    between atoms: C_9  and  O_10
REMARK    7  A    between atoms: C_9  and  C_11
REMARK    8  A    between atoms: C_20  and  C_22
REMARK                            x       y       z     vdW  Elec       q    Type
REMARK                         _______ _______ _______ _____ _____    ______ ____
ROOT
ATOM      1  C   UNL     1      48.563   6.841  13.343  0.00  0.00    +0.000 C 
ENDROOT
BRANCH   1   2
ATOM      2  C   UNL     1      47.126   6.436  13.135  0.00  0.00    +0.000 A 
ATOM      3  C   UNL     1      46.694   5.148  13.484  0.00  0.00    +0.000 A 
ATOM      4  C   UNL     1      45.453   4.686  13.050  0.00  0.00    +0.000 A 
ATOM      5  C   UNL     1      44.630   5.501  12.261  0.00  0.00    +0.000 A 
ATOM      6  C   UNL     1      45.003   6.836  12.048  0.00  0.00    +0.000 A 
ATOM      7  C   UNL     1      46.244   7.300  12.482  0.00  0.00    +0.000 A 
BRANCH   5   8
ATOM      8  C   UNL     1      43.370   4.919  11.650  0.00  0.00    +0.000 C 
BRANCH   8   9
ATOM      9  C   UNL     1      43.592   3.505  11.040  0.00  0.00    +0.000 C 
ATOM     10  O   UNL     1      43.004   2.524  11.510  0.00  0.00    +0.000 OA
ATOM     11  N   UNL     1      44.459   3.385   9.970  0.00  0.00    +0.000 N 
ATOM     12  C   UNL     1      45.176   4.449   9.291  0.00  0.00    +0.000 C 
ATOM     13  C   UNL     1      45.511   3.849   7.935  0.00  0.00    +0.000 C 
ATOM     14  C   UNL     1      45.737   2.374   8.245  0.00  0.00    +0.000 C 
ATOM     15  C   UNL     1      44.816   2.086   9.426  0.00  0.00    +0.000 C 
ENDBRANCH   8   9
BRANCH   8  16
ATOM     16  O   UNL     1      42.887   5.862  10.702  0.00  0.00    +0.000 OA
ATOM     17  H   UNL     1      42.247   5.374  10.154  0.00  0.00    +0.000 HD
ENDBRANCH   8  16
ENDBRANCH   5   8
ENDBRANCH   1   2
BRANCH   1  18
ATOM     18  N   UNL     1      48.812   7.737  14.489  0.00  0.00    +0.000 N 
ATOM     19  C   UNL     1      49.079   9.110  14.364  0.00  0.00    +0.000 C 
ATOM     20  O   UNL     1      49.306   9.813  15.347  0.00  0.00    +0.000 OA
BRANCH  19  21
ATOM     21  C   UNL     1      49.039   9.736  13.042  0.00  0.00    +0.000 A 
ATOM     22  C   UNL     1      47.968  10.462  12.551  0.00  0.00    +0.000 A 
ATOM     23  S   UNL     1      48.288  11.193  11.040  0.00  0.00    +0.000 S 
ATOM     24  C   UNL     1      49.902  10.651  11.058  0.00  0.00    +0.000 A 
ATOM     25  N   UNL     1      50.781  11.018  10.091  0.00  0.00    +0.000 NA
ATOM     26  C   UNL     1      51.979  10.578  10.274  0.00  0.00    +0.000 A 
ATOM     27  N   UNL     1      52.375   9.772  11.314  0.00  0.00    +0.000 N 
ATOM     28  C   UNL     1      51.491   9.275  12.249  0.00  0.00    +0.000 A 
ATOM     29  O   UNL     1      51.822   8.384  13.023  0.00  0.00    +0.000 OA
ATOM     30  C   UNL     1      50.162   9.842  12.149  0.00  0.00    +0.000 A 
ATOM     31  H   UNL     1      53.315   9.408  11.361  0.00  0.00    +0.000 HD
ENDBRANCH  19  21
BRANCH  18  33
ATOM     32  C   UNL     1      49.972   6.406  16.251  0.00  0.00    +0.000 C 
ATOM     33  C   UNL     1      48.747   7.225  15.866  0.00  0.00    +0.000 C 
ENDBRANCH  18  33
ENDBRANCH   1  18
TORSDOF 7
ENDMDL
MODEL 8
REMARK VINA RESULT:    -6.418      3.302      8.069
REMARK INTER + INTRA:         -10.005
REMARK INTER:                  -8.224
REMARK INTRA:                  -1.781
REMARK UNBOUND:                -1.148
REMARK  Name = 
REMARK  8 active torsions:
REMARK  status: ('A' for Active; 'I' for Inactive)
REMARK    1  A    between atoms: C_1  and  C_2
REMARK    2  A    between atoms: C_2  and  N_3
REMARK    3  A    between atoms: N_3  and  C_4
REMARK    4  A    between atoms: C_4  and  C_5
REMARK    5  A    between atoms: C_8  and  C_9
REMARK    6  A    between atoms: C_9  and  O_10
REMARK    7  A    between atoms: C_9  and  C_11
REMARK    8  A    between atoms: C_20  and  C_22
REMARK                            x       y       z     vdW  Elec       q    Type
REMARK                         _______ _______ _______ _____ _____    ______ ____
ROOT
ATOM      1  C   UNL     1      50.697   7.757  18.805  0.00  0.00    +0.000 C 
ENDROOT
BRANCH   1   2
ATOM      2  C   UNL     1      50.209   7.804  17.380  0.00  0.00    +0.000 A 
ATOM      3  C   UNL     1      48.865   8.092  17.099  0.00  0.00    +0.000 A 
ATOM      4  C   UNL     1      48.356   7.874  15.821  0.00  0.00    +0.000 A 
ATOM      5  C   UNL     1      49.180   7.365  14.808  0.00  0.00    +0.000 A 
ATOM      6  C   UNL     1      50.554   7.227  15.057  0.00  0.00    +0.000 A 
ATOM      7  C   UNL     1      51.064   7.445  16.336  0.00  0.00    +0.000 A 
BRANCH   5   8
ATOM      8  C   UNL     1      48.567   6.965  13.480  0.00  0.00    +0.000 C 
BRANCH   8   9
ATOM      9  C   UNL     1      47.515   5.827  13.618  0.00  0.00    +0.000 C 
ATOM     10  O   UNL     1      47.692   4.909  14.426  0.00  0.00    +0.000 OA
ATOM     11  N   UNL     1      46.391   5.877  12.814  0.00  0.00    +0.000 N 
ATOM     12  C   UNL     1      46.032   6.912  11.861  0.00  0.00    +0.000 C 
ATOM     13  C   UNL     1      44.531   6.741  11.693  0.00  0.00    +0.000 C 
ATOM     14  C   UNL     1      44.325   5.238  11.835  0.00  0.00    +0.000 C 
ATOM     15  C   UNL     1      45.427   4.790  12.791  0.00  0.00    +0.000 C 
ENDBRANCH   8   9
BRANCH   8  16
ATOM     16  O   UNL     1      49.637   6.629  12.606  0.00  0.00    +0.000 OA
ATOM     17  H   UNL     1      50.377   6.378  13.188  0.00  0.00    +0.000 HD
ENDBRANCH   8  16
ENDBRANCH   5   8
ENDBRANCH   1   2
BRANCH   1  18
ATOM     18  N   UNL     1      49.746   7.198  19.785  0.00  0.00    +0.000 N 
ATOM     19  C   UNL     1      49.390   5.841  19.843  0.00  0.00    +0.000 C 
ATOM     20  O   UNL     1      48.573   5.425  20.663  0.00  0.00    +0.000 OA
BRANCH  19  21
ATOM     21  C   UNL     1      50.040   4.885  18.946  0.00  0.00    +0.000 A 
ATOM     22  C   UNL     1      51.372   4.520  19.021  0.00  0.00    +0.000 A 
ATOM     23  S   UNL     1      51.790   3.271  17.934  0.00  0.00    +0.000 S 
ATOM     24  C   UNL     1      50.176   3.108  17.416  0.00  0.00    +0.000 A 
ATOM     25  N   UNL     1      49.808   2.130  16.550  0.00  0.00    +0.000 NA
ATOM     26  C   UNL     1      48.543   2.098  16.300  0.00  0.00    +0.000 A 
ATOM     27  N   UNL     1      47.615   2.976  16.804  0.00  0.00    +0.000 N 
ATOM     28  C   UNL     1      47.961   4.057  17.587  0.00  0.00    +0.000 A 
ATOM     29  O   UNL     1      47.153   4.947  17.832  0.00  0.00    +0.000 OA
ATOM     30  C   UNL     1      49.353   4.059  17.989  0.00  0.00    +0.000 A 
ATOM     31  H   UNL     1      46.649   2.935  16.513  0.00  0.00    +0.000 HD
ENDBRANCH  19  21
BRANCH  18  33
ATOM     32  C   UNL     1      47.788   8.622  20.385  0.00  0.00    +0.000 C 
ATOM     33  C   UNL     1      49.138   8.060  20.810  0.00  0.00    +0.000 C 
ENDBRANCH  18  33
ENDBRANCH   1  18
TORSDOF 7
ENDMDL
MODEL 9
REMARK VINA RESULT:    -5.587      3.100      8.174
REMARK INTER + INTRA:          -8.858
REMARK INTER:                  -7.465
REMARK INTRA:                  -1.393
REMARK UNBOUND:                -1.148
REMARK  Name = 
REMARK  8 active torsions:
REMARK  status: ('A' for Active; 'I' for Inactive)
REMARK    1  A    between atoms: C_1  and  C_2
REMARK    2  A    between atoms: C_2  and  N_3
REMARK    3  A    between atoms: N_3  and  C_4
REMARK    4  A    between atoms: C_4  and  C_5
REMARK    5  A    between atoms: C_8  and  C_9
REMARK    6  A    between atoms: C_9  and  O_10
REMARK    7  A    between atoms: C_9  and  C_11
REMARK    8  A    between atoms: C_20  and  C_22
REMARK                            x       y       z     vdW  Elec       q    Type
REMARK                         _______ _______ _______ _____ _____    ______ ____
ROOT
ATOM      1  C   UNL     1      50.565   7.854  14.845  0.00  0.00    +0.000 C 
ENDROOT
BRANCH   1   2
ATOM      2  C   UNL     1      49.287   7.761  14.051  0.00  0.00    +0.000 A 
ATOM      3  C   UNL     1      48.337   8.792  14.111  0.00  0.00    +0.000 A 
ATOM      4  C   UNL     1      47.056   8.592  13.603  0.00  0.00    +0.000 A 
ATOM      5  C   UNL     1      46.705   7.362  13.030  0.00  0.00    +0.000 A 
ATOM      6  C   UNL     1      47.704   6.395  12.836  0.00  0.00    +0.000 A 
ATOM      7  C   UNL     1      48.986   6.594  13.345  0.00  0.00    +0.000 A 
BRANCH   5   8
ATOM      8  C   UNL     1      45.261   7.102  12.648  0.00  0.00    +0.000 C 
BRANCH   8   9
ATOM      9  C   UNL     1      45.119   6.114  11.455  0.00  0.00    +0.000 C 
ATOM     10  O   UNL     1      45.607   6.392  10.354  0.00  0.00    +0.000 OA
ATOM     11  N   UNL     1      44.436   4.930  11.666  0.00  0.00    +0.000 N 
ATOM     12  C   UNL     1      43.857   4.454  12.909  0.00  0.00    +0.000 C 
ATOM     13  C   UNL     1      43.738   2.954  12.699  0.00  0.00    +0.000 C 
ATOM     14  C   UNL     1      43.441   2.824  11.210  0.00  0.00    +0.000 C 
ATOM     15  C   UNL     1      44.152   4.015  10.573  0.00  0.00    +0.000 C 
ENDBRANCH   8   9
BRANCH   8  16
ATOM     16  O   UNL     1      44.657   8.365  12.398  0.00  0.00    +0.000 OA
ATOM     17  H   UNL     1      45.395   8.998  12.345  0.00  0.00    +0.000 HD
ENDBRANCH   8  16
ENDBRANCH   5   8
ENDBRANCH   1   2
BRANCH   1  18
ATOM     18  N   UNL     1      50.473   8.604  16.113  0.00  0.00    +0.000 N 
ATOM     19  C   UNL     1      49.973   8.061  17.308  0.00  0.00    +0.000 C 
ATOM     20  O   UNL     1      49.893   8.732  18.335  0.00  0.00    +0.000 OA
BRANCH  19  21
ATOM     21  C   UNL     1      49.587   6.650  17.354  0.00  0.00    +0.000 A 
ATOM     22  C   UNL     1      48.325   6.173  17.044  0.00  0.00    +0.000 A 
ATOM     23  S   UNL     1      48.233   4.466  17.047  0.00  0.00    +0.000 S 
ATOM     24  C   UNL     1      49.902   4.323  17.350  0.00  0.00    +0.000 A 
ATOM     25  N   UNL     1      50.514   3.111  17.371  0.00  0.00    +0.000 NA
ATOM     26  C   UNL     1      51.789   3.169  17.553  0.00  0.00    +0.000 A 
ATOM     27  N   UNL     1      52.507   4.323  17.756  0.00  0.00    +0.000 N 
ATOM     28  C   UNL     1      51.912   5.561  17.866  0.00  0.00    +0.000 A 
ATOM     29  O   UNL     1      52.540   6.533  18.271  0.00  0.00    +0.000 OA
ATOM     30  C   UNL     1      50.498   5.554  17.547  0.00  0.00    +0.000 A 
ATOM     31  H   UNL     1      53.496   4.291  17.960  0.00  0.00    +0.000 HD
ENDBRANCH  19  21
BRANCH  18  33
ATOM     32  C   UNL     1      52.002  10.317  15.139  0.00  0.00    +0.000 C 
ATOM     33  C   UNL     1      50.956   9.990  16.198  0.00  0.00    +0.000 C 
ENDBRANCH  18  33
ENDBRANCH   1  18
TORSDOF 7
ENDMDL
