MODEL 1
REMARK VINA RESULT:    -7.995      0.000      0.000
REMARK INTER + INTRA:         -11.722
REMARK INTER:                 -10.799
REMARK INTRA:                  -0.923
REMARK UNBOUND:                -0.923
REMARK  Name = 
REMARK  7 active torsions:
REMARK  status: ('A' for Active; 'I' for Inactive)
REMARK    1  A    between atoms: C_1  and  C_2
REMARK    2  A    between atoms: C_5  and  C_6
REMARK    3  A    between atoms: N_8  and  C_9
REMARK    4  A    between atoms: C_9  and  C_10
REMARK    5  A    between atoms: C_13  and  C_14
REMARK    6  A    between atoms: C_14  and  N_15
REMARK    7  A    between atoms: C_16  and  C_18
REMARK                            x       y       z     vdW  Elec       q    Type
REMARK                         _______ _______ _______ _____ _____    ______ ____
ROOT
ATOM      1  C   UNL     1      46.265   4.864  13.677  0.00  0.00    +0.000 A 
ATOM      2  C   UNL     1      46.667   4.306  14.898  0.00  0.00    +0.000 A 
ATOM      3  C   UNL     1      47.661   4.917  15.674  0.00  0.00    +0.000 A 
ATOM      4  C   UNL     1      48.260   6.111  15.254  0.00  0.00    +0.000 A 
ATOM      5  C   UNL     1      47.869   6.662  14.026  0.00  0.00    +0.000 A 
ATOM      6  C   UNL     1      46.875   6.052  13.252  0.00  0.00    +0.000 A 
ENDROOT
BRANCH   1   7
ATOM      7  C   UNL     1      45.201   4.202  12.839  0.00  0.00    +0.000 C 
BRANCH   7  10
ATOM      8  C   UNL     1      44.774   3.523  10.510  0.00  0.00    +0.000 C 
ATOM      9  O   UNL     1      43.565   3.419  10.677  0.00  0.00    +0.000 OA
ATOM     10  N   UNL     1      45.653   3.910  11.501  0.00  0.00    +0.000 N 
ATOM     11  H   UNL     1      46.642   3.921  11.269  0.00  0.00    +0.000 HD
BRANCH   8  16
ATOM     12  C   UNL     1      47.217   2.544   5.405  0.00  0.00    +0.000 C 
ATOM     13  C   UNL     1      46.577   2.745   6.743  0.00  0.00    +0.000 A 
ATOM     14  C   UNL     1      46.281   1.671   7.586  0.00  0.00    +0.000 A 
ATOM     15  C   UNL     1      45.686   1.911   8.822  0.00  0.00    +0.000 A 
ATOM     16  C   UNL     1      45.410   3.225   9.182  0.00  0.00    +0.000 A 
ATOM     17  N   UNL     1      45.683   4.297   8.387  0.00  0.00    +0.000 NA
ATOM     18  C   UNL     1      46.255   4.024   7.190  0.00  0.00    +0.000 A 
ENDBRANCH   8  16
ENDBRANCH   7  10
ENDBRANCH   1   7
BRANCH   4  19
ATOM     19  C   UNL     1      49.320   6.785  16.089  0.00  0.00    +0.000 C 
BRANCH  19  20
ATOM     20  N   UNL     1      50.329   5.854  16.525  0.00  0.00    +0.000 N 
ATOM     21  C   UNL     1      50.555   5.623  17.859  0.00  0.00    +0.000 C 
ATOM     22  O   UNL     1      49.878   6.153  18.735  0.00  0.00    +0.000 OA
ATOM     23  H   UNL     1      51.039   5.592  15.847  0.00  0.00    +0.000 HD
BRANCH  21  24
ATOM     24  C   UNL     1      51.608   4.653  18.190  0.00  0.00    +0.000 A 
ATOM     25  C   UNL     1      52.757   5.078  18.846  0.00  0.00    +0.000 A 
ATOM     26  S   UNL     1      53.850   3.817  19.198  0.00  0.00    +0.000 S 
ATOM     27  C   UNL     1      52.854   2.666  18.438  0.00  0.00    +0.000 A 
ATOM     28  N   UNL     1      53.223   1.360  18.364  0.00  0.00    +0.000 NA
ATOM     29  C   UNL     1      52.386   0.603  17.737  0.00  0.00    +0.000 A 
ATOM     30  N   UNL     1      51.211   1.034  17.180  0.00  0.00    +0.000 N 
ATOM     31  C   UNL     1      50.785   2.340  17.247  0.00  0.00    +0.000 A 
ATOM     32  O   UNL     1      49.712   2.687  16.765  0.00  0.00    +0.000 OA
ATOM     33  C   UNL     1      51.694   3.234  17.938  0.00  0.00    +0.000 A 
ATOM     34  H   UNL     1      50.594   0.389  16.707  0.00  0.00    +0.000 HD
ENDBRANCH  21  24
ENDBRANCH  19  20
ENDBRANCH   4  19
TORSDOF 6
ENDMDL
MODEL 2
REMARK VINA RESULT:    -7.703      2.700      3.147
REMARK INTER + INTRA:         -11.328
REMARK INTER:                 -10.323
REMARK INTRA:                  -1.005
REMARK UNBOUND:                -0.923
REMARK  Name = 
REMARK  7 active torsions:
REMARK  status: ('A' for Active; 'I' for Inactive)
REMARK    1  A    between atoms: C_1  and  C_2
REMARK    2  A    between atoms: C_5  and  C_6
REMARK    3  A    between atoms: N_8  and  C_9
REMARK    4  A    between atoms: C_9  and  C_10
REMARK    5  A    between atoms: C_13  and  C_14
REMARK    6  A    between atoms: C_14  and  N_15
REMARK    7  A    between atoms: C_16  and  C_18
REMARK                            x       y       z     vdW  Elec       q    Type
REMARK                         _______ _______ _______ _____ _____    ______ ____
ROOT
ATOM      1  C   UNL     1      45.126   6.564  11.887  0.00  0.00    +0.000 A 
ATOM      2  C   UNL     1      46.248   5.980  12.490  0.00  0.00    +0.000 A 
ATOM      3  C   UNL     1      47.122   6.747  13.271  0.00  0.00    +0.000 A 
ATOM      4  C   UNL     1      46.882   8.110  13.482  0.00  0.00    +0.000 A 
ATOM      5  C   UNL     1      45.768   8.698  12.867  0.00  0.00    +0.000 A 
ATOM      6  C   UNL     1      44.893   7.931  12.088  0.00  0.00    +0.000 A 
ENDROOT
BRANCH   1   7
ATOM      7  C   UNL     1      44.189   5.740  11.040  0.00  0.00    +0.000 C 
BRANCH   7  10
ATOM      8  C   UNL     1      44.829   3.749   9.739  0.00  0.00    +0.000 C 
ATOM      9  O   UNL     1      44.233   2.975  10.479  0.00  0.00    +0.000 OA
ATOM     10  N   UNL     1      44.855   5.116   9.925  0.00  0.00    +0.000 N 
ATOM     11  H   UNL     1      45.417   5.664   9.278  0.00  0.00    +0.000 HD
BRANCH   8  16
ATOM     12  C   UNL     1      47.784   2.023   5.127  0.00  0.00    +0.000 C 
ATOM     13  C   UNL     1      47.012   2.421   6.346  0.00  0.00    +0.000 A 
ATOM     14  C   UNL     1      46.669   1.495   7.334  0.00  0.00    +0.000 A 
ATOM     15  C   UNL     1      45.950   1.916   8.450  0.00  0.00    +0.000 A 
ATOM     16  C   UNL     1      45.600   3.258   8.547  0.00  0.00    +0.000 A 
ATOM     17  N   UNL     1      45.914   4.188   7.603  0.00  0.00    +0.000 NA
ATOM     18  C   UNL     1      46.607   3.741   6.529  0.00  0.00    +0.000 A 
ENDBRANCH   8  16
ENDBRANCH   7  10
ENDBRANCH   1   7
BRANCH   4  19
ATOM     19  C   UNL     1      47.809   8.941  14.333  0.00  0.00    +0.000 C 
BRANCH  19  20
ATOM     20  N   UNL     1      48.062   8.321  15.609  0.00  0.00    +0.000 N 
ATOM     21  C   UNL     1      49.342   8.115  16.059  0.00  0.00    +0.000 C 
ATOM     22  O   UNL     1      50.323   8.494  15.426  0.00  0.00    +0.000 OA
ATOM     23  H   UNL     1      47.296   7.802  16.029  0.00  0.00    +0.000 HD
BRANCH  21  24
ATOM     24  C   UNL     1      49.482   7.475  17.374  0.00  0.00    +0.000 A 
ATOM     25  C   UNL     1      50.031   8.188  18.433  0.00  0.00    +0.000 A 
ATOM     26  S   UNL     1      50.072   7.315  19.898  0.00  0.00    +0.000 S 
ATOM     27  C   UNL     1      49.408   5.934  19.157  0.00  0.00    +0.000 A 
ATOM     28  N   UNL     1      49.197   4.793  19.866  0.00  0.00    +0.000 NA
ATOM     29  C   UNL     1      48.714   3.816  19.172  0.00  0.00    +0.000 A 
ATOM     30  N   UNL     1      48.421   3.879  17.836  0.00  0.00    +0.000 N 
ATOM     31  C   UNL     1      48.597   5.016  17.084  0.00  0.00    +0.000 A 
ATOM     32  O   UNL     1      48.294   5.048  15.895  0.00  0.00    +0.000 OA
ATOM     33  C   UNL     1      49.143   6.143  17.815  0.00  0.00    +0.000 A 
ATOM     34  H   UNL     1      48.038   3.080  17.351  0.00  0.00    +0.000 HD
ENDBRANCH  21  24
ENDBRANCH  19  20
ENDBRANCH   4  19
TORSDOF 6
ENDMDL
MODEL 3
REMARK VINA RESULT:    -7.168      4.029     10.061
REMARK INTER + INTRA:         -10.605
REMARK INTER:                  -9.558
REMARK INTRA:                  -1.047
REMARK UNBOUND:                -0.923
REMARK  Name = 
REMARK  7 active torsions:
REMARK  status: ('A' for Active; 'I' for Inactive)
REMARK    1  A    between atoms: C_1  and  C_2
REMARK    2  A    between atoms: C_5  and  C_6
REMARK    3  A    between atoms: N_8  and  C_9
REMARK    4  A    between atoms: C_9  and  C_10
REMARK    5  A    between atoms: C_13  and  C_14
REMARK    6  A    between atoms: C_14  and  N_15
REMARK    7  A    between atoms: C_16  and  C_18
REMARK                            x       y       z     vdW  Elec       q    Type
REMARK                         _______ _______ _______ _____ _____    ______ ____
ROOT
ATOM      1  C   UNL     1      51.399   2.742  17.717  0.00  0.00    +0.000 A 
ATOM      2  C   UNL     1      50.888   3.997  18.076  0.00  0.00    +0.000 A 
ATOM      3  C   UNL     1      49.556   4.333  17.805  0.00  0.00    +0.000 A 
ATOM      4  C   UNL     1      48.700   3.414  17.186  0.00  0.00    +0.000 A 
ATOM      5  C   UNL     1      49.214   2.164  16.814  0.00  0.00    +0.000 A 
ATOM      6  C   UNL     1      50.545   1.828  17.087  0.00  0.00    +0.000 A 
ENDROOT
BRANCH   1   7
ATOM      7  C   UNL     1      52.836   2.383  18.002  0.00  0.00    +0.000 C 
BRANCH   7  10
ATOM      8  C   UNL     1      54.225   0.350  18.044  0.00  0.00    +0.000 C 
ATOM      9  O   UNL     1      55.228   0.930  17.647  0.00  0.00    +0.000 OA
ATOM     10  N   UNL     1      53.014   0.976  18.259  0.00  0.00    +0.000 N 
ATOM     11  H   UNL     1      52.233   0.393  18.546  0.00  0.00    +0.000 HD
BRANCH   8  16
ATOM     12  C   UNL     1      54.146  -5.264  19.254  0.00  0.00    +0.000 C 
ATOM     13  C   UNL     1      54.204  -3.811  18.900  0.00  0.00    +0.000 A 
ATOM     14  C   UNL     1      54.991  -3.341  17.846  0.00  0.00    +0.000 A 
ATOM     15  C   UNL     1      55.011  -1.979  17.557  0.00  0.00    +0.000 A 
ATOM     16  C   UNL     1      54.233  -1.125  18.330  0.00  0.00    +0.000 A 
ATOM     17  N   UNL     1      53.455  -1.546  19.367  0.00  0.00    +0.000 NA
ATOM     18  C   UNL     1      53.467  -2.876  19.623  0.00  0.00    +0.000 A 
ENDBRANCH   8  16
ENDBRANCH   7  10
ENDBRANCH   1   7
BRANCH   4  19
ATOM     19  C   UNL     1      47.259   3.760  16.904  0.00  0.00    +0.000 C 
BRANCH  19  20
ATOM     20  N   UNL     1      47.140   4.721  15.837  0.00  0.00    +0.000 N 
ATOM     21  C   UNL     1      47.148   4.327  14.522  0.00  0.00    +0.000 C 
ATOM     22  O   UNL     1      47.202   3.145  14.196  0.00  0.00    +0.000 OA
ATOM     23  H   UNL     1      47.328   5.692  16.068  0.00  0.00    +0.000 HD
BRANCH  21  24
ATOM     24  C   UNL     1      47.019   5.392  13.517  0.00  0.00    +0.000 A 
ATOM     25  C   UNL     1      46.013   5.321  12.561  0.00  0.00    +0.000 A 
ATOM     26  S   UNL     1      45.974   6.661  11.507  0.00  0.00    +0.000 S 
ATOM     27  C   UNL     1      47.335   7.358  12.254  0.00  0.00    +0.000 A 
ATOM     28  N   UNL     1      47.850   8.536  11.811  0.00  0.00    +0.000 NA
ATOM     29  C   UNL     1      48.898   8.934  12.452  0.00  0.00    +0.000 A 
ATOM     30  N   UNL     1      49.474   8.264  13.498  0.00  0.00    +0.000 N 
ATOM     31  C   UNL     1      48.976   7.082  13.995  0.00  0.00    +0.000 A 
ATOM     32  O   UNL     1      49.497   6.523  14.954  0.00  0.00    +0.000 OA
ATOM     33  C   UNL     1      47.801   6.587  13.305  0.00  0.00    +0.000 A 
ATOM     34  H   UNL     1      50.291   8.633  13.964  0.00  0.00    +0.000 HD
ENDBRANCH  21  24
ENDBRANCH  19  20
ENDBRANCH   4  19
TORSDOF 6
ENDMDL
MODEL 4
REMARK VINA RESULT:    -6.923      1.871      2.486
REMARK INTER + INTRA:         -10.275
REMARK INTER:                  -9.328
REMARK INTRA:                  -0.947
REMARK UNBOUND:                -0.923
REMARK  Name = 
REMARK  7 active torsions:
REMARK  status: ('A' for Active; 'I' for Inactive)
REMARK    1  A    between atoms: C_1  and  C_2
REMARK    2  A    between atoms: C_5  and  C_6
REMARK    3  A    between atoms: N_8  and  C_9
REMARK    4  A    between atoms: C_9  and  C_10
REMARK    5  A    between atoms: C_13  and  C_14
REMARK    6  A    between atoms: C_14  and  N_15
REMARK    7  A    between atoms: C_16  and  C_18
REMARK                            x       y       z     vdW  Elec       q    Type
REMARK                         _______ _______ _______ _____ _____    ______ ____
ROOT
ATOM      1  C   UNL     1      46.069   7.058  12.778  0.00  0.00    +0.000 A 
ATOM      2  C   UNL     1      45.934   8.428  13.041  0.00  0.00    +0.000 A 
ATOM      3  C   UNL     1      46.951   9.137  13.693  0.00  0.00    +0.000 A 
ATOM      4  C   UNL     1      48.134   8.495  14.080  0.00  0.00    +0.000 A 
ATOM      5  C   UNL     1      48.263   7.121  13.830  0.00  0.00    +0.000 A 
ATOM      6  C   UNL     1      47.248   6.414  13.177  0.00  0.00    +0.000 A 
ENDROOT
BRANCH   1   7
ATOM      7  C   UNL     1      44.971   6.293  12.083  0.00  0.00    +0.000 C 
BRANCH   7  10
ATOM      8  C   UNL     1      44.616   4.781  10.172  0.00  0.00    +0.000 C 
ATOM      9  O   UNL     1      43.397   4.880  10.217  0.00  0.00    +0.000 OA
ATOM     10  N   UNL     1      45.469   5.441  11.033  0.00  0.00    +0.000 N 
ATOM     11  H   UNL     1      46.464   5.254  10.938  0.00  0.00    +0.000 HD
BRANCH   8  16
ATOM     12  C   UNL     1      47.271   1.577   6.213  0.00  0.00    +0.000 C 
ATOM     13  C   UNL     1      46.561   2.366   7.268  0.00  0.00    +0.000 A 
ATOM     14  C   UNL     1      45.879   1.745   8.317  0.00  0.00    +0.000 A 
ATOM     15  C   UNL     1      45.234   2.524   9.274  0.00  0.00    +0.000 A 
ATOM     16  C   UNL     1      45.296   3.908   9.155  0.00  0.00    +0.000 A 
ATOM     17  N   UNL     1      45.948   4.549   8.145  0.00  0.00    +0.000 NA
ATOM     18  C   UNL     1      46.557   3.758   7.230  0.00  0.00    +0.000 A 
ENDBRANCH   8  16
ENDBRANCH   7  10
ENDBRANCH   1   7
BRANCH   4  19
ATOM     19  C   UNL     1      49.241   9.252  14.768  0.00  0.00    +0.000 C 
BRANCH  19  20
ATOM     20  N   UNL     1      50.114   8.372  15.503  0.00  0.00    +0.000 N 
ATOM     21  C   UNL     1      50.156   8.395  16.875  0.00  0.00    +0.000 C 
ATOM     22  O   UNL     1      49.421   9.122  17.537  0.00  0.00    +0.000 OA
ATOM     23  H   UNL     1      50.878   7.944  14.988  0.00  0.00    +0.000 HD
BRANCH  21  24
ATOM     24  C   UNL     1      51.081   7.453  17.521  0.00  0.00    +0.000 A 
ATOM     25  C   UNL     1      52.226   7.930  18.148  0.00  0.00    +0.000 A 
ATOM     26  S   UNL     1      53.160   6.710  18.888  0.00  0.00    +0.000 S 
ATOM     27  C   UNL     1      52.098   5.495  18.351  0.00  0.00    +0.000 A 
ATOM     28  N   UNL     1      52.335   4.185  18.631  0.00  0.00    +0.000 NA
ATOM     29  C   UNL     1      51.463   3.369  18.139  0.00  0.00    +0.000 A 
ATOM     30  N   UNL     1      50.375   3.744  17.397  0.00  0.00    +0.000 N 
ATOM     31  C   UNL     1      50.083   5.056  17.107  0.00  0.00    +0.000 A 
ATOM     32  O   UNL     1      49.083   5.360  16.465  0.00  0.00    +0.000 OA
ATOM     33  C   UNL     1      51.036   6.015  17.632  0.00  0.00    +0.000 A 
ATOM     34  H   UNL     1      49.725   3.055  17.045  0.00  0.00    +0.000 HD
ENDBRANCH  21  24
ENDBRANCH  19  20
ENDBRANCH   4  19
TORSDOF 6
ENDMDL
MODEL 5
REMARK VINA RESULT:    -6.702      4.664      5.571
REMARK INTER + INTRA:          -9.976
REMARK INTER:                  -8.877
REMARK INTRA:                  -1.099
REMARK UNBOUND:                -0.923
REMARK  Name = 
REMARK  7 active torsions:
REMARK  status: ('A' for Active; 'I' for Inactive)
REMARK    1  A    between atoms: C_1  and  C_2
REMARK    2  A    between atoms: C_5  and  C_6
REMARK    3  A    between atoms: N_8  and  C_9
REMARK    4  A    between atoms: C_9  and  C_10
REMARK    5  A    between atoms: C_13  and  C_14
REMARK    6  A    between atoms: C_14  and  N_15
REMARK    7  A    between atoms: C_16  and  C_18
REMARK                            x       y       z     vdW  Elec       q    Type
REMARK                         _______ _______ _______ _____ _____    ______ ____
ROOT
ATOM      1  C   UNL     1      46.314   7.067  12.803  0.00  0.00    +0.000 A 
ATOM      2  C   UNL     1      46.178   8.421  13.138  0.00  0.00    +0.000 A 
ATOM      3  C   UNL     1      47.236   9.123  13.730  0.00  0.00    +0.000 A 
ATOM      4  C   UNL     1      48.460   8.490  13.981  0.00  0.00    +0.000 A 
ATOM      5  C   UNL     1      48.591   7.132  13.660  0.00  0.00    +0.000 A 
ATOM      6  C   UNL     1      47.535   6.432  13.066  0.00  0.00    +0.000 A 
ENDROOT
BRANCH   1   7
ATOM      7  C   UNL     1      45.173   6.310  12.173  0.00  0.00    +0.000 C 
BRANCH   7  10
ATOM      8  C   UNL     1      44.704   4.792  10.291  0.00  0.00    +0.000 C 
ATOM      9  O   UNL     1      43.490   4.926  10.380  0.00  0.00    +0.000 OA
ATOM     10  N   UNL     1      45.606   5.435  11.113  0.00  0.00    +0.000 N 
ATOM     11  H   UNL     1      46.591   5.219  10.983  0.00  0.00    +0.000 HD
BRANCH   8  16
ATOM     12  C   UNL     1      47.116   1.482   6.265  0.00  0.00    +0.000 C 
ATOM     13  C   UNL     1      46.468   2.299   7.338  0.00  0.00    +0.000 A 
ATOM     14  C   UNL     1      45.809   1.706   8.417  0.00  0.00    +0.000 A 
ATOM     15  C   UNL     1      45.222   2.511   9.391  0.00  0.00    +0.000 A 
ATOM     16  C   UNL     1      45.319   3.892   9.257  0.00  0.00    +0.000 A 
ATOM     17  N   UNL     1      45.952   4.506   8.218  0.00  0.00    +0.000 NA
ATOM     18  C   UNL     1      46.504   3.691   7.288  0.00  0.00    +0.000 A 
ENDBRANCH   8  16
ENDBRANCH   7  10
ENDBRANCH   1   7
BRANCH   4  19
ATOM     19  C   UNL     1      49.611   9.241  14.604  0.00  0.00    +0.000 C 
BRANCH  19  20
ATOM     20  N   UNL     1      50.764   9.262  13.740  0.00  0.00    +0.000 N 
ATOM     21  C   UNL     1      51.869   8.494  14.011  0.00  0.00    +0.000 C 
ATOM     22  O   UNL     1      51.907   7.720  14.963  0.00  0.00    +0.000 OA
ATOM     23  H   UNL     1      50.847  10.047  13.101  0.00  0.00    +0.000 HD
BRANCH  21  24
ATOM     24  C   UNL     1      52.987   8.594  13.063  0.00  0.00    +0.000 A 
ATOM     25  C   UNL     1      54.222   9.058  13.498  0.00  0.00    +0.000 A 
ATOM     26  S   UNL     1      55.420   9.062  12.283  0.00  0.00    +0.000 S 
ATOM     27  C   UNL     1      54.317   8.495  11.118  0.00  0.00    +0.000 A 
ATOM     28  N   UNL     1      54.702   8.295   9.829  0.00  0.00    +0.000 NA
ATOM     29  C   UNL     1      53.757   7.889   9.047  0.00  0.00    +0.000 A 
ATOM     30  N   UNL     1      52.464   7.661   9.439  0.00  0.00    +0.000 N 
ATOM     31  C   UNL     1      52.035   7.828  10.734  0.00  0.00    +0.000 A 
ATOM     32  O   UNL     1      50.877   7.584  11.059  0.00  0.00    +0.000 OA
ATOM     33  C   UNL     1      53.057   8.289  11.653  0.00  0.00    +0.000 A 
ATOM     34  H   UNL     1      51.772   7.336   8.779  0.00  0.00    +0.000 HD
ENDBRANCH  21  24
ENDBRANCH  19  20
ENDBRANCH   4  19
TORSDOF 6
ENDMDL
MODEL 6
REMARK VINA RESULT:    -6.577      3.106      4.403
REMARK INTER + INTRA:          -9.806
REMARK INTER:                  -8.880
REMARK INTRA:                  -0.926
REMARK UNBOUND:                -0.923
REMARK  Name = 
REMARK  7 active torsions:
REMARK  status: ('A' for Active; 'I' for Inactive)
REMARK    1  A    between atoms: C_1  and  C_2
REMARK    2  A    between atoms: C_5  and  C_6
REMARK    3  A    between atoms: N_8  and  C_9
REMARK    4  A    between atoms: C_9  and  C_10
REMARK    5  A    between atoms: C_13  and  C_14
REMARK    6  A    between atoms: C_14  and  N_15
REMARK    7  A    between atoms: C_16  and  C_18
REMARK                            x       y       z     vdW  Elec       q    Type
REMARK                         _______ _______ _______ _____ _____    ______ ____
ROOT
ATOM      1  C   UNL     1      45.415   5.024  12.299  0.00  0.00    +0.000 A 
ATOM      2  C   UNL     1      46.032   6.132  12.898  0.00  0.00    +0.000 A 
ATOM      3  C   UNL     1      46.808   5.982  14.054  0.00  0.00    +0.000 A 
ATOM      4  C   UNL     1      47.000   4.718  14.626  0.00  0.00    +0.000 A 
ATOM      5  C   UNL     1      46.371   3.613  14.036  0.00  0.00    +0.000 A 
ATOM      6  C   UNL     1      45.598   3.762  12.880  0.00  0.00    +0.000 A 
ENDROOT
BRANCH   1   7
ATOM      7  C   UNL     1      44.573   5.187  11.059  0.00  0.00    +0.000 C 
BRANCH   7  10
ATOM      8  C   UNL     1      45.023   3.405   9.419  0.00  0.00    +0.000 C 
ATOM      9  O   UNL     1      44.266   2.607   9.957  0.00  0.00    +0.000 OA
ATOM     10  N   UNL     1      45.230   4.691   9.876  0.00  0.00    +0.000 N 
ATOM     11  H   UNL     1      45.914   5.257   9.381  0.00  0.00    +0.000 HD
BRANCH   8  16
ATOM     12  C   UNL     1      48.014   2.148   4.679  0.00  0.00    +0.000 C 
ATOM     13  C   UNL     1      47.239   2.423   5.930  0.00  0.00    +0.000 A 
ATOM     14  C   UNL     1      47.028   1.437   6.897  0.00  0.00    +0.000 A 
ATOM     15  C   UNL     1      46.300   1.744   8.044  0.00  0.00    +0.000 A 
ATOM     16  C   UNL     1      45.808   3.036   8.192  0.00  0.00    +0.000 A 
ATOM     17  N   UNL     1      45.992   4.022   7.270  0.00  0.00    +0.000 NA
ATOM     18  C   UNL     1      46.698   3.685   6.165  0.00  0.00    +0.000 A 
ENDBRANCH   8  16
ENDBRANCH   7  10
ENDBRANCH   1   7
BRANCH   4  19
ATOM     19  C   UNL     1      47.846   4.544  15.862  0.00  0.00    +0.000 C 
BRANCH  19  20
ATOM     20  N   UNL     1      48.063   5.796  16.543  0.00  0.00    +0.000 N 
ATOM     21  C   UNL     1      49.317   6.177  16.949  0.00  0.00    +0.000 C 
ATOM     22  O   UNL     1      50.313   5.501  16.706  0.00  0.00    +0.000 OA
ATOM     23  H   UNL     1      47.248   6.245  16.951  0.00  0.00    +0.000 HD
BRANCH  21  24
ATOM     24  C   UNL     1      49.421   7.473  17.633  0.00  0.00    +0.000 A 
ATOM     25  C   UNL     1      50.276   8.449  17.136  0.00  0.00    +0.000 A 
ATOM     26  S   UNL     1      50.235   9.909  18.018  0.00  0.00    +0.000 S 
ATOM     27  C   UNL     1      49.115   9.270  19.128  0.00  0.00    +0.000 A 
ATOM     28  N   UNL     1      48.667  10.013  20.175  0.00  0.00    +0.000 NA
ATOM     29  C   UNL     1      47.842   9.395  20.953  0.00  0.00    +0.000 A 
ATOM     30  N   UNL     1      47.421   8.103  20.776  0.00  0.00    +0.000 N 
ATOM     31  C   UNL     1      47.830   7.322  19.721  0.00  0.00    +0.000 A 
ATOM     32  O   UNL     1      47.410   6.179  19.574  0.00  0.00    +0.000 OA
ATOM     33  C   UNL     1      48.764   7.968  18.819  0.00  0.00    +0.000 A 
ATOM     34  H   UNL     1      46.767   7.678  21.417  0.00  0.00    +0.000 HD
ENDBRANCH  21  24
ENDBRANCH  19  20
ENDBRANCH   4  19
TORSDOF 6
ENDMDL
MODEL 7
REMARK VINA RESULT:    -6.551      3.543     10.117
REMARK INTER + INTRA:          -9.772
REMARK INTER:                  -9.021
REMARK INTRA:                  -0.751
REMARK UNBOUND:                -0.923
REMARK  Name = 
REMARK  7 active torsions:
REMARK  status: ('A' for Active; 'I' for Inactive)
REMARK    1  A    between atoms: C_1  and  C_2
REMARK    2  A    between atoms: C_5  and  C_6
REMARK    3  A    between atoms: N_8  and  C_9
REMARK    4  A    between atoms: C_9  and  C_10
REMARK    5  A    between atoms: C_13  and  C_14
REMARK    6  A    between atoms: C_14  and  N_15
REMARK    7  A    between atoms: C_16  and  C_18
REMARK                            x       y       z     vdW  Elec       q    Type
REMARK                         _______ _______ _______ _____ _____    ______ ____
ROOT
ATOM      1  C   UNL     1      52.152   2.066  17.638  0.00  0.00    +0.000 A 
ATOM      2  C   UNL     1      52.391   3.322  18.211  0.00  0.00    +0.000 A 
ATOM      3  C   UNL     1      51.350   4.248  18.367  0.00  0.00    +0.000 A 
ATOM      4  C   UNL     1      50.046   3.929  17.971  0.00  0.00    +0.000 A 
ATOM      5  C   UNL     1      49.810   2.678  17.384  0.00  0.00    +0.000 A 
ATOM      6  C   UNL     1      50.849   1.753  17.230  0.00  0.00    +0.000 A 
ENDROOT
BRANCH   1   7
ATOM      7  C   UNL     1      53.273   1.072  17.463  0.00  0.00    +0.000 C 
BRANCH   7  10
ATOM      8  C   UNL     1      54.034  -1.069  18.412  0.00  0.00    +0.000 C 
ATOM      9  O   UNL     1      55.208  -0.873  18.122  0.00  0.00    +0.000 OA
ATOM     10  N   UNL     1      53.020  -0.173  18.142  0.00  0.00    +0.000 N 
ATOM     11  H   UNL     1      52.074  -0.454  18.384  0.00  0.00    +0.000 HD
BRANCH   8  16
ATOM     12  C   UNL     1      52.282  -5.810  21.139  0.00  0.00    +0.000 C 
ATOM     13  C   UNL     1      52.765  -4.607  20.392  0.00  0.00    +0.000 A 
ATOM     14  C   UNL     1      53.500  -4.720  19.210  0.00  0.00    +0.000 A 
ATOM     15  C   UNL     1      53.926  -3.569  18.552  0.00  0.00    +0.000 A 
ATOM     16  C   UNL     1      53.596  -2.333  19.097  0.00  0.00    +0.000 A 
ATOM     17  N   UNL     1      52.884  -2.183  20.248  0.00  0.00    +0.000 NA
ATOM     18  C   UNL     1      52.493  -3.324  20.863  0.00  0.00    +0.000 A 
ENDBRANCH   8  16
ENDBRANCH   7  10
ENDBRANCH   1   7
BRANCH   4  19
ATOM     19  C   UNL     1      48.917   4.913  18.149  0.00  0.00    +0.000 C 
BRANCH  19  20
ATOM     20  N   UNL     1      48.245   5.186  16.903  0.00  0.00    +0.000 N 
ATOM     21  C   UNL     1      48.825   5.973  15.940  0.00  0.00    +0.000 C 
ATOM     22  O   UNL     1      49.955   6.434  16.070  0.00  0.00    +0.000 OA
ATOM     23  H   UNL     1      47.243   5.017  16.873  0.00  0.00    +0.000 HD
BRANCH  21  24
ATOM     24  C   UNL     1      48.050   6.184  14.710  0.00  0.00    +0.000 A 
ATOM     25  C   UNL     1      48.041   7.435  14.105  0.00  0.00    +0.000 A 
ATOM     26  S   UNL     1      47.136   7.491  12.660  0.00  0.00    +0.000 S 
ATOM     27  C   UNL     1      46.678   5.861  12.819  0.00  0.00    +0.000 A 
ATOM     28  N   UNL     1      45.863   5.270  11.904  0.00  0.00    +0.000 NA
ATOM     29  C   UNL     1      45.576   4.038  12.163  0.00  0.00    +0.000 A 
ATOM     30  N   UNL     1      46.031   3.342  13.252  0.00  0.00    +0.000 N 
ATOM     31  C   UNL     1      46.872   3.891  14.191  0.00  0.00    +0.000 A 
ATOM     32  O   UNL     1      47.288   3.230  15.138  0.00  0.00    +0.000 OA
ATOM     33  C   UNL     1      47.223   5.277  13.950  0.00  0.00    +0.000 A 
ATOM     34  H   UNL     1      45.774   2.376  13.395  0.00  0.00    +0.000 HD
ENDBRANCH  21  24
ENDBRANCH  19  20
ENDBRANCH   4  19
TORSDOF 6
ENDMDL
MODEL 8
REMARK VINA RESULT:    -6.402      1.407      2.237
REMARK INTER + INTRA:          -9.570
REMARK INTER:                  -8.906
REMARK INTRA:                  -0.664
REMARK UNBOUND:                -0.923
REMARK  Name = 
REMARK  7 active torsions:
REMARK  status: ('A' for Active; 'I' for Inactive)
REMARK    1  A    between atoms: C_1  and  C_2
REMARK    2  A    between atoms: C_5  and  C_6
REMARK    3  A    between atoms: N_8  and  C_9
REMARK    4  A    between atoms: C_9  and  C_10
REMARK    5  A    between atoms: C_13  and  C_14
REMARK    6  A    between atoms: C_14  and  N_15
REMARK    7  A    between atoms: C_16  and  C_18
REMARK                            x       y       z     vdW  Elec       q    Type
REMARK                         _______ _______ _______ _____ _____    ______ ____
ROOT
ATOM      1  C   UNL     1      46.220   5.067  13.689  0.00  0.00    +0.000 A 
ATOM      2  C   UNL     1      46.605   4.398  14.859  0.00  0.00    +0.000 A 
ATOM      3  C   UNL     1      47.639   4.898  15.662  0.00  0.00    +0.000 A 
ATOM      4  C   UNL     1      48.295   6.087  15.324  0.00  0.00    +0.000 A 
ATOM      5  C   UNL     1      47.920   6.748  14.146  0.00  0.00    +0.000 A 
ATOM      6  C   UNL     1      46.886   6.251  13.345  0.00  0.00    +0.000 A 
ENDROOT
BRANCH   1   7
ATOM      7  C   UNL     1      45.113   4.526  12.820  0.00  0.00    +0.000 C 
BRANCH   7  10
ATOM      8  C   UNL     1      44.849   4.186  10.395  0.00  0.00    +0.000 C 
ATOM      9  O   UNL     1      43.756   4.737  10.355  0.00  0.00    +0.000 OA
ATOM     10  N   UNL     1      45.593   4.045  11.549  0.00  0.00    +0.000 N 
ATOM     11  H   UNL     1      46.467   3.531  11.480  0.00  0.00    +0.000 HD
BRANCH   8  16
ATOM     12  C   UNL     1      47.227   1.805   5.741  0.00  0.00    +0.000 C 
ATOM     13  C   UNL     1      46.618   2.475   6.932  0.00  0.00    +0.000 A 
ATOM     14  C   UNL     1      46.474   3.862   7.003  0.00  0.00    +0.000 A 
ATOM     15  C   UNL     1      45.900   4.437   8.133  0.00  0.00    +0.000 A 
ATOM     16  C   UNL     1      45.478   3.602   9.162  0.00  0.00    +0.000 A 
ATOM     17  N   UNL     1      45.603   2.245   9.129  0.00  0.00    +0.000 NA
ATOM     18  C   UNL     1      46.173   1.723   8.017  0.00  0.00    +0.000 A 
ENDBRANCH   8  16
ENDBRANCH   7  10
ENDBRANCH   1   7
BRANCH   4  19
ATOM     19  C   UNL     1      49.398   6.641  16.191  0.00  0.00    +0.000 C 
BRANCH  19  20
ATOM     20  N   UNL     1      50.335   5.618  16.582  0.00  0.00    +0.000 N 
ATOM     21  C   UNL     1      50.292   5.055  17.833  0.00  0.00    +0.000 C 
ATOM     22  O   UNL     1      49.428   5.354  18.652  0.00  0.00    +0.000 OA
ATOM     23  H   UNL     1      51.179   5.529  16.023  0.00  0.00    +0.000 HD
BRANCH  21  24
ATOM     24  C   UNL     1      51.295   4.021  18.123  0.00  0.00    +0.000 A 
ATOM     25  C   UNL     1      51.283   2.828  17.412  0.00  0.00    +0.000 A 
ATOM     26  S   UNL     1      52.545   1.763  17.838  0.00  0.00    +0.000 S 
ATOM     27  C   UNL     1      53.121   2.834  19.028  0.00  0.00    +0.000 A 
ATOM     28  N   UNL     1      54.196   2.514  19.796  0.00  0.00    +0.000 NA
ATOM     29  C   UNL     1      54.507   3.407  20.676  0.00  0.00    +0.000 A 
ATOM     30  N   UNL     1      53.843   4.592  20.854  0.00  0.00    +0.000 N 
ATOM     31  C   UNL     1      52.766   4.968  20.087  0.00  0.00    +0.000 A 
ATOM     32  O   UNL     1      52.212   6.051  20.252  0.00  0.00    +0.000 OA
ATOM     33  C   UNL     1      52.371   3.996  19.086  0.00  0.00    +0.000 A 
ATOM     34  H   UNL     1      54.141   5.253  21.557  0.00  0.00    +0.000 HD
ENDBRANCH  21  24
ENDBRANCH  19  20
ENDBRANCH   4  19
TORSDOF 6
ENDMDL
