MODEL 1
REMARK VINA RESULT:    -7.799      0.000      0.000
REMARK INTER + INTRA:         -11.922
REMARK INTER:                 -10.991
REMARK INTRA:                  -0.932
REMARK UNBOUND:                -0.932
REMARK  Name = 
REMARK  9 active torsions:
REMARK  status: ('A' for Active; 'I' for Inactive)
REMARK    1  A    between atoms: C_1  and  C_2
REMARK    2  A    between atoms: C_2  and  N_3
REMARK    3  A    between atoms: C_2  and  C_19
REMARK    4  A    between atoms: N_3  and  C_4
REMARK    5  A    between atoms: C_7  and  C_8
REMARK    6  A    between atoms: C_8  and  O_9
REMARK    7  A    between atoms: C_8  and  C_10
REMARK    8  A    between atoms: C_10  and  N_11
REMARK    9  A    between atoms: C_14  and  O_15
REMARK                            x       y       z     vdW  Elec       q    Type
REMARK                         _______ _______ _______ _____ _____    ______ ____
ROOT
ATOM      1  C   UNL     1      46.341   6.289  13.117  0.00  0.00    +0.000 A 
ATOM      2  C   UNL     1      45.567   5.201  13.529  0.00  0.00    +0.000 A 
ATOM      3  C   UNL     1      44.974   4.336  12.609  0.00  0.00    +0.000 A 
ATOM      4  C   UNL     1      45.137   4.540  11.233  0.00  0.00    +0.000 A 
ATOM      5  C   UNL     1      45.817   5.695  10.815  0.00  0.00    +0.000 A 
ATOM      6  C   UNL     1      46.406   6.558  11.748  0.00  0.00    +0.000 A 
ENDROOT
BRANCH   1   7
ATOM      7  N   UNL     1      47.138   6.990  14.001  0.00  0.00    +0.000 N 
ATOM      8  H   UNL     1      46.806   7.868  14.397  0.00  0.00    +0.000 HD
BRANCH   7  10
ATOM      9  C   UNL     1      49.537   7.344  13.824  0.00  0.00    +0.000 C 
ATOM     10  C   UNL     1      48.432   6.489  14.446  0.00  0.00    +0.000 C 
BRANCH  10  11
ATOM     11  C   UNL     1      48.608   6.309  15.945  0.00  0.00    +0.000 A 
ATOM     12  C   UNL     1      48.919   7.350  16.806  0.00  0.00    +0.000 A 
ATOM     13  S   UNL     1      49.320   6.817  18.380  0.00  0.00    +0.000 S 
ATOM     14  C   UNL     1      48.832   5.228  18.025  0.00  0.00    +0.000 A 
ATOM     15  N   UNL     1      48.787   4.273  18.988  0.00  0.00    +0.000 NA
ATOM     16  C   UNL     1      48.248   3.163  18.608  0.00  0.00    +0.000 A 
ATOM     17  N   UNL     1      47.811   2.896  17.330  0.00  0.00    +0.000 N 
ATOM     18  C   UNL     1      47.920   3.807  16.303  0.00  0.00    +0.000 A 
ATOM     19  O   UNL     1      47.518   3.529  15.170  0.00  0.00    +0.000 OA
ATOM     20  C   UNL     1      48.453   5.093  16.697  0.00  0.00    +0.000 A 
ATOM     21  H   UNL     1      47.370   2.020  17.111  0.00  0.00    +0.000 HD
ENDBRANCH  10  11
ENDBRANCH   7  10
ENDBRANCH   1   7
BRANCH   4  22
ATOM     22  C   UNL     1      44.615   3.514  10.245  0.00  0.00    +0.000 C 
BRANCH  22  23
ATOM     23  O   UNL     1      43.342   3.059  10.706  0.00  0.00    +0.000 OA
ATOM     24  H   UNL     1      43.138   3.560  11.512  0.00  0.00    +0.000 HD
ENDBRANCH  22  23
BRANCH  22  25
ATOM     25  C   UNL     1      44.534   4.071   8.785  0.00  0.00    +0.000 C 
BRANCH  25  26
ATOM     26  N   UNL     1      45.285   3.298   7.777  0.00  0.00    +0.000 NA
ATOM     27  C   UNL     1      45.633   1.946   8.235  0.00  0.00    +0.000 C 
ATOM     28  C   UNL     1      46.986   1.606   7.611  0.00  0.00    +0.000 C 
ATOM     29  C   UNL     1      47.340   2.807   6.751  0.00  0.00    +0.000 C 
ATOM     30  C   UNL     1      46.547   3.949   7.386  0.00  0.00    +0.000 C 
BRANCH  29  31
ATOM     31  O   UNL     1      46.914   2.580   5.408  0.00  0.00    +0.000 OA
ATOM     32  H   UNL     1      46.173   1.950   5.466  0.00  0.00    +0.000 HD
ENDBRANCH  29  31
ENDBRANCH  25  26
ENDBRANCH  22  25
ENDBRANCH   4  22
TORSDOF 8
ENDMDL
MODEL 2
REMARK VINA RESULT:    -7.578      0.963      1.344
REMARK INTER + INTRA:         -11.610
REMARK INTER:                 -10.549
REMARK INTRA:                  -1.061
REMARK UNBOUND:                -0.932
REMARK  Name = 
REMARK  9 active torsions:
REMARK  status: ('A' for Active; 'I' for Inactive)
REMARK    1  A    between atoms: C_1  and  C_2
REMARK    2  A    between atoms: C_2  and  N_3
REMARK    3  A    between atoms: C_2  and  C_19
REMARK    4  A    between atoms: N_3  and  C_4
REMARK    5  A    between atoms: C_7  and  C_8
REMARK    6  A    between atoms: C_8  and  O_9
REMARK    7  A    between atoms: C_8  and  C_10
REMARK    8  A    between atoms: C_10  and  N_11
REMARK    9  A    between atoms: C_14  and  O_15
REMARK                            x       y       z     vdW  Elec       q    Type
REMARK                         _______ _______ _______ _____ _____    ______ ____
ROOT
ATOM      1  C   UNL     1      46.663   5.657  13.353  0.00  0.00    +0.000 A 
ATOM      2  C   UNL     1      46.212   6.233  12.163  0.00  0.00    +0.000 A 
ATOM      3  C   UNL     1      45.452   5.511  11.243  0.00  0.00    +0.000 A 
ATOM      4  C   UNL     1      45.119   4.173  11.490  0.00  0.00    +0.000 A 
ATOM      5  C   UNL     1      45.666   3.558  12.628  0.00  0.00    +0.000 A 
ATOM      6  C   UNL     1      46.431   4.293  13.543  0.00  0.00    +0.000 A 
ENDROOT
BRANCH   1   7
ATOM      7  N   UNL     1      47.186   6.421  14.378  0.00  0.00    +0.000 N 
ATOM      8  H   UNL     1      46.565   6.966  14.973  0.00  0.00    +0.000 HD
BRANCH   7  10
ATOM      9  C   UNL     1      49.332   7.318  13.669  0.00  0.00    +0.000 C 
ATOM     10  C   UNL     1      48.611   6.434  14.688  0.00  0.00    +0.000 C 
BRANCH  10  11
ATOM     11  C   UNL     1      48.987   6.769  16.121  0.00  0.00    +0.000 A 
ATOM     12  C   UNL     1      49.590   7.961  16.492  0.00  0.00    +0.000 A 
ATOM     13  S   UNL     1      50.143   7.955  18.110  0.00  0.00    +0.000 S 
ATOM     14  C   UNL     1      49.361   6.479  18.428  0.00  0.00    +0.000 A 
ATOM     15  N   UNL     1      49.316   5.962  19.682  0.00  0.00    +0.000 NA
ATOM     16  C   UNL     1      48.556   4.925  19.800  0.00  0.00    +0.000 A 
ATOM     17  N   UNL     1      47.888   4.315  18.762  0.00  0.00    +0.000 N 
ATOM     18  C   UNL     1      47.978   4.757  17.460  0.00  0.00    +0.000 A 
ATOM     19  O   UNL     1      47.365   4.182  16.557  0.00  0.00    +0.000 OA
ATOM     20  C   UNL     1      48.762   5.961  17.289  0.00  0.00    +0.000 A 
ATOM     21  H   UNL     1      47.285   3.529  18.930  0.00  0.00    +0.000 HD
ENDBRANCH  10  11
ENDBRANCH   7  10
ENDBRANCH   1   7
BRANCH   4  22
ATOM     22  C   UNL     1      44.171   3.440  10.560  0.00  0.00    +0.000 C 
BRANCH  22  23
ATOM     23  O   UNL     1      42.870   3.457  11.147  0.00  0.00    +0.000 OA
ATOM     24  H   UNL     1      42.484   2.578  11.004  0.00  0.00    +0.000 HD
ENDBRANCH  22  23
BRANCH  22  25
ATOM     25  C   UNL     1      44.161   4.041   9.115  0.00  0.00    +0.000 C 
BRANCH  25  26
ATOM     26  N   UNL     1      44.910   3.266   8.108  0.00  0.00    +0.000 NA
ATOM     27  C   UNL     1      45.248   1.910   8.563  0.00  0.00    +0.000 C 
ATOM     28  C   UNL     1      46.600   1.563   7.944  0.00  0.00    +0.000 C 
ATOM     29  C   UNL     1      46.967   2.765   7.090  0.00  0.00    +0.000 C 
ATOM     30  C   UNL     1      46.179   3.909   7.725  0.00  0.00    +0.000 C 
BRANCH  29  31
ATOM     31  O   UNL     1      46.546   2.545   5.744  0.00  0.00    +0.000 OA
ATOM     32  H   UNL     1      46.478   3.428   5.338  0.00  0.00    +0.000 HD
ENDBRANCH  29  31
ENDBRANCH  25  26
ENDBRANCH  22  25
ENDBRANCH   4  22
TORSDOF 8
ENDMDL
MODEL 3
REMARK VINA RESULT:    -7.371      1.107      1.309
REMARK INTER + INTRA:         -11.319
REMARK INTER:                 -10.217
REMARK INTRA:                  -1.102
REMARK UNBOUND:                -0.932
REMARK  Name = 
REMARK  9 active torsions:
REMARK  status: ('A' for Active; 'I' for Inactive)
REMARK    1  A    between atoms: C_1  and  C_2
REMARK    2  A    between atoms: C_2  and  N_3
REMARK    3  A    between atoms: C_2  and  C_19
REMARK    4  A    between atoms: N_3  and  C_4
REMARK    5  A    between atoms: C_7  and  C_8
REMARK    6  A    between atoms: C_8  and  O_9
REMARK    7  A    between atoms: C_8  and  C_10
REMARK    8  A    between atoms: C_10  and  N_11
REMARK    9  A    between atoms: C_14  and  O_15
REMARK                            x       y       z     vdW  Elec       q    Type
REMARK                         _______ _______ _______ _____ _____    ______ ____
ROOT
ATOM      1  C   UNL     1      46.255   5.798  13.244  0.00  0.00    +0.000 A 
ATOM      2  C   UNL     1      46.195   4.428  13.517  0.00  0.00    +0.000 A 
ATOM      3  C   UNL     1      45.669   3.522  12.595  0.00  0.00    +0.000 A 
ATOM      4  C   UNL     1      45.179   3.967  11.361  0.00  0.00    +0.000 A 
ATOM      5  C   UNL     1      45.132   5.351  11.132  0.00  0.00    +0.000 A 
ATOM      6  C   UNL     1      45.661   6.252  12.065  0.00  0.00    +0.000 A 
ENDROOT
BRANCH   1   7
ATOM      7  N   UNL     1      46.999   6.661  14.024  0.00  0.00    +0.000 N 
ATOM      8  H   UNL     1      46.535   7.403  14.545  0.00  0.00    +0.000 HD
BRANCH   7  10
ATOM      9  C   UNL     1      49.140   7.115  12.963  0.00  0.00    +0.000 C 
ATOM     10  C   UNL     1      48.441   6.516  14.185  0.00  0.00    +0.000 C 
BRANCH  10  11
ATOM     11  C   UNL     1      49.028   7.014  15.495  0.00  0.00    +0.000 A 
ATOM     12  C   UNL     1      49.707   8.217  15.618  0.00  0.00    +0.000 A 
ATOM     13  S   UNL     1      50.486   8.392  17.129  0.00  0.00    +0.000 S 
ATOM     14  C   UNL     1      49.723   7.004  17.745  0.00  0.00    +0.000 A 
ATOM     15  N   UNL     1      49.847   6.652  19.050  0.00  0.00    +0.000 NA
ATOM     16  C   UNL     1      49.087   5.672  19.408  0.00  0.00    +0.000 A 
ATOM     17  N   UNL     1      48.262   4.964  18.564  0.00  0.00    +0.000 N 
ATOM     18  C   UNL     1      48.174   5.233  17.215  0.00  0.00    +0.000 A 
ATOM     19  O   UNL     1      47.424   4.574  16.490  0.00  0.00    +0.000 OA
ATOM     20  C   UNL     1      48.954   6.371  16.779  0.00  0.00    +0.000 A 
ATOM     21  H   UNL     1      47.671   4.232  18.916  0.00  0.00    +0.000 HD
ENDBRANCH  10  11
ENDBRANCH   7  10
ENDBRANCH   1   7
BRANCH   4  22
ATOM     22  C   UNL     1      44.746   2.964  10.309  0.00  0.00    +0.000 C 
BRANCH  22  23
ATOM     23  O   UNL     1      43.557   2.320  10.768  0.00  0.00    +0.000 OA
ATOM     24  H   UNL     1      43.240   1.762  10.042  0.00  0.00    +0.000 HD
ENDBRANCH  22  23
BRANCH  22  25
ATOM     25  C   UNL     1      44.541   3.617   8.902  0.00  0.00    +0.000 C 
BRANCH  25  26
ATOM     26  N   UNL     1      45.341   3.024   7.812  0.00  0.00    +0.000 NA
ATOM     27  C   UNL     1      45.860   1.690   8.145  0.00  0.00    +0.000 C 
ATOM     28  C   UNL     1      47.220   1.565   7.459  0.00  0.00    +0.000 C 
ATOM     29  C   UNL     1      47.402   2.867   6.696  0.00  0.00    +0.000 C 
ATOM     30  C   UNL     1      46.504   3.850   7.446  0.00  0.00    +0.000 C 
BRANCH  29  31
ATOM     31  O   UNL     1      46.958   2.701   5.350  0.00  0.00    +0.000 OA
ATOM     32  H   UNL     1      47.683   3.031   4.788  0.00  0.00    +0.000 HD
ENDBRANCH  29  31
ENDBRANCH  25  26
ENDBRANCH  22  25
ENDBRANCH   4  22
TORSDOF 8
ENDMDL
MODEL 4
REMARK VINA RESULT:    -6.928      1.898      2.617
REMARK INTER + INTRA:         -10.695
REMARK INTER:                  -9.658
REMARK INTRA:                  -1.037
REMARK UNBOUND:                -0.932
REMARK  Name = 
REMARK  9 active torsions:
REMARK  status: ('A' for Active; 'I' for Inactive)
REMARK    1  A    between atoms: C_1  and  C_2
REMARK    2  A    between atoms: C_2  and  N_3
REMARK    3  A    between atoms: C_2  and  C_19
REMARK    4  A    between atoms: N_3  and  C_4
REMARK    5  A    between atoms: C_7  and  C_8
REMARK    6  A    between atoms: C_8  and  O_9
REMARK    7  A    between atoms: C_8  and  C_10
REMARK    8  A    between atoms: C_10  and  N_11
REMARK    9  A    between atoms: C_14  and  O_15
REMARK                            x       y       z     vdW  Elec       q    Type
REMARK                         _______ _______ _______ _____ _____    ______ ____
ROOT
ATOM      1  C   UNL     1      46.451   6.342  13.223  0.00  0.00    +0.000 A 
ATOM      2  C   UNL     1      46.031   5.085  13.668  0.00  0.00    +0.000 A 
ATOM      3  C   UNL     1      45.393   4.184  12.815  0.00  0.00    +0.000 A 
ATOM      4  C   UNL     1      45.151   4.520  11.477  0.00  0.00    +0.000 A 
ATOM      5  C   UNL     1      45.468   5.822  11.058  0.00  0.00    +0.000 A 
ATOM      6  C   UNL     1      46.106   6.720  11.924  0.00  0.00    +0.000 A 
ENDROOT
BRANCH   1   7
ATOM      7  N   UNL     1      47.302   7.130  13.973  0.00  0.00    +0.000 N 
ATOM      8  H   UNL     1      47.028   8.078  14.224  0.00  0.00    +0.000 HD
BRANCH   7  10
ATOM      9  C   UNL     1      49.714   7.341  13.748  0.00  0.00    +0.000 C 
ATOM     10  C   UNL     1      48.574   6.633  14.482  0.00  0.00    +0.000 C 
BRANCH  10  11
ATOM     11  C   UNL     1      48.752   6.651  15.991  0.00  0.00    +0.000 A 
ATOM     12  C   UNL     1      49.191   5.556  16.720  0.00  0.00    +0.000 A 
ATOM     13  S   UNL     1      49.038   5.774  18.409  0.00  0.00    +0.000 S 
ATOM     14  C   UNL     1      48.640   7.415  18.215  0.00  0.00    +0.000 A 
ATOM     15  N   UNL     1      48.511   8.239  19.286  0.00  0.00    +0.000 NA
ATOM     16  C   UNL     1      48.365   9.485  18.980  0.00  0.00    +0.000 A 
ATOM     17  N   UNL     1      48.269   9.976  17.698  0.00  0.00    +0.000 N 
ATOM     18  C   UNL     1      48.307   9.162  16.587  0.00  0.00    +0.000 A 
ATOM     19  O   UNL     1      48.214   9.640  15.453  0.00  0.00    +0.000 OA
ATOM     20  C   UNL     1      48.541   7.764  16.876  0.00  0.00    +0.000 A 
ATOM     21  H   UNL     1      48.189  10.964  17.530  0.00  0.00    +0.000 HD
ENDBRANCH  10  11
ENDBRANCH   7  10
ENDBRANCH   1   7
BRANCH   4  22
ATOM     22  C   UNL     1      44.594   3.483  10.521  0.00  0.00    +0.000 C 
BRANCH  22  23
ATOM     23  O   UNL     1      43.367   2.991  11.063  0.00  0.00    +0.000 OA
ATOM     24  H   UNL     1      42.955   2.443  10.377  0.00  0.00    +0.000 HD
ENDBRANCH  22  23
BRANCH  22  25
ATOM     25  C   UNL     1      44.401   4.041   9.072  0.00  0.00    +0.000 C 
BRANCH  25  26
ATOM     26  N   UNL     1      45.111   3.296   8.014  0.00  0.00    +0.000 NA
ATOM     27  C   UNL     1      45.479   1.933   8.422  0.00  0.00    +0.000 C 
ATOM     28  C   UNL     1      46.805   1.612   7.734  0.00  0.00    +0.000 C 
ATOM     29  C   UNL     1      47.123   2.836   6.893  0.00  0.00    +0.000 C 
ATOM     30  C   UNL     1      46.356   3.959   7.589  0.00  0.00    +0.000 C 
BRANCH  29  31
ATOM     31  O   UNL     1      46.644   2.644   5.563  0.00  0.00    +0.000 OA
ATOM     32  H   UNL     1      45.953   1.958   5.625  0.00  0.00    +0.000 HD
ENDBRANCH  29  31
ENDBRANCH  25  26
ENDBRANCH  22  25
ENDBRANCH   4  22
TORSDOF 8
ENDMDL
MODEL 5
REMARK VINA RESULT:    -6.910      2.197      2.734
REMARK INTER + INTRA:         -10.669
REMARK INTER:                  -9.139
REMARK INTRA:                  -1.530
REMARK UNBOUND:                -0.932
REMARK  Name = 
REMARK  9 active torsions:
REMARK  status: ('A' for Active; 'I' for Inactive)
REMARK    1  A    between atoms: C_1  and  C_2
REMARK    2  A    between atoms: C_2  and  N_3
REMARK    3  A    between atoms: C_2  and  C_19
REMARK    4  A    between atoms: N_3  and  C_4
REMARK    5  A    between atoms: C_7  and  C_8
REMARK    6  A    between atoms: C_8  and  O_9
REMARK    7  A    between atoms: C_8  and  C_10
REMARK    8  A    between atoms: C_10  and  N_11
REMARK    9  A    between atoms: C_14  and  O_15
REMARK                            x       y       z     vdW  Elec       q    Type
REMARK                         _______ _______ _______ _____ _____    ______ ____
ROOT
ATOM      1  C   UNL     1      47.907   6.457  13.494  0.00  0.00    +0.000 A 
ATOM      2  C   UNL     1      47.332   5.343  14.111  0.00  0.00    +0.000 A 
ATOM      3  C   UNL     1      46.014   4.964  13.852  0.00  0.00    +0.000 A 
ATOM      4  C   UNL     1      45.224   5.700  12.960  0.00  0.00    +0.000 A 
ATOM      5  C   UNL     1      45.761   6.883  12.428  0.00  0.00    +0.000 A 
ATOM      6  C   UNL     1      47.084   7.256  12.697  0.00  0.00    +0.000 A 
ENDROOT
BRANCH   1   7
ATOM      7  N   UNL     1      49.268   6.690  13.539  0.00  0.00    +0.000 N 
ATOM      8  H   UNL     1      49.901   6.111  12.990  0.00  0.00    +0.000 HD
BRANCH   7  10
ATOM      9  C   UNL     1      50.063   8.982  13.375  0.00  0.00    +0.000 C 
ATOM     10  C   UNL     1      49.843   7.788  14.306  0.00  0.00    +0.000 C 
BRANCH  10  11
ATOM     11  C   UNL     1      49.117   8.172  15.584  0.00  0.00    +0.000 A 
ATOM     12  C   UNL     1      48.346   9.318  15.709  0.00  0.00    +0.000 A 
ATOM     13  S   UNL     1      47.875   9.634  17.322  0.00  0.00    +0.000 S 
ATOM     14  C   UNL     1      48.456   8.124  17.844  0.00  0.00    +0.000 A 
ATOM     15  N   UNL     1      48.246   7.689  19.113  0.00  0.00    +0.000 NA
ATOM     16  C   UNL     1      48.601   6.465  19.318  0.00  0.00    +0.000 A 
ATOM     17  N   UNL     1      49.211   5.654  18.388  0.00  0.00    +0.000 N 
ATOM     18  C   UNL     1      49.521   6.087  17.117  0.00  0.00    +0.000 A 
ATOM     19  O   UNL     1      50.070   5.330  16.312  0.00  0.00    +0.000 OA
ATOM     20  C   UNL     1      49.077   7.430  16.816  0.00  0.00    +0.000 A 
ATOM     21  H   UNL     1      49.432   4.698  18.605  0.00  0.00    +0.000 HD
ENDBRANCH  10  11
ENDBRANCH   7  10
ENDBRANCH   1   7
BRANCH   4  22
ATOM     22  C   UNL     1      43.847   5.198  12.572  0.00  0.00    +0.000 C 
BRANCH  22  23
ATOM     23  O   UNL     1      42.906   5.697  13.523  0.00  0.00    +0.000 OA
ATOM     24  H   UNL     1      43.373   5.773  14.369  0.00  0.00    +0.000 HD
ENDBRANCH  22  23
BRANCH  22  25
ATOM     25  C   UNL     1      43.452   5.590  11.109  0.00  0.00    +0.000 C 
BRANCH  25  26
ATOM     26  N   UNL     1      43.718   4.557  10.089  0.00  0.00    +0.000 NA
ATOM     27  C   UNL     1      43.805   3.203  10.655  0.00  0.00    +0.000 C 
ATOM     28  C   UNL     1      44.837   2.446   9.821  0.00  0.00    +0.000 C 
ATOM     29  C   UNL     1      45.274   3.424   8.743  0.00  0.00    +0.000 C 
ATOM     30  C   UNL     1      44.974   4.790   9.358  0.00  0.00    +0.000 C 
BRANCH  29  31
ATOM     31  O   UNL     1      44.498   3.218   7.564  0.00  0.00    +0.000 OA
ATOM     32  H   UNL     1      43.597   3.518   7.781  0.00  0.00    +0.000 HD
ENDBRANCH  29  31
ENDBRANCH  25  26
ENDBRANCH  22  25
ENDBRANCH   4  22
TORSDOF 8
ENDMDL
MODEL 6
REMARK VINA RESULT:    -6.909      2.493      3.700
REMARK INTER + INTRA:         -10.668
REMARK INTER:                  -9.742
REMARK INTRA:                  -0.927
REMARK UNBOUND:                -0.932
REMARK  Name = 
REMARK  9 active torsions:
REMARK  status: ('A' for Active; 'I' for Inactive)
REMARK    1  A    between atoms: C_1  and  C_2
REMARK    2  A    between atoms: C_2  and  N_3
REMARK    3  A    between atoms: C_2  and  C_19
REMARK    4  A    between atoms: N_3  and  C_4
REMARK    5  A    between atoms: C_7  and  C_8
REMARK    6  A    between atoms: C_8  and  O_9
REMARK    7  A    between atoms: C_8  and  C_10
REMARK    8  A    between atoms: C_10  and  N_11
REMARK    9  A    between atoms: C_14  and  O_15
REMARK                            x       y       z     vdW  Elec       q    Type
REMARK                         _______ _______ _______ _____ _____    ______ ____
ROOT
ATOM      1  C   UNL     1      46.108   5.759  13.106  0.00  0.00    +0.000 A 
ATOM      2  C   UNL     1      45.894   4.418  13.434  0.00  0.00    +0.000 A 
ATOM      3  C   UNL     1      45.438   3.498  12.489  0.00  0.00    +0.000 A 
ATOM      4  C   UNL     1      45.177   3.901  11.173  0.00  0.00    +0.000 A 
ATOM      5  C   UNL     1      45.281   5.268  10.870  0.00  0.00    +0.000 A 
ATOM      6  C   UNL     1      45.737   6.183  11.828  0.00  0.00    +0.000 A 
ENDROOT
BRANCH   1   7
ATOM      7  N   UNL     1      46.796   6.612  13.948  0.00  0.00    +0.000 N 
ATOM      8  H   UNL     1      46.636   6.572  14.952  0.00  0.00    +0.000 HD
BRANCH   7  10
ATOM      9  C   UNL     1      47.207   8.949  13.416  0.00  0.00    +0.000 C 
ATOM     10  C   UNL     1      47.805   7.541  13.456  0.00  0.00    +0.000 C 
BRANCH  10  11
ATOM     11  C   UNL     1      49.157   7.501  14.149  0.00  0.00    +0.000 A 
ATOM     12  C   UNL     1      49.347   6.974  15.417  0.00  0.00    +0.000 A 
ATOM     13  S   UNL     1      50.901   7.304  16.050  0.00  0.00    +0.000 S 
ATOM     14  C   UNL     1      51.438   7.917  14.559  0.00  0.00    +0.000 A 
ATOM     15  N   UNL     1      52.737   8.257  14.364  0.00  0.00    +0.000 NA
ATOM     16  C   UNL     1      53.029   8.554  13.142  0.00  0.00    +0.000 A 
ATOM     17  N   UNL     1      52.124   8.608  12.106  0.00  0.00    +0.000 N 
ATOM     18  C   UNL     1      50.781   8.355  12.281  0.00  0.00    +0.000 A 
ATOM     19  O   UNL     1      50.001   8.416  11.327  0.00  0.00    +0.000 OA
ATOM     20  C   UNL     1      50.417   7.948  13.619  0.00  0.00    +0.000 A 
ATOM     21  H   UNL     1      52.426   8.814  11.170  0.00  0.00    +0.000 HD
ENDBRANCH  10  11
ENDBRANCH   7  10
ENDBRANCH   1   7
BRANCH   4  22
ATOM     22  C   UNL     1      44.825   2.870  10.118  0.00  0.00    +0.000 C 
BRANCH  22  23
ATOM     23  O   UNL     1      43.668   2.158  10.558  0.00  0.00    +0.000 OA
ATOM     24  H   UNL     1      43.402   1.574   9.831  0.00  0.00    +0.000 HD
ENDBRANCH  22  23
BRANCH  22  25
ATOM     25  C   UNL     1      44.609   3.504   8.704  0.00  0.00    +0.000 C 
BRANCH  25  26
ATOM     26  N   UNL     1      45.507   3.000   7.647  0.00  0.00    +0.000 NA
ATOM     27  C   UNL     1      46.053   1.669   7.945  0.00  0.00    +0.000 C 
ATOM     28  C   UNL     1      47.462   1.630   7.357  0.00  0.00    +0.000 C 
ATOM     29  C   UNL     1      47.648   2.977   6.679  0.00  0.00    +0.000 C 
ATOM     30  C   UNL     1      46.661   3.885   7.412  0.00  0.00    +0.000 C 
BRANCH  29  31
ATOM     31  O   UNL     1      47.309   2.871   5.297  0.00  0.00    +0.000 OA
ATOM     32  H   UNL     1      47.352   3.778   4.942  0.00  0.00    +0.000 HD
ENDBRANCH  29  31
ENDBRANCH  25  26
ENDBRANCH  22  25
ENDBRANCH   4  22
TORSDOF 8
ENDMDL
MODEL 7
REMARK VINA RESULT:    -6.629      2.668      3.760
REMARK INTER + INTRA:         -10.274
REMARK INTER:                  -8.967
REMARK INTRA:                  -1.307
REMARK UNBOUND:                -0.932
REMARK  Name = 
REMARK  9 active torsions:
REMARK  status: ('A' for Active; 'I' for Inactive)
REMARK    1  A    between atoms: C_1  and  C_2
REMARK    2  A    between atoms: C_2  and  N_3
REMARK    3  A    between atoms: C_2  and  C_19
REMARK    4  A    between atoms: N_3  and  C_4
REMARK    5  A    between atoms: C_7  and  C_8
REMARK    6  A    between atoms: C_8  and  O_9
REMARK    7  A    between atoms: C_8  and  C_10
REMARK    8  A    between atoms: C_10  and  N_11
REMARK    9  A    between atoms: C_14  and  O_15
REMARK                            x       y       z     vdW  Elec       q    Type
REMARK                         _______ _______ _______ _____ _____    ______ ____
ROOT
ATOM      1  C   UNL     1      49.322   7.786  13.776  0.00  0.00    +0.000 A 
ATOM      2  C   UNL     1      48.339   8.735  14.071  0.00  0.00    +0.000 A 
ATOM      3  C   UNL     1      47.020   8.578  13.644  0.00  0.00    +0.000 A 
ATOM      4  C   UNL     1      46.643   7.455  12.896  0.00  0.00    +0.000 A 
ATOM      5  C   UNL     1      47.650   6.560  12.501  0.00  0.00    +0.000 A 
ATOM      6  C   UNL     1      48.972   6.728  12.934  0.00  0.00    +0.000 A 
ENDROOT
BRANCH   1   7
ATOM      7  N   UNL     1      50.553   7.796  14.403  0.00  0.00    +0.000 N 
ATOM      8  H   UNL     1      51.295   8.399  14.055  0.00  0.00    +0.000 HD
BRANCH   7  10
ATOM      9  C   UNL     1      52.322   7.039  15.890  0.00  0.00    +0.000 C 
ATOM     10  C   UNL     1      50.820   7.011  15.602  0.00  0.00    +0.000 C 
BRANCH  10  11
ATOM     11  C   UNL     1      49.985   7.342  16.827  0.00  0.00    +0.000 A 
ATOM     12  C   UNL     1      50.143   8.505  17.566  0.00  0.00    +0.000 A 
ATOM     13  S   UNL     1      49.266   8.488  19.033  0.00  0.00    +0.000 S 
ATOM     14  C   UNL     1      48.452   7.062  18.593  0.00  0.00    +0.000 A 
ATOM     15  N   UNL     1      47.444   6.563  19.352  0.00  0.00    +0.000 NA
ATOM     16  C   UNL     1      46.817   5.571  18.814  0.00  0.00    +0.000 A 
ATOM     17  N   UNL     1      47.150   4.985  17.614  0.00  0.00    +0.000 N 
ATOM     18  C   UNL     1      48.221   5.406  16.856  0.00  0.00    +0.000 A 
ATOM     19  O   UNL     1      48.490   4.853  15.786  0.00  0.00    +0.000 OA
ATOM     20  C   UNL     1      48.912   6.562  17.383  0.00  0.00    +0.000 A 
ATOM     21  H   UNL     1      46.598   4.235  17.237  0.00  0.00    +0.000 HD
ENDBRANCH  10  11
ENDBRANCH   7  10
ENDBRANCH   1   7
BRANCH   4  22
ATOM     22  C   UNL     1      45.183   7.219  12.563  0.00  0.00    +0.000 C 
BRANCH  22  23
ATOM     23  O   UNL     1      44.532   8.488  12.486  0.00  0.00    +0.000 OA
ATOM     24  H   UNL     1      43.885   8.429  11.766  0.00  0.00    +0.000 HD
ENDBRANCH  22  23
BRANCH  22  25
ATOM     25  C   UNL     1      44.991   6.391  11.249  0.00  0.00    +0.000 C 
BRANCH  25  26
ATOM     26  N   UNL     1      44.778   4.944  11.445  0.00  0.00    +0.000 NA
ATOM     27  C   UNL     1      45.086   4.153  10.245  0.00  0.00    +0.000 C 
ATOM     28  C   UNL     1      44.110   2.977  10.233  0.00  0.00    +0.000 C 
ATOM     29  C   UNL     1      43.289   3.128  11.502  0.00  0.00    +0.000 C 
ATOM     30  C   UNL     1      43.391   4.619  11.819  0.00  0.00    +0.000 C 
BRANCH  29  31
ATOM     31  O   UNL     1      43.869   2.347  12.546  0.00  0.00    +0.000 OA
ATOM     32  H   UNL     1      44.815   2.266  12.324  0.00  0.00    +0.000 HD
ENDBRANCH  29  31
ENDBRANCH  25  26
ENDBRANCH  22  25
ENDBRANCH   4  22
TORSDOF 8
ENDMDL
MODEL 8
REMARK VINA RESULT:    -6.603      2.709      3.586
REMARK INTER + INTRA:         -10.237
REMARK INTER:                  -8.978
REMARK INTRA:                  -1.259
REMARK UNBOUND:                -0.932
REMARK  Name = 
REMARK  9 active torsions:
REMARK  status: ('A' for Active; 'I' for Inactive)
REMARK    1  A    between atoms: C_1  and  C_2
REMARK    2  A    between atoms: C_2  and  N_3
REMARK    3  A    between atoms: C_2  and  C_19
REMARK    4  A    between atoms: N_3  and  C_4
REMARK    5  A    between atoms: C_7  and  C_8
REMARK    6  A    between atoms: C_8  and  O_9
REMARK    7  A    between atoms: C_8  and  C_10
REMARK    8  A    between atoms: C_10  and  N_11
REMARK    9  A    between atoms: C_14  and  O_15
REMARK                            x       y       z     vdW  Elec       q    Type
REMARK                         _______ _______ _______ _____ _____    ______ ____
ROOT
ATOM      1  C   UNL     1      47.518   7.228  13.336  0.00  0.00    +0.000 A 
ATOM      2  C   UNL     1      47.339   5.881  13.663  0.00  0.00    +0.000 A 
ATOM      3  C   UNL     1      46.119   5.236  13.458  0.00  0.00    +0.000 A 
ATOM      4  C   UNL     1      45.030   5.929  12.917  0.00  0.00    +0.000 A 
ATOM      5  C   UNL     1      45.171   7.308  12.695  0.00  0.00    +0.000 A 
ATOM      6  C   UNL     1      46.400   7.947  12.906  0.00  0.00    +0.000 A 
ENDROOT
BRANCH   1   7
ATOM      7  N   UNL     1      48.773   7.804  13.289  0.00  0.00    +0.000 N 
ATOM      8  H   UNL     1      48.957   8.570  12.644  0.00  0.00    +0.000 HD
BRANCH   7  10
ATOM      9  C   UNL     1      51.110   8.189  13.841  0.00  0.00    +0.000 C 
ATOM     10  C   UNL     1      49.849   7.394  14.184  0.00  0.00    +0.000 C 
BRANCH  10  11
ATOM     11  C   UNL     1      49.534   7.412  15.670  0.00  0.00    +0.000 A 
ATOM     12  C   UNL     1      49.891   6.389  16.537  0.00  0.00    +0.000 A 
ATOM     13  S   UNL     1      49.178   6.547  18.083  0.00  0.00    +0.000 S 
ATOM     14  C   UNL     1      48.602   8.104  17.719  0.00  0.00    +0.000 A 
ATOM     15  N   UNL     1      48.009   8.874  18.666  0.00  0.00    +0.000 NA
ATOM     16  C   UNL     1      47.768  10.085  18.288  0.00  0.00    +0.000 A 
ATOM     17  N   UNL     1      48.005  10.579  17.025  0.00  0.00    +0.000 N 
ATOM     18  C   UNL     1      48.523   9.803  16.011  0.00  0.00    +0.000 A 
ATOM     19  O   UNL     1      48.719  10.282  14.891  0.00  0.00    +0.000 OA
ATOM     20  C   UNL     1      48.876   8.458  16.406  0.00  0.00    +0.000 A 
ATOM     21  H   UNL     1      47.823  11.543  16.808  0.00  0.00    +0.000 HD
ENDBRANCH  10  11
ENDBRANCH   7  10
ENDBRANCH   1   7
BRANCH   4  22
ATOM     22  C   UNL     1      43.756   5.185  12.561  0.00  0.00    +0.000 C 
BRANCH  22  23
ATOM     23  O   UNL     1      42.765   5.505  13.538  0.00  0.00    +0.000 OA
ATOM     24  H   UNL     1      42.236   4.704  13.676  0.00  0.00    +0.000 HD
ENDBRANCH  22  23
BRANCH  22  25
ATOM     25  C   UNL     1      43.260   5.501  11.111  0.00  0.00    +0.000 C 
BRANCH  25  26
ATOM     26  N   UNL     1      43.621   4.497  10.092  0.00  0.00    +0.000 NA
ATOM     27  C   UNL     1      43.801   3.150  10.653  0.00  0.00    +0.000 C 
ATOM     28  C   UNL     1      44.902   2.477   9.835  0.00  0.00    +0.000 C 
ATOM     29  C   UNL     1      45.284   3.492   8.771  0.00  0.00    +0.000 C 
ATOM     30  C   UNL     1      44.871   4.829   9.386  0.00  0.00    +0.000 C 
BRANCH  29  31
ATOM     31  O   UNL     1      44.548   3.235   7.575  0.00  0.00    +0.000 OA
ATOM     32  H   UNL     1      43.946   2.499   7.786  0.00  0.00    +0.000 HD
ENDBRANCH  29  31
ENDBRANCH  25  26
ENDBRANCH  22  25
ENDBRANCH   4  22
TORSDOF 8
ENDMDL
MODEL 9
REMARK VINA RESULT:    -6.568      3.004      4.100
REMARK INTER + INTRA:         -10.187
REMARK INTER:                  -9.141
REMARK INTRA:                  -1.046
REMARK UNBOUND:                -0.932
REMARK  Name = 
REMARK  9 active torsions:
REMARK  status: ('A' for Active; 'I' for Inactive)
REMARK    1  A    between atoms: C_1  and  C_2
REMARK    2  A    between atoms: C_2  and  N_3
REMARK    3  A    between atoms: C_2  and  C_19
REMARK    4  A    between atoms: N_3  and  C_4
REMARK    5  A    between atoms: C_7  and  C_8
REMARK    6  A    between atoms: C_8  and  O_9
REMARK    7  A    between atoms: C_8  and  C_10
REMARK    8  A    between atoms: C_10  and  N_11
REMARK    9  A    between atoms: C_14  and  O_15
REMARK                            x       y       z     vdW  Elec       q    Type
REMARK                         _______ _______ _______ _____ _____    ______ ____
ROOT
ATOM      1  C   UNL     1      46.851   6.191  13.216  0.00  0.00    +0.000 A 
ATOM      2  C   UNL     1      46.402   4.948  13.670  0.00  0.00    +0.000 A 
ATOM      3  C   UNL     1      45.562   4.147  12.896  0.00  0.00    +0.000 A 
ATOM      4  C   UNL     1      45.139   4.575  11.631  0.00  0.00    +0.000 A 
ATOM      5  C   UNL     1      45.495   5.869  11.221  0.00  0.00    +0.000 A 
ATOM      6  C   UNL     1      46.337   6.666  12.008  0.00  0.00    +0.000 A 
ENDROOT
BRANCH   1   7
ATOM      7  N   UNL     1      47.876   6.868  13.849  0.00  0.00    +0.000 N 
ATOM      8  H   UNL     1      48.588   6.350  14.359  0.00  0.00    +0.000 HD
BRANCH   7  10
ATOM      9  C   UNL     1      47.839   8.915  15.162  0.00  0.00    +0.000 C 
ATOM     10  C   UNL     1      48.016   8.317  13.765  0.00  0.00    +0.000 C 
BRANCH  10  11
ATOM     11  C   UNL     1      49.259   8.835  13.062  0.00  0.00    +0.000 A 
ATOM     12  C   UNL     1      49.221   9.762  12.031  0.00  0.00    +0.000 A 
ATOM     13  S   UNL     1      50.731   9.957  11.253  0.00  0.00    +0.000 S 
ATOM     14  C   UNL     1      51.521   9.021  12.432  0.00  0.00    +0.000 A 
ATOM     15  N   UNL     1      52.872   8.896  12.442  0.00  0.00    +0.000 NA
ATOM     16  C   UNL     1      53.339   8.290  13.483  0.00  0.00    +0.000 A 
ATOM     17  N   UNL     1      52.573   7.738  14.484  0.00  0.00    +0.000 N 
ATOM     18  C   UNL     1      51.195   7.767  14.465  0.00  0.00    +0.000 A 
ATOM     19  O   UNL     1      50.543   7.258  15.381  0.00  0.00    +0.000 OA
ATOM     20  C   UNL     1      50.626   8.497  13.354  0.00  0.00    +0.000 A 
ATOM     21  H   UNL     1      53.004   7.309  15.284  0.00  0.00    +0.000 HD
ENDBRANCH  10  11
ENDBRANCH   7  10
ENDBRANCH   1   7
BRANCH   4  22
ATOM     22  C   UNL     1      44.349   3.638  10.737  0.00  0.00    +0.000 C 
BRANCH  22  23
ATOM     23  O   UNL     1      43.077   3.409  11.344  0.00  0.00    +0.000 OA
ATOM     24  H   UNL     1      42.536   2.932  10.695  0.00  0.00    +0.000 HD
ENDBRANCH  22  23
BRANCH  22  25
ATOM     25  C   UNL     1      44.202   4.181   9.276  0.00  0.00    +0.000 C 
BRANCH  25  26
ATOM     26  N   UNL     1      44.891   3.387   8.240  0.00  0.00    +0.000 NA
ATOM     27  C   UNL     1      45.147   2.001   8.656  0.00  0.00    +0.000 C 
ATOM     28  C   UNL     1      46.468   1.586   8.012  0.00  0.00    +0.000 C 
ATOM     29  C   UNL     1      46.901   2.785   7.184  0.00  0.00    +0.000 C 
ATOM     30  C   UNL     1      46.193   3.960   7.858  0.00  0.00    +0.000 C 
BRANCH  29  31
ATOM     31  O   UNL     1      46.452   2.628   5.839  0.00  0.00    +0.000 OA
ATOM     32  H   UNL     1      45.713   1.993   5.876  0.00  0.00    +0.000 HD
ENDBRANCH  29  31
ENDBRANCH  25  26
ENDBRANCH  22  25
ENDBRANCH   4  22
TORSDOF 8
ENDMDL
