MODEL 1
REMARK VINA RESULT:    -7.263      0.000      0.000
REMARK INTER + INTRA:          -9.461
REMARK INTER:                  -8.962
REMARK INTRA:                  -0.499
REMARK UNBOUND:                -0.499
REMARK  Name = 
REMARK  6 active torsions:
REMARK  status: ('A' for Active; 'I' for Inactive)
REMARK    1  A    between atoms: C_1  and  C_2
REMARK    2  A    between atoms: C_2  and  C_3
REMARK    3  A    between atoms: C_2  and  C_4
REMARK    4  A    between atoms: C_2  and  C_19
REMARK    5  A    between atoms: C_4  and  N_5
REMARK    6  A    between atoms: C_11  and  C_12
REMARK                            x       y       z     vdW  Elec       q    Type
REMARK                         _______ _______ _______ _____ _____    ______ ____
ROOT
ATOM      1  N   UNL     1      46.026   5.542  11.769  0.00  0.00    +0.000 N 
ATOM      2  C   UNL     1      46.887   6.010  12.775  0.00  0.00    +0.000 A 
ATOM      3  C   UNL     1      47.513   7.236  12.545  0.00  0.00    +0.000 A 
ATOM      4  C   UNL     1      48.363   7.765  13.506  0.00  0.00    +0.000 A 
ATOM      5  C   UNL     1      48.571   7.052  14.672  0.00  0.00    +0.000 A 
ATOM      6  F   UNL     1      49.400   7.563  15.594  0.00  0.00    +0.000 F 
ATOM      7  C   UNL     1      47.932   5.825  14.856  0.00  0.00    +0.000 A 
ATOM      8  N   UNL     1      47.109   5.300  13.900  0.00  0.00    +0.000 NA
ATOM      9  H   UNL     1      45.381   6.296  11.551  0.00  0.00    +0.000 HD
ENDROOT
BRANCH   7  10
ATOM     10  C   UNL     1      48.090   5.019  16.081  0.00  0.00    +0.000 A 
ATOM     11  C   UNL     1      47.267   3.919  16.358  0.00  0.00    +0.000 A 
ATOM     12  C   UNL     1      47.452   3.164  17.518  0.00  0.00    +0.000 A 
ATOM     13  C   UNL     1      48.459   3.537  18.390  0.00  0.00    +0.000 A 
ATOM     14  N   UNL     1      49.269   4.594  18.185  0.00  0.00    +0.000 NA
ATOM     15  C   UNL     1      49.063   5.302  17.045  0.00  0.00    +0.000 A 
ENDBRANCH   7  10
BRANCH   1  16
ATOM     16  C   UNL     1      45.322   4.276  12.043  0.00  0.00    +0.000 C 
BRANCH  16  18
ATOM     17  C   UNL     1      43.403   2.753  11.343  0.00  0.00    +0.000 C 
ATOM     18  C   UNL     1      44.290   3.946  10.920  0.00  0.00    +0.000 C 
ATOM     19  C   UNL     1      43.405   5.178  10.643  0.00  0.00    +0.000 C 
BRANCH  18  20
ATOM     20  C   UNL     1      44.995   3.543   9.623  0.00  0.00    +0.000 A 
ATOM     21  N   UNL     1      45.222   2.224   9.428  0.00  0.00    +0.000 NA
ATOM     22  C   UNL     1      45.912   1.874   8.327  0.00  0.00    +0.000 A 
ATOM     23  C   UNL     1      46.382   2.781   7.412  0.00  0.00    +0.000 A 
ATOM     24  C   UNL     1      46.097   4.095   7.687  0.00  0.00    +0.000 A 
ATOM     25  N   UNL     1      45.415   4.501   8.777  0.00  0.00    +0.000 NA
ENDBRANCH  18  20
ENDBRANCH  16  18
ENDBRANCH   1  16
TORSDOF 4
ENDMDL
MODEL 2
REMARK VINA RESULT:    -7.071      2.307      7.349
REMARK INTER + INTRA:          -9.224
REMARK INTER:                  -8.501
REMARK INTRA:                  -0.723
REMARK UNBOUND:                -0.499
REMARK  Name = 
REMARK  6 active torsions:
REMARK  status: ('A' for Active; 'I' for Inactive)
REMARK    1  A    between atoms: C_1  and  C_2
REMARK    2  A    between atoms: C_2  and  C_3
REMARK    3  A    between atoms: C_2  and  C_4
REMARK    4  A    between atoms: C_2  and  C_19
REMARK    5  A    between atoms: C_4  and  N_5
REMARK    6  A    between atoms: C_11  and  C_12
REMARK                            x       y       z     vdW  Elec       q    Type
REMARK                         _______ _______ _______ _____ _____    ______ ____
ROOT
ATOM      1  N   UNL     1      45.863   7.105  13.233  0.00  0.00    +0.000 N 
ATOM      2  C   UNL     1      45.095   6.108  12.612  0.00  0.00    +0.000 A 
ATOM      3  C   UNL     1      43.869   5.800  13.205  0.00  0.00    +0.000 A 
ATOM      4  C   UNL     1      43.051   4.835  12.633  0.00  0.00    +0.000 A 
ATOM      5  C   UNL     1      43.482   4.197  11.484  0.00  0.00    +0.000 A 
ATOM      6  F   UNL     1      42.693   3.260  10.939  0.00  0.00    +0.000 F 
ATOM      7  C   UNL     1      44.720   4.530  10.931  0.00  0.00    +0.000 A 
ATOM      8  N   UNL     1      45.529   5.469  11.507  0.00  0.00    +0.000 NA
ATOM      9  H   UNL     1      45.259   7.911  13.365  0.00  0.00    +0.000 HD
ENDROOT
BRANCH   7  10
ATOM     10  C   UNL     1      45.235   3.907   9.697  0.00  0.00    +0.000 A 
ATOM     11  C   UNL     1      45.287   2.515   9.533  0.00  0.00    +0.000 A 
ATOM     12  C   UNL     1      45.764   1.955   8.348  0.00  0.00    +0.000 A 
ATOM     13  C   UNL     1      46.195   2.806   7.345  0.00  0.00    +0.000 A 
ATOM     14  N   UNL     1      46.184   4.149   7.453  0.00  0.00    +0.000 NA
ATOM     15  C   UNL     1      45.710   4.658   8.618  0.00  0.00    +0.000 A 
ENDBRANCH   7  10
BRANCH   1  16
ATOM     16  C   UNL     1      47.129   7.468  12.570  0.00  0.00    +0.000 C 
BRANCH  16  18
ATOM     17  C   UNL     1      49.659   7.403  12.870  0.00  0.00    +0.000 C 
ATOM     18  C   UNL     1      48.303   7.555  13.596  0.00  0.00    +0.000 C 
ATOM     19  C   UNL     1      48.256   8.909  14.332  0.00  0.00    +0.000 C 
BRANCH  18  20
ATOM     20  C   UNL     1      48.218   6.428  14.628  0.00  0.00    +0.000 A 
ATOM     21  N   UNL     1      47.726   5.241  14.207  0.00  0.00    +0.000 NA
ATOM     22  C   UNL     1      47.576   4.274  15.130  0.00  0.00    +0.000 A 
ATOM     23  C   UNL     1      47.899   4.438  16.453  0.00  0.00    +0.000 A 
ATOM     24  C   UNL     1      48.400   5.672  16.787  0.00  0.00    +0.000 A 
ATOM     25  N   UNL     1      48.565   6.677  15.904  0.00  0.00    +0.000 NA
ENDBRANCH  18  20
ENDBRANCH  16  18
ENDBRANCH   1  16
TORSDOF 4
ENDMDL
MODEL 3
REMARK VINA RESULT:    -6.889      2.595      6.933
REMARK INTER + INTRA:          -8.999
REMARK INTER:                  -7.980
REMARK INTRA:                  -1.019
REMARK UNBOUND:                -0.499
REMARK  Name = 
REMARK  6 active torsions:
REMARK  status: ('A' for Active; 'I' for Inactive)
REMARK    1  A    between atoms: C_1  and  C_2
REMARK    2  A    between atoms: C_2  and  C_3
REMARK    3  A    between atoms: C_2  and  C_4
REMARK    4  A    between atoms: C_2  and  C_19
REMARK    5  A    between atoms: C_4  and  N_5
REMARK    6  A    between atoms: C_11  and  C_12
REMARK                            x       y       z     vdW  Elec       q    Type
REMARK                         _______ _______ _______ _____ _____    ______ ____
ROOT
ATOM      1  N   UNL     1      48.272   8.274  13.570  0.00  0.00    +0.000 N 
ATOM      2  C   UNL     1      47.030   8.115  12.935  0.00  0.00    +0.000 A 
ATOM      3  C   UNL     1      46.413   9.275  12.464  0.00  0.00    +0.000 A 
ATOM      4  C   UNL     1      45.191   9.187  11.811  0.00  0.00    +0.000 A 
ATOM      5  C   UNL     1      44.614   7.941  11.649  0.00  0.00    +0.000 A 
ATOM      6  F   UNL     1      43.430   7.862  11.025  0.00  0.00    +0.000 F 
ATOM      7  C   UNL     1      45.262   6.808  12.144  0.00  0.00    +0.000 A 
ATOM      8  N   UNL     1      46.457   6.901  12.801  0.00  0.00    +0.000 NA
ATOM      9  H   UNL     1      48.858   8.827  12.951  0.00  0.00    +0.000 HD
ENDROOT
BRANCH   7  10
ATOM     10  C   UNL     1      44.718   5.447  11.990  0.00  0.00    +0.000 A 
ATOM     11  C   UNL     1      44.692   4.792  10.751  0.00  0.00    +0.000 A 
ATOM     12  C   UNL     1      44.186   3.496  10.639  0.00  0.00    +0.000 A 
ATOM     13  C   UNL     1      43.700   2.880  11.780  0.00  0.00    +0.000 A 
ATOM     14  N   UNL     1      43.683   3.466  12.992  0.00  0.00    +0.000 NA
ATOM     15  C   UNL     1      44.187   4.725  13.064  0.00  0.00    +0.000 A 
ENDBRANCH   7  10
BRANCH   1  16
ATOM     16  C   UNL     1      48.948   7.040  14.012  0.00  0.00    +0.000 C 
BRANCH  16  18
ATOM     17  C   UNL     1      50.720   6.951  15.841  0.00  0.00    +0.000 C 
ATOM     18  C   UNL     1      49.205   7.054  15.552  0.00  0.00    +0.000 C 
ATOM     19  C   UNL     1      48.646   8.354  16.164  0.00  0.00    +0.000 C 
BRANCH  18  20
ATOM     20  C   UNL     1      48.536   5.859  16.233  0.00  0.00    +0.000 A 
ATOM     21  N   UNL     1      47.932   4.951  15.434  0.00  0.00    +0.000 NA
ATOM     22  C   UNL     1      47.275   3.942  16.033  0.00  0.00    +0.000 A 
ATOM     23  C   UNL     1      47.198   3.797  17.395  0.00  0.00    +0.000 A 
ATOM     24  C   UNL     1      47.848   4.759  18.127  0.00  0.00    +0.000 A 
ATOM     25  N   UNL     1      48.516   5.794  17.577  0.00  0.00    +0.000 NA
ENDBRANCH  18  20
ENDBRANCH  16  18
ENDBRANCH   1  16
TORSDOF 4
ENDMDL
MODEL 4
REMARK VINA RESULT:    -6.887      3.049      7.523
REMARK INTER + INTRA:          -8.996
REMARK INTER:                  -8.264
REMARK INTRA:                  -0.732
REMARK UNBOUND:                -0.499
REMARK  Name = 
REMARK  6 active torsions:
REMARK  status: ('A' for Active; 'I' for Inactive)
REMARK    1  A    between atoms: C_1  and  C_2
REMARK    2  A    between atoms: C_2  and  C_3
REMARK    3  A    between atoms: C_2  and  C_4
REMARK    4  A    between atoms: C_2  and  C_19
REMARK    5  A    between atoms: C_4  and  N_5
REMARK    6  A    between atoms: C_11  and  C_12
REMARK                            x       y       z     vdW  Elec       q    Type
REMARK                         _______ _______ _______ _____ _____    ______ ____
ROOT
ATOM      1  N   UNL     1      46.964   4.125  15.241  0.00  0.00    +0.000 N 
ATOM      2  C   UNL     1      46.636   4.752  14.028  0.00  0.00    +0.000 A 
ATOM      3  C   UNL     1      45.707   4.100  13.216  0.00  0.00    +0.000 A 
ATOM      4  C   UNL     1      45.324   4.673  12.011  0.00  0.00    +0.000 A 
ATOM      5  C   UNL     1      45.886   5.883  11.645  0.00  0.00    +0.000 A 
ATOM      6  F   UNL     1      45.520   6.429  10.476  0.00  0.00    +0.000 F 
ATOM      7  C   UNL     1      46.819   6.495  12.484  0.00  0.00    +0.000 A 
ATOM      8  N   UNL     1      47.204   5.919  13.661  0.00  0.00    +0.000 NA
ATOM      9  H   UNL     1      46.090   3.907  15.713  0.00  0.00    +0.000 HD
ENDROOT
BRANCH   7  10
ATOM     10  C   UNL     1      47.443   7.794  12.169  0.00  0.00    +0.000 A 
ATOM     11  C   UNL     1      48.784   7.897  11.773  0.00  0.00    +0.000 A 
ATOM     12  C   UNL     1      49.342   9.138  11.465  0.00  0.00    +0.000 A 
ATOM     13  C   UNL     1      48.543  10.263  11.571  0.00  0.00    +0.000 A 
ATOM     14  N   UNL     1      47.255  10.226  11.962  0.00  0.00    +0.000 NA
ATOM     15  C   UNL     1      46.744   9.002  12.250  0.00  0.00    +0.000 A 
ENDBRANCH   7  10
BRANCH   1  16
ATOM     16  C   UNL     1      47.900   4.847  16.122  0.00  0.00    +0.000 C 
BRANCH  16  18
ATOM     17  C   UNL     1      47.946   5.002  18.665  0.00  0.00    +0.000 C 
ATOM     18  C   UNL     1      48.146   4.066  17.451  0.00  0.00    +0.000 C 
ATOM     19  C   UNL     1      47.171   2.875  17.547  0.00  0.00    +0.000 C 
BRANCH  18  20
ATOM     20  C   UNL     1      49.580   3.538  17.523  0.00  0.00    +0.000 A 
ATOM     21  N   UNL     1      49.807   2.299  17.029  0.00  0.00    +0.000 NA
ATOM     22  C   UNL     1      51.049   1.801  17.162  0.00  0.00    +0.000 A 
ATOM     23  C   UNL     1      52.076   2.485  17.763  0.00  0.00    +0.000 A 
ATOM     24  C   UNL     1      51.756   3.737  18.226  0.00  0.00    +0.000 A 
ATOM     25  N   UNL     1      50.527   4.282  18.124  0.00  0.00    +0.000 NA
ENDBRANCH  18  20
ENDBRANCH  16  18
ENDBRANCH   1  16
TORSDOF 4
ENDMDL
MODEL 5
REMARK VINA RESULT:    -6.850      2.944      5.154
REMARK INTER + INTRA:          -8.951
REMARK INTER:                  -7.815
REMARK INTRA:                  -1.136
REMARK UNBOUND:                -0.499
REMARK  Name = 
REMARK  6 active torsions:
REMARK  status: ('A' for Active; 'I' for Inactive)
REMARK    1  A    between atoms: C_1  and  C_2
REMARK    2  A    between atoms: C_2  and  C_3
REMARK    3  A    between atoms: C_2  and  C_4
REMARK    4  A    between atoms: C_2  and  C_19
REMARK    5  A    between atoms: C_4  and  N_5
REMARK    6  A    between atoms: C_11  and  C_12
REMARK                            x       y       z     vdW  Elec       q    Type
REMARK                         _______ _______ _______ _____ _____    ______ ____
ROOT
ATOM      1  N   UNL     1      48.439   7.350  15.885  0.00  0.00    +0.000 N 
ATOM      2  C   UNL     1      48.631   6.471  16.963  0.00  0.00    +0.000 A 
ATOM      3  C   UNL     1      47.902   6.733  18.124  0.00  0.00    +0.000 A 
ATOM      4  C   UNL     1      48.032   5.893  19.222  0.00  0.00    +0.000 A 
ATOM      5  C   UNL     1      48.892   4.814  19.133  0.00  0.00    +0.000 A 
ATOM      6  F   UNL     1      49.020   4.011  20.199  0.00  0.00    +0.000 F 
ATOM      7  C   UNL     1      49.609   4.596  17.956  0.00  0.00    +0.000 A 
ATOM      8  N   UNL     1      49.490   5.434  16.883  0.00  0.00    +0.000 NA
ATOM      9  H   UNL     1      47.437   7.423  15.731  0.00  0.00    +0.000 HD
ENDROOT
BRANCH   7  10
ATOM     10  C   UNL     1      50.528   3.456  17.782  0.00  0.00    +0.000 A 
ATOM     11  C   UNL     1      51.870   3.515  18.181  0.00  0.00    +0.000 A 
ATOM     12  C   UNL     1      52.712   2.414  18.019  0.00  0.00    +0.000 A 
ATOM     13  C   UNL     1      52.191   1.268  17.444  0.00  0.00    +0.000 A 
ATOM     14  N   UNL     1      50.915   1.159  17.027  0.00  0.00    +0.000 NA
ATOM     15  C   UNL     1      50.125   2.248  17.204  0.00  0.00    +0.000 A 
ENDBRANCH   7  10
BRANCH   1  16
ATOM     16  C   UNL     1      49.166   7.035  14.642  0.00  0.00    +0.000 C 
BRANCH  16  18
ATOM     17  C   UNL     1      47.293   8.412  13.600  0.00  0.00    +0.000 C 
ATOM     18  C   UNL     1      48.256   7.223  13.388  0.00  0.00    +0.000 C 
ATOM     19  C   UNL     1      49.128   7.476  12.142  0.00  0.00    +0.000 C 
BRANCH  18  20
ATOM     20  C   UNL     1      47.392   5.984  13.143  0.00  0.00    +0.000 A 
ATOM     21  N   UNL     1      46.342   6.119  12.301  0.00  0.00    +0.000 NA
ATOM     22  C   UNL     1      45.536   5.055  12.146  0.00  0.00    +0.000 A 
ATOM     23  C   UNL     1      45.732   3.859  12.790  0.00  0.00    +0.000 A 
ATOM     24  C   UNL     1      46.826   3.811  13.618  0.00  0.00    +0.000 A 
ATOM     25  N   UNL     1      47.663   4.849  13.814  0.00  0.00    +0.000 NA
ENDBRANCH  18  20
ENDBRANCH  16  18
ENDBRANCH   1  16
TORSDOF 4
ENDMDL
MODEL 6
REMARK VINA RESULT:    -6.628      1.731      2.523
REMARK INTER + INTRA:          -8.677
REMARK INTER:                  -7.929
REMARK INTRA:                  -0.748
REMARK UNBOUND:                -0.499
REMARK  Name = 
REMARK  6 active torsions:
REMARK  status: ('A' for Active; 'I' for Inactive)
REMARK    1  A    between atoms: C_1  and  C_2
REMARK    2  A    between atoms: C_2  and  C_3
REMARK    3  A    between atoms: C_2  and  C_4
REMARK    4  A    between atoms: C_2  and  C_19
REMARK    5  A    between atoms: C_4  and  N_5
REMARK    6  A    between atoms: C_11  and  C_12
REMARK                            x       y       z     vdW  Elec       q    Type
REMARK                         _______ _______ _______ _____ _____    ______ ____
ROOT
ATOM      1  N   UNL     1      45.172   6.570  11.990  0.00  0.00    +0.000 N 
ATOM      2  C   UNL     1      46.167   7.401  12.529  0.00  0.00    +0.000 A 
ATOM      3  C   UNL     1      46.143   8.742  12.142  0.00  0.00    +0.000 A 
ATOM      4  C   UNL     1      47.087   9.622  12.652  0.00  0.00    +0.000 A 
ATOM      5  C   UNL     1      48.038   9.138  13.533  0.00  0.00    +0.000 A 
ATOM      6  F   UNL     1      48.953   9.990  14.015  0.00  0.00    +0.000 F 
ATOM      7  C   UNL     1      48.030   7.787  13.884  0.00  0.00    +0.000 A 
ATOM      8  N   UNL     1      47.108   6.921  13.368  0.00  0.00    +0.000 NA
ATOM      9  H   UNL     1      44.279   7.026  12.152  0.00  0.00    +0.000 HD
ENDROOT
BRANCH   7  10
ATOM     10  C   UNL     1      48.999   7.205  14.832  0.00  0.00    +0.000 A 
ATOM     11  C   UNL     1      50.342   7.606  14.863  0.00  0.00    +0.000 A 
ATOM     12  C   UNL     1      51.231   7.050  15.783  0.00  0.00    +0.000 A 
ATOM     13  C   UNL     1      50.757   6.085  16.654  0.00  0.00    +0.000 A 
ATOM     14  N   UNL     1      49.482   5.649  16.660  0.00  0.00    +0.000 NA
ATOM     15  C   UNL     1      48.645   6.215  15.754  0.00  0.00    +0.000 A 
ENDBRANCH   7  10
BRANCH   1  16
ATOM     16  C   UNL     1      45.166   5.169  12.448  0.00  0.00    +0.000 C 
BRANCH  16  18
ATOM     17  C   UNL     1      43.727   3.066  12.478  0.00  0.00    +0.000 C 
ATOM     18  C   UNL     1      44.119   4.318  11.662  0.00  0.00    +0.000 C 
ATOM     19  C   UNL     1      42.864   5.167  11.376  0.00  0.00    +0.000 C 
BRANCH  18  20
ATOM     20  C   UNL     1      44.695   3.826  10.333  0.00  0.00    +0.000 A 
ATOM     21  N   UNL     1      45.288   4.745   9.538  0.00  0.00    +0.000 NA
ATOM     22  C   UNL     1      45.724   4.331   8.335  0.00  0.00    +0.000 A 
ATOM     23  C   UNL     1      45.599   3.038   7.892  0.00  0.00    +0.000 A 
ATOM     24  C   UNL     1      44.994   2.173   8.768  0.00  0.00    +0.000 A 
ATOM     25  N   UNL     1      44.533   2.536   9.982  0.00  0.00    +0.000 NA
ENDBRANCH  18  20
ENDBRANCH  16  18
ENDBRANCH   1  16
TORSDOF 4
ENDMDL
MODEL 7
REMARK VINA RESULT:    -6.596      2.380      4.521
REMARK INTER + INTRA:          -8.638
REMARK INTER:                  -7.432
REMARK INTRA:                  -1.205
REMARK UNBOUND:                -0.499
REMARK  Name = 
REMARK  6 active torsions:
REMARK  status: ('A' for Active; 'I' for Inactive)
REMARK    1  A    between atoms: C_1  and  C_2
REMARK    2  A    between atoms: C_2  and  C_3
REMARK    3  A    between atoms: C_2  and  C_4
REMARK    4  A    between atoms: C_2  and  C_19
REMARK    5  A    between atoms: C_4  and  N_5
REMARK    6  A    between atoms: C_11  and  C_12
REMARK                            x       y       z     vdW  Elec       q    Type
REMARK                         _______ _______ _______ _____ _____    ______ ____
ROOT
ATOM      1  N   UNL     1      46.868   5.097  14.518  0.00  0.00    +0.000 N 
ATOM      2  C   UNL     1      47.600   4.838  15.688  0.00  0.00    +0.000 A 
ATOM      3  C   UNL     1      47.172   3.767  16.473  0.00  0.00    +0.000 A 
ATOM      4  C   UNL     1      47.861   3.445  17.634  0.00  0.00    +0.000 A 
ATOM      5  C   UNL     1      48.960   4.208  17.985  0.00  0.00    +0.000 A 
ATOM      6  F   UNL     1      49.617   3.899  19.112  0.00  0.00    +0.000 F 
ATOM      7  C   UNL     1      49.347   5.277  17.176  0.00  0.00    +0.000 A 
ATOM      8  N   UNL     1      48.655   5.600  16.042  0.00  0.00    +0.000 NA
ATOM      9  H   UNL     1      46.796   4.221  14.009  0.00  0.00    +0.000 HD
ENDROOT
BRANCH   7  10
ATOM     10  C   UNL     1      50.518   6.121  17.476  0.00  0.00    +0.000 A 
ATOM     11  C   UNL     1      51.767   5.899  16.879  0.00  0.00    +0.000 A 
ATOM     12  C   UNL     1      52.854   6.724  17.169  0.00  0.00    +0.000 A 
ATOM     13  C   UNL     1      52.670   7.759  18.070  0.00  0.00    +0.000 A 
ATOM     14  N   UNL     1      51.499   8.010  18.686  0.00  0.00    +0.000 NA
ATOM     15  C   UNL     1      50.464   7.189  18.377  0.00  0.00    +0.000 A 
ENDBRANCH   7  10
BRANCH   1  16
ATOM     16  C   UNL     1      47.360   6.192  13.663  0.00  0.00    +0.000 C 
BRANCH  16  18
ATOM     17  C   UNL     1      45.601   7.892  12.950  0.00  0.00    +0.000 C 
ATOM     18  C   UNL     1      46.313   6.574  12.570  0.00  0.00    +0.000 C 
ATOM     19  C   UNL     1      47.014   6.737  11.207  0.00  0.00    +0.000 C 
BRANCH  18  20
ATOM     20  C   UNL     1      45.230   5.500  12.444  0.00  0.00    +0.000 A 
ATOM     21  N   UNL     1      44.093   5.683  13.152  0.00  0.00    +0.000 NA
ATOM     22  C   UNL     1      43.173   4.703  13.105  0.00  0.00    +0.000 A 
ATOM     23  C   UNL     1      43.337   3.550  12.380  0.00  0.00    +0.000 A 
ATOM     24  C   UNL     1      44.517   3.455  11.686  0.00  0.00    +0.000 A 
ATOM     25  N   UNL     1      45.474   4.404  11.702  0.00  0.00    +0.000 NA
ENDBRANCH  18  20
ENDBRANCH  16  18
ENDBRANCH   1  16
TORSDOF 4
ENDMDL
MODEL 8
REMARK VINA RESULT:    -6.418      3.048      6.971
REMARK INTER + INTRA:          -8.418
REMARK INTER:                  -7.283
REMARK INTRA:                  -1.135
REMARK UNBOUND:                -0.499
REMARK  Name = 
REMARK  6 active torsions:
REMARK  status: ('A' for Active; 'I' for Inactive)
REMARK    1  A    between atoms: C_1  and  C_2
REMARK    2  A    between atoms: C_2  and  C_3
REMARK    3  A    between atoms: C_2  and  C_4
REMARK    4  A    between atoms: C_2  and  C_19
REMARK    5  A    between atoms: C_4  and  N_5
REMARK    6  A    between atoms: C_11  and  C_12
REMARK                            x       y       z     vdW  Elec       q    Type
REMARK                         _______ _______ _______ _____ _____    ______ ____
ROOT
ATOM      1  N   UNL     1      49.907   8.010  15.925  0.00  0.00    +0.000 N 
ATOM      2  C   UNL     1      49.374   7.736  14.655  0.00  0.00    +0.000 A 
ATOM      3  C   UNL     1      50.084   8.222  13.557  0.00  0.00    +0.000 A 
ATOM      4  C   UNL     1      49.622   7.973  12.273  0.00  0.00    +0.000 A 
ATOM      5  C   UNL     1      48.455   7.246  12.118  0.00  0.00    +0.000 A 
ATOM      6  F   UNL     1      48.007   7.015  10.875  0.00  0.00    +0.000 F 
ATOM      7  C   UNL     1      47.771   6.787  13.245  0.00  0.00    +0.000 A 
ATOM      8  N   UNL     1      48.222   7.050  14.508  0.00  0.00    +0.000 NA
ATOM      9  H   UNL     1      50.882   7.723  15.909  0.00  0.00    +0.000 HD
ENDROOT
BRANCH   7  10
ATOM     10  C   UNL     1      46.534   5.990  13.156  0.00  0.00    +0.000 A 
ATOM     11  C   UNL     1      45.306   6.561  12.790  0.00  0.00    +0.000 A 
ATOM     12  C   UNL     1      44.155   5.778  12.698  0.00  0.00    +0.000 A 
ATOM     13  C   UNL     1      44.253   4.429  12.989  0.00  0.00    +0.000 A 
ATOM     14  N   UNL     1      45.401   3.829  13.362  0.00  0.00    +0.000 NA
ATOM     15  C   UNL     1      46.501   4.621  13.437  0.00  0.00    +0.000 A 
ENDBRANCH   7  10
BRANCH   1  16
ATOM     16  C   UNL     1      49.185   7.443  17.078  0.00  0.00    +0.000 C 
BRANCH  16  18
ATOM     17  C   UNL     1      51.374   6.140  17.095  0.00  0.00    +0.000 C 
ATOM     18  C   UNL     1      49.949   6.225  17.685  0.00  0.00    +0.000 C 
ATOM     19  C   UNL     1      50.028   6.367  19.218  0.00  0.00    +0.000 C 
BRANCH  18  20
ATOM     20  C   UNL     1      49.245   4.909  17.347  0.00  0.00    +0.000 A 
ATOM     21  N   UNL     1      47.897   4.938  17.245  0.00  0.00    +0.000 NA
ATOM     22  C   UNL     1      47.269   3.769  17.026  0.00  0.00    +0.000 A 
ATOM     23  C   UNL     1      47.928   2.572  16.902  0.00  0.00    +0.000 A 
ATOM     24  C   UNL     1      49.294   2.639  17.010  0.00  0.00    +0.000 A 
ATOM     25  N   UNL     1      49.973   3.782  17.234  0.00  0.00    +0.000 NA
ENDBRANCH  18  20
ENDBRANCH  16  18
ENDBRANCH   1  16
TORSDOF 4
ENDMDL
MODEL 9
REMARK VINA RESULT:    -6.225      1.775      2.231
REMARK INTER + INTRA:          -8.180
REMARK INTER:                  -7.784
REMARK INTRA:                  -0.395
REMARK UNBOUND:                -0.499
REMARK  Name = 
REMARK  6 active torsions:
REMARK  status: ('A' for Active; 'I' for Inactive)
REMARK    1  A    between atoms: C_1  and  C_2
REMARK    2  A    between atoms: C_2  and  C_3
REMARK    3  A    between atoms: C_2  and  C_4
REMARK    4  A    between atoms: C_2  and  C_19
REMARK    5  A    between atoms: C_4  and  N_5
REMARK    6  A    between atoms: C_11  and  C_12
REMARK                            x       y       z     vdW  Elec       q    Type
REMARK                         _______ _______ _______ _____ _____    ______ ____
ROOT
ATOM      1  N   UNL     1      46.316   6.577  11.630  0.00  0.00    +0.000 N 
ATOM      2  C   UNL     1      47.484   6.950  12.314  0.00  0.00    +0.000 A 
ATOM      3  C   UNL     1      48.553   7.393  11.535  0.00  0.00    +0.000 A 
ATOM      4  C   UNL     1      49.732   7.793  12.149  0.00  0.00    +0.000 A 
ATOM      5  C   UNL     1      49.814   7.734  13.528  0.00  0.00    +0.000 A 
ATOM      6  F   UNL     1      50.959   8.114  14.116  0.00  0.00    +0.000 F 
ATOM      7  C   UNL     1      48.724   7.275  14.267  0.00  0.00    +0.000 A 
ATOM      8  N   UNL     1      47.571   6.867  13.657  0.00  0.00    +0.000 NA
ATOM      9  H   UNL     1      46.076   7.342  11.005  0.00  0.00    +0.000 HD
ENDROOT
BRANCH   7  10
ATOM     10  C   UNL     1      48.732   7.204  15.740  0.00  0.00    +0.000 A 
ATOM     11  C   UNL     1      48.801   5.982  16.425  0.00  0.00    +0.000 A 
ATOM     12  C   UNL     1      48.825   5.947  17.820  0.00  0.00    +0.000 A 
ATOM     13  C   UNL     1      48.765   7.146  18.508  0.00  0.00    +0.000 A 
ATOM     14  N   UNL     1      48.680   8.348  17.904  0.00  0.00    +0.000 NA
ATOM     15  C   UNL     1      48.664   8.343  16.547  0.00  0.00    +0.000 A 
ENDBRANCH   7  10
BRANCH   1  16
ATOM     16  C   UNL     1      45.169   6.166  12.461  0.00  0.00    +0.000 C 
BRANCH  16  18
ATOM     17  C   UNL     1      46.038   3.850  13.071  0.00  0.00    +0.000 C 
ATOM     18  C   UNL     1      44.913   4.630  12.355  0.00  0.00    +0.000 C 
ATOM     19  C   UNL     1      43.553   4.281  12.991  0.00  0.00    +0.000 C 
BRANCH  18  20
ATOM     20  C   UNL     1      44.908   4.171  10.895  0.00  0.00    +0.000 A 
ATOM     21  N   UNL     1      44.542   2.892  10.651  0.00  0.00    +0.000 NA
ATOM     22  C   UNL     1      44.612   2.463   9.378  0.00  0.00    +0.000 A 
ATOM     23  C   UNL     1      45.028   3.255   8.337  0.00  0.00    +0.000 A 
ATOM     24  C   UNL     1      45.371   4.540   8.677  0.00  0.00    +0.000 A 
ATOM     25  N   UNL     1      45.324   5.020   9.937  0.00  0.00    +0.000 NA
ENDBRANCH  18  20
ENDBRANCH  16  18
ENDBRANCH   1  16
TORSDOF 4
ENDMDL
