MODEL 1
REMARK VINA RESULT:    -7.994      0.000      0.000
REMARK INTER + INTRA:         -12.024
REMARK INTER:                 -11.266
REMARK INTRA:                  -0.758
REMARK UNBOUND:                -0.758
REMARK  Name = 
REMARK  7 active torsions:
REMARK  status: ('A' for Active; 'I' for Inactive)
REMARK    1  A    between atoms: C_2  and  C_20
REMARK    2  A    between atoms: N_3  and  C_4
REMARK    3  A    between atoms: C_4  and  C_5
REMARK    4  A    between atoms: C_8  and  C_9
REMARK    5  A    between atoms: C_9  and  N_10
REMARK    6  A    between atoms: N_10  and  C_11
REMARK    7  A    between atoms: C_11  and  C_12
REMARK                            x       y       z     vdW  Elec       q    Type
REMARK                         _______ _______ _______ _____ _____    ______ ____
ROOT
ATOM      1  C   UNL     1      46.770   4.350  13.391  0.00  0.00    +0.000 C 
ATOM      2  C   UNL     1      45.649   3.904  12.434  0.00  0.00    +0.000 C 
ATOM      3  C   UNL     1      44.552   4.956  12.276  0.00  0.00    +0.000 C 
ATOM      4  C   UNL     1      45.110   6.326  11.850  0.00  0.00    +0.000 C 
ATOM      5  C   UNL     1      46.229   6.780  12.799  0.00  0.00    +0.000 C 
ATOM      6  C   UNL     1      47.321   5.723  12.976  0.00  0.00    +0.000 C 
ENDROOT
BRANCH   1   7
ATOM      7  C   UNL     1      46.320   4.370  14.860  0.00  0.00    +0.000 C 
BRANCH   7  10
ATOM      8  O   UNL     1      46.694   3.083  17.391  0.00  0.00    +0.000 OA
ATOM      9  C   UNL     1      47.546   3.848  16.962  0.00  0.00    +0.000 C 
ATOM     10  N   UNL     1      47.426   4.514  15.771  0.00  0.00    +0.000 N 
ATOM     11  H   UNL     1      48.204   5.070  15.430  0.00  0.00    +0.000 HD
BRANCH   9  12
ATOM     12  C   UNL     1      48.765   4.159  17.716  0.00  0.00    +0.000 A 
ATOM     13  C   UNL     1      48.807   5.256  18.574  0.00  0.00    +0.000 A 
ATOM     14  S   UNL     1      50.315   5.456  19.348  0.00  0.00    +0.000 S 
ATOM     15  C   UNL     1      50.952   4.064  18.600  0.00  0.00    +0.000 A 
ATOM     16  N   UNL     1      52.217   3.641  18.867  0.00  0.00    +0.000 NA
ATOM     17  C   UNL     1      52.555   2.555  18.249  0.00  0.00    +0.000 A 
ATOM     18  N   UNL     1      51.747   1.858  17.389  0.00  0.00    +0.000 N 
ATOM     19  C   UNL     1      50.491   2.286  17.039  0.00  0.00    +0.000 A 
ATOM     20  O   UNL     1      49.857   1.706  16.161  0.00  0.00    +0.000 OA
ATOM     21  C   UNL     1      50.041   3.475  17.743  0.00  0.00    +0.000 A 
ATOM     22  H   UNL     1      52.086   1.038  16.908  0.00  0.00    +0.000 HD
ENDBRANCH   9  12
ENDBRANCH   7  10
ENDBRANCH   1   7
BRANCH   4  23
ATOM     23  C   UNL     1      45.622   6.328  10.399  0.00  0.00    +0.000 C 
BRANCH  23  24
ATOM     24  N   UNL     1      45.013   5.232   9.650  0.00  0.00    +0.000 NA
ATOM     25  H   UNL     1      44.161   5.577   9.212  0.00  0.00    +0.000 HD
BRANCH  24  26
ATOM     26  C   UNL     1      45.941   4.740   8.640  0.00  0.00    +0.000 C 
BRANCH  26  27
ATOM     27  C   UNL     1      45.244   3.807   7.634  0.00  0.00    +0.000 C 
ATOM     28  C   UNL     1      44.468   2.722   8.399  0.00  0.00    +0.000 C 
ATOM     29  C   UNL     1      45.409   1.701   9.044  0.00  0.00    +0.000 C 
ATOM     30  N   UNL     1      46.323   1.100   8.069  0.00  0.00    +0.000 NA
ATOM     31  C   UNL     1      47.111   2.114   7.364  0.00  0.00    +0.000 C 
ATOM     32  C   UNL     1      46.209   3.119   6.652  0.00  0.00    +0.000 C 
ATOM     33  H   UNL     1      45.770   0.585   7.382  0.00  0.00    +0.000 HD
ENDBRANCH  26  27
ENDBRANCH  24  26
ENDBRANCH  23  24
ENDBRANCH   4  23
TORSDOF 7
ENDMDL
MODEL 2
REMARK VINA RESULT:    -7.414      3.647      8.939
REMARK INTER + INTRA:         -11.206
REMARK INTER:                  -9.988
REMARK INTRA:                  -1.219
REMARK UNBOUND:                -0.758
REMARK  Name = 
REMARK  7 active torsions:
REMARK  status: ('A' for Active; 'I' for Inactive)
REMARK    1  A    between atoms: C_2  and  C_20
REMARK    2  A    between atoms: N_3  and  C_4
REMARK    3  A    between atoms: C_4  and  C_5
REMARK    4  A    between atoms: C_8  and  C_9
REMARK    5  A    between atoms: C_9  and  N_10
REMARK    6  A    between atoms: N_10  and  C_11
REMARK    7  A    between atoms: C_11  and  C_12
REMARK                            x       y       z     vdW  Elec       q    Type
REMARK                         _______ _______ _______ _____ _____    ______ ____
ROOT
ATOM      1  C   UNL     1      48.365   8.031  12.139  0.00  0.00    +0.000 C 
ATOM      2  C   UNL     1      48.860   9.134  13.093  0.00  0.00    +0.000 C 
ATOM      3  C   UNL     1      48.374   8.936  14.528  0.00  0.00    +0.000 C 
ATOM      4  C   UNL     1      48.731   7.546  15.083  0.00  0.00    +0.000 C 
ATOM      5  C   UNL     1      48.241   6.438  14.137  0.00  0.00    +0.000 C 
ATOM      6  C   UNL     1      48.710   6.641  12.695  0.00  0.00    +0.000 C 
ENDROOT
BRANCH   1   7
ATOM      7  C   UNL     1      46.862   8.137  11.841  0.00  0.00    +0.000 C 
BRANCH   7  10
ATOM      8  O   UNL     1      44.101   7.558  11.342  0.00  0.00    +0.000 OA
ATOM      9  C   UNL     1      44.919   6.649  11.382  0.00  0.00    +0.000 C 
ATOM     10  N   UNL     1      46.251   6.849  11.635  0.00  0.00    +0.000 N 
ATOM     11  H   UNL     1      46.893   6.066  11.573  0.00  0.00    +0.000 HD
BRANCH   9  12
ATOM     12  C   UNL     1      44.535   5.246  11.206  0.00  0.00    +0.000 A 
ATOM     13  C   UNL     1      43.733   4.607  12.149  0.00  0.00    +0.000 A 
ATOM     14  S   UNL     1      43.407   2.974  11.771  0.00  0.00    +0.000 S 
ATOM     15  C   UNL     1      44.287   3.073  10.316  0.00  0.00    +0.000 A 
ATOM     16  N   UNL     1      44.375   2.006   9.477  0.00  0.00    +0.000 NA
ATOM     17  C   UNL     1      45.051   2.235   8.396  0.00  0.00    +0.000 A 
ATOM     18  N   UNL     1      45.648   3.428   8.083  0.00  0.00    +0.000 N 
ATOM     19  C   UNL     1      45.642   4.507   8.931  0.00  0.00    +0.000 A 
ATOM     20  O   UNL     1      46.305   5.508   8.671  0.00  0.00    +0.000 OA
ATOM     21  C   UNL     1      44.853   4.321  10.137  0.00  0.00    +0.000 A 
ATOM     22  H   UNL     1      46.195   3.530   7.240  0.00  0.00    +0.000 HD
ENDBRANCH   9  12
ENDBRANCH   7  10
ENDBRANCH   1   7
BRANCH   4  23
ATOM     23  C   UNL     1      50.239   7.384  15.340  0.00  0.00    +0.000 C 
BRANCH  23  24
ATOM     24  N   UNL     1      50.477   6.259  16.239  0.00  0.00    +0.000 NA
ATOM     25  H   UNL     1      51.482   6.120  16.322  0.00  0.00    +0.000 HD
BRANCH  24  26
ATOM     26  C   UNL     1      49.891   6.529  17.546  0.00  0.00    +0.000 C 
BRANCH  26  27
ATOM     27  C   UNL     1      49.603   5.231  18.321  0.00  0.00    +0.000 C 
ATOM     28  C   UNL     1      48.905   4.226  17.389  0.00  0.00    +0.000 C 
ATOM     29  C   UNL     1      47.461   4.639  17.090  0.00  0.00    +0.000 C 
ATOM     30  N   UNL     1      46.682   4.845  18.314  0.00  0.00    +0.000 NA
ATOM     31  C   UNL     1      47.303   5.837  19.195  0.00  0.00    +0.000 C 
ATOM     32  C   UNL     1      48.727   5.433  19.569  0.00  0.00    +0.000 C 
ATOM     33  H   UNL     1      46.628   3.957  18.816  0.00  0.00    +0.000 HD
ENDBRANCH  26  27
ENDBRANCH  24  26
ENDBRANCH  23  24
ENDBRANCH   4  23
TORSDOF 7
ENDMDL
MODEL 3
REMARK VINA RESULT:    -7.237      1.897      2.493
REMARK INTER + INTRA:         -10.957
REMARK INTER:                 -10.116
REMARK INTRA:                  -0.841
REMARK UNBOUND:                -0.758
REMARK  Name = 
REMARK  7 active torsions:
REMARK  status: ('A' for Active; 'I' for Inactive)
REMARK    1  A    between atoms: C_2  and  C_20
REMARK    2  A    between atoms: N_3  and  C_4
REMARK    3  A    between atoms: C_4  and  C_5
REMARK    4  A    between atoms: C_8  and  C_9
REMARK    5  A    between atoms: C_9  and  N_10
REMARK    6  A    between atoms: N_10  and  C_11
REMARK    7  A    between atoms: C_11  and  C_12
REMARK                            x       y       z     vdW  Elec       q    Type
REMARK                         _______ _______ _______ _____ _____    ______ ____
ROOT
ATOM      1  C   UNL     1      47.511   6.274  12.778  0.00  0.00    +0.000 C 
ATOM      2  C   UNL     1      46.680   5.092  13.312  0.00  0.00    +0.000 C 
ATOM      3  C   UNL     1      45.177   5.364  13.281  0.00  0.00    +0.000 C 
ATOM      4  C   UNL     1      44.684   5.782  11.885  0.00  0.00    +0.000 C 
ATOM      5  C   UNL     1      45.507   6.961  11.345  0.00  0.00    +0.000 C 
ATOM      6  C   UNL     1      47.014   6.701  11.389  0.00  0.00    +0.000 C 
ENDROOT
BRANCH   1   7
ATOM      7  C   UNL     1      47.521   7.471  13.741  0.00  0.00    +0.000 C 
BRANCH   7  10
ATOM      8  O   UNL     1      50.144   7.003  14.792  0.00  0.00    +0.000 OA
ATOM      9  C   UNL     1      49.166   6.903  15.521  0.00  0.00    +0.000 C 
ATOM     10  N   UNL     1      47.882   7.092  15.083  0.00  0.00    +0.000 N 
ATOM     11  H   UNL     1      47.120   7.078  15.753  0.00  0.00    +0.000 HD
BRANCH   9  12
ATOM     12  C   UNL     1      49.281   6.522  16.932  0.00  0.00    +0.000 A 
ATOM     13  C   UNL     1      49.844   7.397  17.858  0.00  0.00    +0.000 A 
ATOM     14  S   UNL     1      49.899   6.766  19.443  0.00  0.00    +0.000 S 
ATOM     15  C   UNL     1      49.136   5.322  18.960  0.00  0.00    +0.000 A 
ATOM     16  N   UNL     1      48.846   4.346  19.862  0.00  0.00    +0.000 NA
ATOM     17  C   UNL     1      48.241   3.319  19.357  0.00  0.00    +0.000 A 
ATOM     18  N   UNL     1      47.905   3.178  18.036  0.00  0.00    +0.000 N 
ATOM     19  C   UNL     1      48.240   4.106  17.082  0.00  0.00    +0.000 A 
ATOM     20  O   UNL     1      48.042   3.875  15.891  0.00  0.00    +0.000 OA
ATOM     21  C   UNL     1      48.876   5.304  17.602  0.00  0.00    +0.000 A 
ATOM     22  H   UNL     1      47.468   2.333  17.698  0.00  0.00    +0.000 HD
ENDBRANCH   9  12
ENDBRANCH   7  10
ENDBRANCH   1   7
BRANCH   4  23
ATOM     23  C   UNL     1      44.713   4.619  10.878  0.00  0.00    +0.000 C 
BRANCH  23  24
ATOM     24  N   UNL     1      44.660   5.135   9.513  0.00  0.00    +0.000 NA
ATOM     25  H   UNL     1      44.731   6.150   9.550  0.00  0.00    +0.000 HD
BRANCH  24  26
ATOM     26  C   UNL     1      45.750   4.576   8.725  0.00  0.00    +0.000 C 
BRANCH  26  27
ATOM     27  C   UNL     1      45.228   3.692   7.578  0.00  0.00    +0.000 C 
ATOM     28  C   UNL     1      44.663   2.386   8.159  0.00  0.00    +0.000 C 
ATOM     29  C   UNL     1      45.775   1.465   8.670  0.00  0.00    +0.000 C 
ATOM     30  N   UNL     1      46.778   1.187   7.639  0.00  0.00    +0.000 NA
ATOM     31  C   UNL     1      47.367   2.417   7.106  0.00  0.00    +0.000 C 
ATOM     32  C   UNL     1      46.297   3.340   6.528  0.00  0.00    +0.000 C 
ATOM     33  H   UNL     1      46.324   0.688   6.872  0.00  0.00    +0.000 HD
ENDBRANCH  26  27
ENDBRANCH  24  26
ENDBRANCH  23  24
ENDBRANCH   4  23
TORSDOF 7
ENDMDL
MODEL 4
REMARK VINA RESULT:    -7.080      1.457      1.877
REMARK INTER + INTRA:         -10.736
REMARK INTER:                  -9.786
REMARK INTRA:                  -0.949
REMARK UNBOUND:                -0.758
REMARK  Name = 
REMARK  7 active torsions:
REMARK  status: ('A' for Active; 'I' for Inactive)
REMARK    1  A    between atoms: C_2  and  C_20
REMARK    2  A    between atoms: N_3  and  C_4
REMARK    3  A    between atoms: C_4  and  C_5
REMARK    4  A    between atoms: C_8  and  C_9
REMARK    5  A    between atoms: C_9  and  N_10
REMARK    6  A    between atoms: N_10  and  C_11
REMARK    7  A    between atoms: C_11  and  C_12
REMARK                            x       y       z     vdW  Elec       q    Type
REMARK                         _______ _______ _______ _____ _____    ______ ____
ROOT
ATOM      1  C   UNL     1      48.279   6.587  13.618  0.00  0.00    +0.000 C 
ATOM      2  C   UNL     1      47.667   5.194  13.375  0.00  0.00    +0.000 C 
ATOM      3  C   UNL     1      46.157   5.163  13.599  0.00  0.00    +0.000 C 
ATOM      4  C   UNL     1      45.418   6.227  12.768  0.00  0.00    +0.000 C 
ATOM      5  C   UNL     1      46.020   7.620  13.004  0.00  0.00    +0.000 C 
ATOM      6  C   UNL     1      47.536   7.653  12.799  0.00  0.00    +0.000 C 
ENDROOT
BRANCH   1   7
ATOM      7  C   UNL     1      48.305   6.969  15.106  0.00  0.00    +0.000 C 
BRANCH   7  10
ATOM      8  O   UNL     1      48.019   5.059  17.222  0.00  0.00    +0.000 OA
ATOM      9  C   UNL     1      49.133   5.367  16.822  0.00  0.00    +0.000 C 
ATOM     10  N   UNL     1      49.347   6.287  15.829  0.00  0.00    +0.000 N 
ATOM     11  H   UNL     1      50.289   6.438  15.484  0.00  0.00    +0.000 HD
BRANCH   9  12
ATOM     12  C   UNL     1      50.354   4.807  17.409  0.00  0.00    +0.000 A 
ATOM     13  C   UNL     1      51.241   5.620  18.112  0.00  0.00    +0.000 A 
ATOM     14  S   UNL     1      52.606   4.784  18.705  0.00  0.00    +0.000 S 
ATOM     15  C   UNL     1      52.043   3.301  18.084  0.00  0.00    +0.000 A 
ATOM     16  N   UNL     1      52.740   2.150  18.280  0.00  0.00    +0.000 NA
ATOM     17  C   UNL     1      52.179   1.097  17.777  0.00  0.00    +0.000 A 
ATOM     18  N   UNL     1      50.990   1.093  17.095  0.00  0.00    +0.000 N 
ATOM     19  C   UNL     1      50.290   2.240  16.816  0.00  0.00    +0.000 A 
ATOM     20  O   UNL     1      49.304   2.205  16.084  0.00  0.00    +0.000 OA
ATOM     21  C   UNL     1      50.850   3.446  17.401  0.00  0.00    +0.000 A 
ATOM     22  H   UNL     1      50.625   0.242  16.693  0.00  0.00    +0.000 HD
ENDBRANCH   9  12
ENDBRANCH   7  10
ENDBRANCH   1   7
BRANCH   4  23
ATOM     23  C   UNL     1      45.421   5.905  11.263  0.00  0.00    +0.000 C 
BRANCH  23  24
ATOM     24  N   UNL     1      44.375   4.933  10.956  0.00  0.00    +0.000 NA
ATOM     25  H   UNL     1      43.764   5.331  10.245  0.00  0.00    +0.000 HD
BRANCH  24  26
ATOM     26  C   UNL     1      44.971   3.692  10.478  0.00  0.00    +0.000 C 
BRANCH  26  27
ATOM     27  C   UNL     1      44.310   3.210   9.173  0.00  0.00    +0.000 C 
ATOM     28  C   UNL     1      44.665   1.732   8.940  0.00  0.00    +0.000 C 
ATOM     29  C   UNL     1      46.131   1.558   8.532  0.00  0.00    +0.000 C 
ATOM     30  N   UNL     1      46.477   2.369   7.362  0.00  0.00    +0.000 NA
ATOM     31  C   UNL     1      46.195   3.790   7.582  0.00  0.00    +0.000 C 
ATOM     32  C   UNL     1      44.726   4.016   7.931  0.00  0.00    +0.000 C 
ATOM     33  H   UNL     1      45.920   2.049   6.569  0.00  0.00    +0.000 HD
ENDBRANCH  26  27
ENDBRANCH  24  26
ENDBRANCH  23  24
ENDBRANCH   4  23
TORSDOF 7
ENDMDL
MODEL 5
REMARK VINA RESULT:    -6.824      3.564      9.687
REMARK INTER + INTRA:         -10.374
REMARK INTER:                  -9.027
REMARK INTRA:                  -1.347
REMARK UNBOUND:                -0.758
REMARK  Name = 
REMARK  7 active torsions:
REMARK  status: ('A' for Active; 'I' for Inactive)
REMARK    1  A    between atoms: C_2  and  C_20
REMARK    2  A    between atoms: N_3  and  C_4
REMARK    3  A    between atoms: C_4  and  C_5
REMARK    4  A    between atoms: C_8  and  C_9
REMARK    5  A    between atoms: C_9  and  N_10
REMARK    6  A    between atoms: N_10  and  C_11
REMARK    7  A    between atoms: C_11  and  C_12
REMARK                            x       y       z     vdW  Elec       q    Type
REMARK                         _______ _______ _______ _____ _____    ______ ____
ROOT
ATOM      1  C   UNL     1      48.760   4.001  16.967  0.00  0.00    +0.000 C 
ATOM      2  C   UNL     1      49.114   5.499  16.998  0.00  0.00    +0.000 C 
ATOM      3  C   UNL     1      48.580   6.208  18.242  0.00  0.00    +0.000 C 
ATOM      4  C   UNL     1      49.028   5.523  19.545  0.00  0.00    +0.000 C 
ATOM      5  C   UNL     1      48.679   4.027  19.524  0.00  0.00    +0.000 C 
ATOM      6  C   UNL     1      49.196   3.316  18.272  0.00  0.00    +0.000 C 
ENDROOT
BRANCH   1   7
ATOM      7  C   UNL     1      47.269   3.751  16.697  0.00  0.00    +0.000 C 
BRANCH   7  10
ATOM      8  O   UNL     1      47.200   3.220  13.883  0.00  0.00    +0.000 OA
ATOM      9  C   UNL     1      46.736   4.265  14.320  0.00  0.00    +0.000 C 
ATOM     10  N   UNL     1      46.752   4.594  15.650  0.00  0.00    +0.000 N 
ATOM     11  H   UNL     1      46.278   5.436  15.960  0.00  0.00    +0.000 HD
BRANCH   9  12
ATOM     12  C   UNL     1      46.157   5.288  13.444  0.00  0.00    +0.000 A 
ATOM     13  C   UNL     1      46.887   6.424  13.102  0.00  0.00    +0.000 A 
ATOM     14  S   UNL     1      46.035   7.499  12.086  0.00  0.00    +0.000 S 
ATOM     15  C   UNL     1      44.680   6.468  12.030  0.00  0.00    +0.000 A 
ATOM     16  N   UNL     1      43.588   6.786  11.285  0.00  0.00    +0.000 NA
ATOM     17  C   UNL     1      42.648   5.897  11.314  0.00  0.00    +0.000 A 
ATOM     18  N   UNL     1      42.699   4.725  12.022  0.00  0.00    +0.000 N 
ATOM     19  C   UNL     1      43.751   4.397  12.839  0.00  0.00    +0.000 A 
ATOM     20  O   UNL     1      43.694   3.404  13.561  0.00  0.00    +0.000 OA
ATOM     21  C   UNL     1      44.858   5.337  12.804  0.00  0.00    +0.000 A 
ATOM     22  H   UNL     1      41.914   4.090  12.034  0.00  0.00    +0.000 HD
ENDBRANCH   9  12
ENDBRANCH   7  10
ENDBRANCH   1   7
BRANCH   4  23
ATOM     23  C   UNL     1      50.531   5.706  19.820  0.00  0.00    +0.000 C 
BRANCH  23  24
ATOM     24  N   UNL     1      50.980   4.737  20.815  0.00  0.00    +0.000 NA
ATOM     25  H   UNL     1      50.371   3.922  20.770  0.00  0.00    +0.000 HD
BRANCH  24  26
ATOM     26  C   UNL     1      52.362   4.354  20.552  0.00  0.00    +0.000 C 
BRANCH  26  27
ATOM     27  C   UNL     1      52.698   4.431  19.052  0.00  0.00    +0.000 C 
ATOM     28  C   UNL     1      52.774   3.009  18.474  0.00  0.00    +0.000 C 
ATOM     29  C   UNL     1      54.027   2.269  18.950  0.00  0.00    +0.000 C 
ATOM     30  N   UNL     1      55.253   3.017  18.660  0.00  0.00    +0.000 NA
ATOM     31  C   UNL     1      55.224   4.359  19.246  0.00  0.00    +0.000 C 
ATOM     32  C   UNL     1      54.021   5.156  18.747  0.00  0.00    +0.000 C 
ATOM     33  H   UNL     1      55.344   3.109  17.647  0.00  0.00    +0.000 HD
ENDBRANCH  26  27
ENDBRANCH  24  26
ENDBRANCH  23  24
ENDBRANCH   4  23
TORSDOF 7
ENDMDL
MODEL 6
REMARK VINA RESULT:    -6.649      3.879      9.073
REMARK INTER + INTRA:         -10.128
REMARK INTER:                  -8.816
REMARK INTRA:                  -1.312
REMARK UNBOUND:                -0.758
REMARK  Name = 
REMARK  7 active torsions:
REMARK  status: ('A' for Active; 'I' for Inactive)
REMARK    1  A    between atoms: C_2  and  C_20
REMARK    2  A    between atoms: N_3  and  C_4
REMARK    3  A    between atoms: C_4  and  C_5
REMARK    4  A    between atoms: C_8  and  C_9
REMARK    5  A    between atoms: C_9  and  N_10
REMARK    6  A    between atoms: N_10  and  C_11
REMARK    7  A    between atoms: C_11  and  C_12
REMARK                            x       y       z     vdW  Elec       q    Type
REMARK                         _______ _______ _______ _____ _____    ______ ____
ROOT
ATOM      1  C   UNL     1      49.282   7.230  13.458  0.00  0.00    +0.000 C 
ATOM      2  C   UNL     1      50.476   8.122  13.848  0.00  0.00    +0.000 C 
ATOM      3  C   UNL     1      50.045   9.435  14.500  0.00  0.00    +0.000 C 
ATOM      4  C   UNL     1      49.121   9.214  15.710  0.00  0.00    +0.000 C 
ATOM      5  C   UNL     1      47.927   8.325  15.331  0.00  0.00    +0.000 C 
ATOM      6  C   UNL     1      48.351   7.017  14.661  0.00  0.00    +0.000 C 
ENDROOT
BRANCH   1   7
ATOM      7  C   UNL     1      48.498   7.783  12.259  0.00  0.00    +0.000 C 
BRANCH   7  10
ATOM      8  O   UNL     1      45.668   7.884  11.828  0.00  0.00    +0.000 OA
ATOM      9  C   UNL     1      46.309   6.912  11.454  0.00  0.00    +0.000 C 
ATOM     10  N   UNL     1      47.660   6.786  11.643  0.00  0.00    +0.000 N 
ATOM     11  H   UNL     1      48.149   5.995  11.237  0.00  0.00    +0.000 HD
BRANCH   9  12
ATOM     12  C   UNL     1      45.674   5.763  10.802  0.00  0.00    +0.000 A 
ATOM     13  C   UNL     1      45.845   5.537   9.438  0.00  0.00    +0.000 A 
ATOM     14  S   UNL     1      45.016   4.158   8.868  0.00  0.00    +0.000 S 
ATOM     15  C   UNL     1      44.436   3.788  10.427  0.00  0.00    +0.000 A 
ATOM     16  N   UNL     1      43.675   2.682  10.647  0.00  0.00    +0.000 NA
ATOM     17  C   UNL     1      43.330   2.513  11.883  0.00  0.00    +0.000 A 
ATOM     18  N   UNL     1      43.672   3.348  12.914  0.00  0.00    +0.000 N 
ATOM     19  C   UNL     1      44.379   4.509  12.725  0.00  0.00    +0.000 A 
ATOM     20  O   UNL     1      44.544   5.296  13.655  0.00  0.00    +0.000 OA
ATOM     21  C   UNL     1      44.836   4.722  11.363  0.00  0.00    +0.000 A 
ATOM     22  H   UNL     1      43.337   3.180  13.852  0.00  0.00    +0.000 HD
ENDBRANCH   9  12
ENDBRANCH   7  10
ENDBRANCH   1   7
BRANCH   4  23
ATOM     23  C   UNL     1      49.862   8.607  16.914  0.00  0.00    +0.000 C 
BRANCH  23  24
ATOM     24  N   UNL     1      48.940   8.423  18.031  0.00  0.00    +0.000 NA
ATOM     25  H   UNL     1      47.988   8.501  17.679  0.00  0.00    +0.000 HD
BRANCH  24  26
ATOM     26  C   UNL     1      49.150   7.118  18.644  0.00  0.00    +0.000 C 
BRANCH  26  27
ATOM     27  C   UNL     1      47.823   6.365  18.849  0.00  0.00    +0.000 C 
ATOM     28  C   UNL     1      47.705   5.933  20.320  0.00  0.00    +0.000 C 
ATOM     29  C   UNL     1      48.669   4.792  20.655  0.00  0.00    +0.000 C 
ATOM     30  N   UNL     1      48.499   3.645  19.759  0.00  0.00    +0.000 NA
ATOM     31  C   UNL     1      48.659   4.024  18.352  0.00  0.00    +0.000 C 
ATOM     32  C   UNL     1      47.671   5.120  17.958  0.00  0.00    +0.000 C 
ATOM     33  H   UNL     1      47.558   3.271  19.887  0.00  0.00    +0.000 HD
ENDBRANCH  26  27
ENDBRANCH  24  26
ENDBRANCH  23  24
ENDBRANCH   4  23
TORSDOF 7
ENDMDL
MODEL 7
REMARK VINA RESULT:    -6.498      5.314      8.422
REMARK INTER + INTRA:          -9.915
REMARK INTER:                  -8.491
REMARK INTRA:                  -1.425
REMARK UNBOUND:                -0.758
REMARK  Name = 
REMARK  7 active torsions:
REMARK  status: ('A' for Active; 'I' for Inactive)
REMARK    1  A    between atoms: C_2  and  C_20
REMARK    2  A    between atoms: N_3  and  C_4
REMARK    3  A    between atoms: C_4  and  C_5
REMARK    4  A    between atoms: C_8  and  C_9
REMARK    5  A    between atoms: C_9  and  N_10
REMARK    6  A    between atoms: N_10  and  C_11
REMARK    7  A    between atoms: C_11  and  C_12
REMARK                            x       y       z     vdW  Elec       q    Type
REMARK                         _______ _______ _______ _____ _____    ______ ____
ROOT
ATOM      1  C   UNL     1      47.819   8.641  12.073  0.00  0.00    +0.000 C 
ATOM      2  C   UNL     1      48.411  10.008  12.465  0.00  0.00    +0.000 C 
ATOM      3  C   UNL     1      49.169   9.966  13.791  0.00  0.00    +0.000 C 
ATOM      4  C   UNL     1      50.261   8.882  13.808  0.00  0.00    +0.000 C 
ATOM      5  C   UNL     1      49.681   7.514  13.419  0.00  0.00    +0.000 C 
ATOM      6  C   UNL     1      48.904   7.554  12.101  0.00  0.00    +0.000 C 
ENDROOT
BRANCH   1   7
ATOM      7  C   UNL     1      46.627   8.238  12.956  0.00  0.00    +0.000 C 
BRANCH   7  10
ATOM      8  O   UNL     1      44.306   7.730  11.356  0.00  0.00    +0.000 OA
ATOM      9  C   UNL     1      44.964   6.796  11.793  0.00  0.00    +0.000 C 
ATOM     10  N   UNL     1      46.073   6.962  12.580  0.00  0.00    +0.000 N 
ATOM     11  H   UNL     1      46.625   6.152  12.842  0.00  0.00    +0.000 HD
BRANCH   9  12
ATOM     12  C   UNL     1      44.594   5.399  11.547  0.00  0.00    +0.000 A 
ATOM     13  C   UNL     1      43.843   4.690  12.481  0.00  0.00    +0.000 A 
ATOM     14  S   UNL     1      43.526   3.078  12.018  0.00  0.00    +0.000 S 
ATOM     15  C   UNL     1      44.341   3.280  10.535  0.00  0.00    +0.000 A 
ATOM     16  N   UNL     1      44.410   2.269   9.629  0.00  0.00    +0.000 NA
ATOM     17  C   UNL     1      45.035   2.574   8.538  0.00  0.00    +0.000 A 
ATOM     18  N   UNL     1      45.600   3.795   8.274  0.00  0.00    +0.000 N 
ATOM     19  C   UNL     1      45.614   4.819   9.186  0.00  0.00    +0.000 A 
ATOM     20  O   UNL     1      46.250   5.846   8.961  0.00  0.00    +0.000 OA
ATOM     21  C   UNL     1      44.880   4.547  10.411  0.00  0.00    +0.000 A 
ATOM     22  H   UNL     1      46.109   3.957   7.417  0.00  0.00    +0.000 HD
ENDBRANCH   9  12
ENDBRANCH   7  10
ENDBRANCH   1   7
BRANCH   4  23
ATOM     23  C   UNL     1      51.447   9.227  12.891  0.00  0.00    +0.000 C 
BRANCH  23  24
ATOM     24  N   UNL     1      52.516   8.247  13.062  0.00  0.00    +0.000 NA
ATOM     25  H   UNL     1      52.098   7.359  13.336  0.00  0.00    +0.000 HD
BRANCH  24  26
ATOM     26  C   UNL     1      53.260   8.096  11.818  0.00  0.00    +0.000 C 
BRANCH  26  27
ATOM     27  C   UNL     1      52.383   8.397  10.590  0.00  0.00    +0.000 C 
ATOM     28  C   UNL     1      52.028   7.079   9.882  0.00  0.00    +0.000 C 
ATOM     29  C   UNL     1      53.238   6.481   9.157  0.00  0.00    +0.000 C 
ATOM     30  N   UNL     1      53.844   7.431   8.221  0.00  0.00    +0.000 NA
ATOM     31  C   UNL     1      54.237   8.676   8.885  0.00  0.00    +0.000 C 
ATOM     32  C   UNL     1      53.044   9.340   9.569  0.00  0.00    +0.000 C 
ATOM     33  H   UNL     1      53.159   7.654   7.497  0.00  0.00    +0.000 HD
ENDBRANCH  26  27
ENDBRANCH  24  26
ENDBRANCH  23  24
ENDBRANCH   4  23
TORSDOF 7
ENDMDL
MODEL 8
REMARK VINA RESULT:    -6.309      3.627      9.073
REMARK INTER + INTRA:          -9.648
REMARK INTER:                  -8.788
REMARK INTRA:                  -0.861
REMARK UNBOUND:                -0.758
REMARK  Name = 
REMARK  7 active torsions:
REMARK  status: ('A' for Active; 'I' for Inactive)
REMARK    1  A    between atoms: C_2  and  C_20
REMARK    2  A    between atoms: N_3  and  C_4
REMARK    3  A    between atoms: C_4  and  C_5
REMARK    4  A    between atoms: C_8  and  C_9
REMARK    5  A    between atoms: C_9  and  N_10
REMARK    6  A    between atoms: N_10  and  C_11
REMARK    7  A    between atoms: C_11  and  C_12
REMARK                            x       y       z     vdW  Elec       q    Type
REMARK                         _______ _______ _______ _____ _____    ______ ____
ROOT
ATOM      1  C   UNL     1      47.797   4.139  17.835  0.00  0.00    +0.000 C 
ATOM      2  C   UNL     1      48.937   3.419  18.581  0.00  0.00    +0.000 C 
ATOM      3  C   UNL     1      50.296   3.611  17.911  0.00  0.00    +0.000 C 
ATOM      4  C   UNL     1      50.644   5.096  17.703  0.00  0.00    +0.000 C 
ATOM      5  C   UNL     1      49.513   5.822  16.959  0.00  0.00    +0.000 C 
ATOM      6  C   UNL     1      48.146   5.618  17.615  0.00  0.00    +0.000 C 
ENDROOT
BRANCH   1   7
ATOM      7  C   UNL     1      47.444   3.462  16.501  0.00  0.00    +0.000 C 
BRANCH   7  10
ATOM      8  O   UNL     1      47.203   3.157  13.663  0.00  0.00    +0.000 OA
ATOM      9  C   UNL     1      46.759   4.157  14.211  0.00  0.00    +0.000 C 
ATOM     10  N   UNL     1      46.856   4.379  15.560  0.00  0.00    +0.000 N 
ATOM     11  H   UNL     1      46.394   5.186  15.966  0.00  0.00    +0.000 HD
BRANCH   9  12
ATOM     12  C   UNL     1      46.116   5.238  13.458  0.00  0.00    +0.000 A 
ATOM     13  C   UNL     1      46.763   6.459  13.279  0.00  0.00    +0.000 A 
ATOM     14  S   UNL     1      45.847   7.590  12.387  0.00  0.00    +0.000 S 
ATOM     15  C   UNL     1      44.574   6.479  12.171  0.00  0.00    +0.000 A 
ATOM     16  N   UNL     1      43.471   6.809  11.448  0.00  0.00    +0.000 NA
ATOM     17  C   UNL     1      42.599   5.858  11.344  0.00  0.00    +0.000 A 
ATOM     18  N   UNL     1      42.729   4.612  11.899  0.00  0.00    +0.000 N 
ATOM     19  C   UNL     1      43.792   4.260  12.693  0.00  0.00    +0.000 A 
ATOM     20  O   UNL     1      43.799   3.182  13.282  0.00  0.00    +0.000 OA
ATOM     21  C   UNL     1      44.826   5.275  12.801  0.00  0.00    +0.000 A 
ATOM     22  H   UNL     1      41.993   3.926  11.814  0.00  0.00    +0.000 HD
ENDBRANCH   9  12
ENDBRANCH   7  10
ENDBRANCH   1   7
BRANCH   4  23
ATOM     23  C   UNL     1      50.949   5.820  19.026  0.00  0.00    +0.000 C 
BRANCH  23  24
ATOM     24  N   UNL     1      52.146   6.644  18.882  0.00  0.00    +0.000 NA
ATOM     25  H   UNL     1      52.822   6.134  18.316  0.00  0.00    +0.000 HD
BRANCH  24  26
ATOM     26  C   UNL     1      51.807   7.912  18.251  0.00  0.00    +0.000 C 
BRANCH  26  27
ATOM     27  C   UNL     1      53.003   8.503  17.482  0.00  0.00    +0.000 C 
ATOM     28  C   UNL     1      52.485   9.331  16.294  0.00  0.00    +0.000 C 
ATOM     29  C   UNL     1      51.918   8.441  15.186  0.00  0.00    +0.000 C 
ATOM     30  N   UNL     1      52.884   7.434  14.738  0.00  0.00    +0.000 NA
ATOM     31  C   UNL     1      53.352   6.598  15.847  0.00  0.00    +0.000 C 
ATOM     32  C   UNL     1      53.984   7.443  16.950  0.00  0.00    +0.000 C 
ATOM     33  H   UNL     1      53.689   7.915  14.334  0.00  0.00    +0.000 HD
ENDBRANCH  26  27
ENDBRANCH  24  26
ENDBRANCH  23  24
ENDBRANCH   4  23
TORSDOF 7
ENDMDL
MODEL 9
REMARK VINA RESULT:    -6.226      3.799      9.629
REMARK INTER + INTRA:          -9.532
REMARK INTER:                  -8.304
REMARK INTRA:                  -1.227
REMARK UNBOUND:                -0.758
REMARK  Name = 
REMARK  7 active torsions:
REMARK  status: ('A' for Active; 'I' for Inactive)
REMARK    1  A    between atoms: C_2  and  C_20
REMARK    2  A    between atoms: N_3  and  C_4
REMARK    3  A    between atoms: C_4  and  C_5
REMARK    4  A    between atoms: C_8  and  C_9
REMARK    5  A    between atoms: C_9  and  N_10
REMARK    6  A    between atoms: N_10  and  C_11
REMARK    7  A    between atoms: C_11  and  C_12
REMARK                            x       y       z     vdW  Elec       q    Type
REMARK                         _______ _______ _______ _____ _____    ______ ____
ROOT
ATOM      1  C   UNL     1      48.848   4.309  16.998  0.00  0.00    +0.000 C 
ATOM      2  C   UNL     1      48.791   5.808  17.344  0.00  0.00    +0.000 C 
ATOM      3  C   UNL     1      48.013   6.090  18.629  0.00  0.00    +0.000 C 
ATOM      4  C   UNL     1      48.544   5.282  19.826  0.00  0.00    +0.000 C 
ATOM      5  C   UNL     1      48.604   3.784  19.491  0.00  0.00    +0.000 C 
ATOM      6  C   UNL     1      49.367   3.498  18.195  0.00  0.00    +0.000 C 
ENDROOT
BRANCH   1   7
ATOM      7  C   UNL     1      47.495   3.761  16.519  0.00  0.00    +0.000 C 
BRANCH   7  10
ATOM      8  O   UNL     1      47.170   3.213  13.726  0.00  0.00    +0.000 OA
ATOM      9  C   UNL     1      46.750   4.261  14.197  0.00  0.00    +0.000 C 
ATOM     10  N   UNL     1      46.888   4.599  15.517  0.00  0.00    +0.000 N 
ATOM     11  H   UNL     1      46.445   5.444  15.864  0.00  0.00    +0.000 HD
BRANCH   9  12
ATOM     12  C   UNL     1      46.096   5.280  13.370  0.00  0.00    +0.000 A 
ATOM     13  C   UNL     1      46.763   6.456  13.035  0.00  0.00    +0.000 A 
ATOM     14  S   UNL     1      45.830   7.518  12.080  0.00  0.00    +0.000 S 
ATOM     15  C   UNL     1      44.519   6.430  12.042  0.00  0.00    +0.000 A 
ATOM     16  N   UNL     1      43.388   6.719  11.344  0.00  0.00    +0.000 NA
ATOM     17  C   UNL     1      42.489   5.789  11.381  0.00  0.00    +0.000 A 
ATOM     18  N   UNL     1      42.617   4.602  12.054  0.00  0.00    +0.000 N 
ATOM     19  C   UNL     1      43.711   4.299  12.825  0.00  0.00    +0.000 A 
ATOM     20  O   UNL     1      43.723   3.286  13.521  0.00  0.00    +0.000 OA
ATOM     21  C   UNL     1      44.774   5.289  12.778  0.00  0.00    +0.000 A 
ATOM     22  H   UNL     1      41.861   3.933  12.076  0.00  0.00    +0.000 HD
ENDBRANCH   9  12
ENDBRANCH   7  10
ENDBRANCH   1   7
BRANCH   4  23
ATOM     23  C   UNL     1      49.925   5.768  20.298  0.00  0.00    +0.000 C 
BRANCH  23  24
ATOM     24  N   UNL     1      49.911   7.216  20.483  0.00  0.00    +0.000 NA
ATOM     25  H   UNL     1      49.964   7.415  21.480  0.00  0.00    +0.000 HD
BRANCH  24  26
ATOM     26  C   UNL     1      51.040   7.820  19.785  0.00  0.00    +0.000 C 
BRANCH  26  27
ATOM     27  C   UNL     1      50.910   9.352  19.711  0.00  0.00    +0.000 C 
ATOM     28  C   UNL     1      49.547   9.718  19.100  0.00  0.00    +0.000 C 
ATOM     29  C   UNL     1      49.497   9.412  17.600  0.00  0.00    +0.000 C 
ATOM     30  N   UNL     1      50.589  10.060  16.869  0.00  0.00    +0.000 NA
ATOM     31  C   UNL     1      51.901   9.685  17.402  0.00  0.00    +0.000 C 
ATOM     32  C   UNL     1      52.016  10.031  18.885  0.00  0.00    +0.000 C 
ATOM     33  H   UNL     1      50.482  11.072  16.957  0.00  0.00    +0.000 HD
ENDBRANCH  26  27
ENDBRANCH  24  26
ENDBRANCH  23  24
ENDBRANCH   4  23
TORSDOF 7
ENDMDL
