MODEL 1
REMARK VINA RESULT:    -7.195      0.000      0.000
REMARK INTER + INTRA:         -10.545
REMARK INTER:                  -9.929
REMARK INTRA:                  -0.616
REMARK UNBOUND:                -0.616
REMARK  Name = 
REMARK  7 active torsions:
REMARK  status: ('A' for Active; 'I' for Inactive)
REMARK    1  A    between atoms: N_1  and  C_2
REMARK    2  A    between atoms: C_2  and  C_3
REMARK    3  A    between atoms: C_3  and  C_4
REMARK    4  A    between atoms: C_7  and  C_8
REMARK    5  A    between atoms: C_8  and  N_10
REMARK    6  A    between atoms: N_10  and  C_11
REMARK    7  A    between atoms: C_11  and  C_12
REMARK                            x       y       z     vdW  Elec       q    Type
REMARK                         _______ _______ _______ _____ _____    ______ ____
ROOT
ATOM      1  C   UNL     1      44.066   4.602  11.679  0.00  0.00    +0.000 C 
ATOM      2  S   UNL     1      42.608   5.432  11.760  0.00  0.00    +0.000 S 
ENDROOT
BRANCH   1   6
ATOM      3  C   UNL     1      45.863   3.329   7.977  0.00  0.00    +0.000 A 
ATOM      4  C   UNL     1      45.977   4.656   8.408  0.00  0.00    +0.000 A 
ATOM      5  C   UNL     1      45.371   5.068   9.596  0.00  0.00    +0.000 A 
ATOM      6  C   UNL     1      44.684   4.151  10.401  0.00  0.00    +0.000 A 
ATOM      7  C   UNL     1      44.568   2.823   9.971  0.00  0.00    +0.000 A 
ATOM      8  C   UNL     1      45.151   2.417   8.766  0.00  0.00    +0.000 A 
BRANCH   3   9
ATOM      9  C   UNL     1      46.495   2.891   6.677  0.00  0.00    +0.000 C 
BRANCH   9  10
ATOM     10  C   UNL     1      47.656   1.915   6.894  0.00  0.00    +0.000 C 
BRANCH  10  11
ATOM     11  N   UNL     1      48.496   1.833   5.700  0.00  0.00    +0.000 NA
ATOM     12  H   UNL     1      48.143   2.478   4.993  0.00  0.00    +0.000 HD
ATOM     13  H   UNL     1      48.424   0.901   5.291  0.00  0.00    +0.000 HD
ENDBRANCH  10  11
ENDBRANCH   9  10
ENDBRANCH   3   9
ENDBRANCH   1   6
BRANCH   1  14
ATOM     14  N   UNL     1      44.707   4.356  12.872  0.00  0.00    +0.000 N 
ATOM     15  H   UNL     1      44.105   4.353  13.689  0.00  0.00    +0.000 HD
BRANCH  14  16
ATOM     16  C   UNL     1      46.072   3.900  13.099  0.00  0.00    +0.000 C 
BRANCH  16  17
ATOM     17  C   UNL     1      46.960   5.040  13.543  0.00  0.00    +0.000 A 
ATOM     18  C   UNL     1      47.235   6.082  12.665  0.00  0.00    +0.000 A 
ATOM     19  C   UNL     1      48.053   7.110  13.110  0.00  0.00    +0.000 A 
ATOM     20 BR   UNL     1      48.429   8.567  11.967  0.00  0.00    +0.000 Br
ATOM     21  C   UNL     1      48.591   7.078  14.388  0.00  0.00    +0.000 A 
ATOM     22  C   UNL     1      48.281   5.993  15.186  0.00  0.00    +0.000 A 
ATOM     23  N   UNL     1      47.484   4.973  14.791  0.00  0.00    +0.000 NA
ENDBRANCH  16  17
ENDBRANCH  14  16
ENDBRANCH   1  14
TORSDOF 7
ENDMDL
MODEL 2
REMARK VINA RESULT:    -7.125      1.200      1.822
REMARK INTER + INTRA:         -10.449
REMARK INTER:                 -10.036
REMARK INTRA:                  -0.413
REMARK UNBOUND:                -0.616
REMARK  Name = 
REMARK  7 active torsions:
REMARK  status: ('A' for Active; 'I' for Inactive)
REMARK    1  A    between atoms: N_1  and  C_2
REMARK    2  A    between atoms: C_2  and  C_3
REMARK    3  A    between atoms: C_3  and  C_4
REMARK    4  A    between atoms: C_7  and  C_8
REMARK    5  A    between atoms: C_8  and  N_10
REMARK    6  A    between atoms: N_10  and  C_11
REMARK    7  A    between atoms: C_11  and  C_12
REMARK                            x       y       z     vdW  Elec       q    Type
REMARK                         _______ _______ _______ _____ _____    ______ ____
ROOT
ATOM      1  C   UNL     1      44.056   4.527  11.629  0.00  0.00    +0.000 C 
ATOM      2  S   UNL     1      42.590   5.343  11.712  0.00  0.00    +0.000 S 
ENDROOT
BRANCH   1   6
ATOM      3  C   UNL     1      45.850   3.217   7.938  0.00  0.00    +0.000 A 
ATOM      4  C   UNL     1      45.187   2.309   8.773  0.00  0.00    +0.000 A 
ATOM      5  C   UNL     1      44.630   2.736   9.980  0.00  0.00    +0.000 A 
ATOM      6  C   UNL     1      44.679   4.086  10.350  0.00  0.00    +0.000 A 
ATOM      7  C   UNL     1      45.342   4.995   9.517  0.00  0.00    +0.000 A 
ATOM      8  C   UNL     1      45.926   4.562   8.322  0.00  0.00    +0.000 A 
BRANCH   3   9
ATOM      9  C   UNL     1      46.477   2.750   6.646  0.00  0.00    +0.000 C 
BRANCH   9  10
ATOM     10  C   UNL     1      47.658   1.804   6.880  0.00  0.00    +0.000 C 
BRANCH  10  11
ATOM     11  N   UNL     1      48.564   1.810   5.733  0.00  0.00    +0.000 NA
ATOM     12  H   UNL     1      49.009   2.725   5.658  0.00  0.00    +0.000 HD
ATOM     13  H   UNL     1      48.033   1.683   4.872  0.00  0.00    +0.000 HD
ENDBRANCH  10  11
ENDBRANCH   9  10
ENDBRANCH   3   9
ENDBRANCH   1   6
BRANCH   1  14
ATOM     14  N   UNL     1      44.698   4.282  12.822  0.00  0.00    +0.000 N 
ATOM     15  H   UNL     1      44.191   3.684  13.467  0.00  0.00    +0.000 HD
BRANCH  14  16
ATOM     16  C   UNL     1      46.072   4.587  13.200  0.00  0.00    +0.000 C 
BRANCH  16  17
ATOM     17  C   UNL     1      46.415   6.026  12.891  0.00  0.00    +0.000 A 
ATOM     18  C   UNL     1      47.704   6.355  12.484  0.00  0.00    +0.000 A 
ATOM     19  C   UNL     1      47.979   7.687  12.210  0.00  0.00    +0.000 A 
ATOM     20 BR   UNL     1      49.705   8.181  11.619  0.00  0.00    +0.000 Br
ATOM     21  C   UNL     1      46.996   8.654  12.359  0.00  0.00    +0.000 A 
ATOM     22  C   UNL     1      45.750   8.239  12.788  0.00  0.00    +0.000 A 
ATOM     23  N   UNL     1      45.439   6.951  13.062  0.00  0.00    +0.000 NA
ENDBRANCH  16  17
ENDBRANCH  14  16
ENDBRANCH   1  14
TORSDOF 7
ENDMDL
MODEL 3
REMARK VINA RESULT:    -7.021      0.938      1.568
REMARK INTER + INTRA:         -10.305
REMARK INTER:                  -9.876
REMARK INTRA:                  -0.429
REMARK UNBOUND:                -0.616
REMARK  Name = 
REMARK  7 active torsions:
REMARK  status: ('A' for Active; 'I' for Inactive)
REMARK    1  A    between atoms: N_1  and  C_2
REMARK    2  A    between atoms: C_2  and  C_3
REMARK    3  A    between atoms: C_3  and  C_4
REMARK    4  A    between atoms: C_7  and  C_8
REMARK    5  A    between atoms: C_8  and  N_10
REMARK    6  A    between atoms: N_10  and  C_11
REMARK    7  A    between atoms: C_11  and  C_12
REMARK                            x       y       z     vdW  Elec       q    Type
REMARK                         _______ _______ _______ _____ _____    ______ ____
ROOT
ATOM      1  C   UNL     1      44.247   4.881  11.542  0.00  0.00    +0.000 C 
ATOM      2  S   UNL     1      42.643   5.351  11.702  0.00  0.00    +0.000 S 
ENDROOT
BRANCH   1   6
ATOM      3  C   UNL     1      45.925   3.387   7.866  0.00  0.00    +0.000 A 
ATOM      4  C   UNL     1      45.142   2.562   8.683  0.00  0.00    +0.000 A 
ATOM      5  C   UNL     1      44.622   3.045   9.885  0.00  0.00    +0.000 A 
ATOM      6  C   UNL     1      44.831   4.376  10.268  0.00  0.00    +0.000 A 
ATOM      7  C   UNL     1      45.615   5.203   9.454  0.00  0.00    +0.000 A 
ATOM      8  C   UNL     1      46.160   4.710   8.263  0.00  0.00    +0.000 A 
BRANCH   3   9
ATOM      9  C   UNL     1      46.510   2.855   6.580  0.00  0.00    +0.000 C 
BRANCH   9  10
ATOM     10  C   UNL     1      47.893   2.232   6.782  0.00  0.00    +0.000 C 
BRANCH  10  11
ATOM     11  N   UNL     1      48.511   1.907   5.498  0.00  0.00    +0.000 NA
ATOM     12  H   UNL     1      48.026   2.408   4.753  0.00  0.00    +0.000 HD
ATOM     13  H   UNL     1      48.390   0.915   5.297  0.00  0.00    +0.000 HD
ENDBRANCH  10  11
ENDBRANCH   9  10
ENDBRANCH   3   9
ENDBRANCH   1   6
BRANCH   1  14
ATOM     14  N   UNL     1      45.042   4.996  12.660  0.00  0.00    +0.000 N 
ATOM     15  H   UNL     1      44.870   5.822  13.225  0.00  0.00    +0.000 HD
BRANCH  14  16
ATOM     16  C   UNL     1      45.938   4.010  13.249  0.00  0.00    +0.000 C 
BRANCH  16  17
ATOM     17  C   UNL     1      46.846   4.646  14.277  0.00  0.00    +0.000 A 
ATOM     18  C   UNL     1      47.559   5.794  13.951  0.00  0.00    +0.000 A 
ATOM     19  C   UNL     1      48.381   6.348  14.922  0.00  0.00    +0.000 A 
ATOM     20 BR   UNL     1      49.344   7.928  14.541  0.00  0.00    +0.000 Br
ATOM     21  C   UNL     1      48.495   5.753  16.170  0.00  0.00    +0.000 A 
ATOM     22  C   UNL     1      47.765   4.602  16.399  0.00  0.00    +0.000 A 
ATOM     23  N   UNL     1      46.950   4.033  15.482  0.00  0.00    +0.000 NA
ENDBRANCH  16  17
ENDBRANCH  14  16
ENDBRANCH   1  14
TORSDOF 7
ENDMDL
MODEL 4
REMARK VINA RESULT:    -6.374      1.947      2.249
REMARK INTER + INTRA:          -9.412
REMARK INTER:                  -8.945
REMARK INTRA:                  -0.466
REMARK UNBOUND:                -0.616
REMARK  Name = 
REMARK  7 active torsions:
REMARK  status: ('A' for Active; 'I' for Inactive)
REMARK    1  A    between atoms: N_1  and  C_2
REMARK    2  A    between atoms: C_2  and  C_3
REMARK    3  A    between atoms: C_3  and  C_4
REMARK    4  A    between atoms: C_7  and  C_8
REMARK    5  A    between atoms: C_8  and  N_10
REMARK    6  A    between atoms: N_10  and  C_11
REMARK    7  A    between atoms: C_11  and  C_12
REMARK                            x       y       z     vdW  Elec       q    Type
REMARK                         _______ _______ _______ _____ _____    ______ ____
ROOT
ATOM      1  C   UNL     1      43.946   5.149  10.820  0.00  0.00    +0.000 C 
ATOM      2  S   UNL     1      42.940   4.608  12.052  0.00  0.00    +0.000 S 
ENDROOT
BRANCH   1   6
ATOM      3  C   UNL     1      45.836   2.555   7.946  0.00  0.00    +0.000 A 
ATOM      4  C   UNL     1      46.029   3.941   7.895  0.00  0.00    +0.000 A 
ATOM      5  C   UNL     1      45.393   4.778   8.814  0.00  0.00    +0.000 A 
ATOM      6  C   UNL     1      44.595   4.242   9.832  0.00  0.00    +0.000 A 
ATOM      7  C   UNL     1      44.399   2.856   9.885  0.00  0.00    +0.000 A 
ATOM      8  C   UNL     1      45.014   2.020   8.946  0.00  0.00    +0.000 A 
BRANCH   3   9
ATOM      9  C   UNL     1      46.502   1.653   6.935  0.00  0.00    +0.000 C 
BRANCH   9  10
ATOM     10  C   UNL     1      48.030   1.709   7.020  0.00  0.00    +0.000 C 
BRANCH  10  11
ATOM     11  N   UNL     1      48.584   2.494   5.918  0.00  0.00    +0.000 NA
ATOM     12  H   UNL     1      48.504   1.962   5.051  0.00  0.00    +0.000 HD
ATOM     13  H   UNL     1      49.582   2.642   6.067  0.00  0.00    +0.000 HD
ENDBRANCH  10  11
ENDBRANCH   9  10
ENDBRANCH   3   9
ENDBRANCH   1   6
BRANCH   1  14
ATOM     14  N   UNL     1      44.148   6.507  10.735  0.00  0.00    +0.000 N 
ATOM     15  H   UNL     1      43.758   6.948   9.908  0.00  0.00    +0.000 HD
BRANCH  14  16
ATOM     16  C   UNL     1      44.655   7.422  11.750  0.00  0.00    +0.000 C 
BRANCH  16  17
ATOM     17  C   UNL     1      45.984   6.950  12.293  0.00  0.00    +0.000 A 
ATOM     18  C   UNL     1      46.016   6.045  13.349  0.00  0.00    +0.000 A 
ATOM     19  C   UNL     1      47.256   5.637  13.818  0.00  0.00    +0.000 A 
ATOM     20 BR   UNL     1      47.354   4.381  15.227  0.00  0.00    +0.000 Br
ATOM     21  C   UNL     1      48.421   6.137  13.256  0.00  0.00    +0.000 A 
ATOM     22  C   UNL     1      48.294   7.047  12.225  0.00  0.00    +0.000 A 
ATOM     23  N   UNL     1      47.105   7.468  11.735  0.00  0.00    +0.000 NA
ENDBRANCH  16  17
ENDBRANCH  14  16
ENDBRANCH   1  14
TORSDOF 7
ENDMDL
MODEL 5
REMARK VINA RESULT:    -6.026      3.080      6.795
REMARK INTER + INTRA:          -8.933
REMARK INTER:                  -8.541
REMARK INTRA:                  -0.391
REMARK UNBOUND:                -0.616
REMARK  Name = 
REMARK  7 active torsions:
REMARK  status: ('A' for Active; 'I' for Inactive)
REMARK    1  A    between atoms: N_1  and  C_2
REMARK    2  A    between atoms: C_2  and  C_3
REMARK    3  A    between atoms: C_3  and  C_4
REMARK    4  A    between atoms: C_7  and  C_8
REMARK    5  A    between atoms: C_8  and  N_10
REMARK    6  A    between atoms: N_10  and  C_11
REMARK    7  A    between atoms: C_11  and  C_12
REMARK                            x       y       z     vdW  Elec       q    Type
REMARK                         _______ _______ _______ _____ _____    ______ ____
ROOT
ATOM      1  C   UNL     1      47.227   6.991  12.520  0.00  0.00    +0.000 C 
ATOM      2  S   UNL     1      47.708   8.598  12.602  0.00  0.00    +0.000 S 
ENDROOT
BRANCH   1   6
ATOM      3  C   UNL     1      47.582   4.262  15.834  0.00  0.00    +0.000 A 
ATOM      4  C   UNL     1      48.239   5.498  15.852  0.00  0.00    +0.000 A 
ATOM      5  C   UNL     1      48.140   6.367  14.763  0.00  0.00    +0.000 A 
ATOM      6  C   UNL     1      47.342   6.040  13.660  0.00  0.00    +0.000 A 
ATOM      7  C   UNL     1      46.685   4.803  13.640  0.00  0.00    +0.000 A 
ATOM      8  C   UNL     1      46.807   3.920  14.718  0.00  0.00    +0.000 A 
BRANCH   3   9
ATOM      9  C   UNL     1      47.712   3.310  16.999  0.00  0.00    +0.000 C 
BRANCH   9  10
ATOM     10  C   UNL     1      49.148   2.810  17.186  0.00  0.00    +0.000 C 
BRANCH  10  11
ATOM     11  N   UNL     1      49.491   1.821  16.165  0.00  0.00    +0.000 NA
ATOM     12  H   UNL     1      50.307   1.291  16.470  0.00  0.00    +0.000 HD
ATOM     13  H   UNL     1      49.767   2.294  15.305  0.00  0.00    +0.000 HD
ENDBRANCH  10  11
ENDBRANCH   9  10
ENDBRANCH   3   9
ENDBRANCH   1   6
BRANCH   1  14
ATOM     14  N   UNL     1      46.688   6.565  11.328  0.00  0.00    +0.000 N 
ATOM     15  H   UNL     1      47.362   6.223  10.650  0.00  0.00    +0.000 HD
BRANCH  14  16
ATOM     16  C   UNL     1      45.289   6.346  10.983  0.00  0.00    +0.000 C 
BRANCH  16  17
ATOM     17  C   UNL     1      45.107   5.035  10.254  0.00  0.00    +0.000 A 
ATOM     18  C   UNL     1      45.721   4.840   9.021  0.00  0.00    +0.000 A 
ATOM     19  C   UNL     1      45.530   3.622   8.385  0.00  0.00    +0.000 A 
ATOM     20 BR   UNL     1      46.371   3.294   6.725  0.00  0.00    +0.000 Br
ATOM     21  C   UNL     1      44.733   2.644   8.961  0.00  0.00    +0.000 A 
ATOM     22  C   UNL     1      44.145   2.933  10.178  0.00  0.00    +0.000 A 
ATOM     23  N   UNL     1      44.310   4.105  10.833  0.00  0.00    +0.000 NA
ENDBRANCH  16  17
ENDBRANCH  14  16
ENDBRANCH   1  14
TORSDOF 7
ENDMDL
MODEL 6
REMARK VINA RESULT:    -5.949      3.788      6.811
REMARK INTER + INTRA:          -8.826
REMARK INTER:                  -8.073
REMARK INTRA:                  -0.753
REMARK UNBOUND:                -0.616
REMARK  Name = 
REMARK  7 active torsions:
REMARK  status: ('A' for Active; 'I' for Inactive)
REMARK    1  A    between atoms: N_1  and  C_2
REMARK    2  A    between atoms: C_2  and  C_3
REMARK    3  A    between atoms: C_3  and  C_4
REMARK    4  A    between atoms: C_7  and  C_8
REMARK    5  A    between atoms: C_8  and  N_10
REMARK    6  A    between atoms: N_10  and  C_11
REMARK    7  A    between atoms: C_11  and  C_12
REMARK                            x       y       z     vdW  Elec       q    Type
REMARK                         _______ _______ _______ _____ _____    ______ ____
ROOT
ATOM      1  C   UNL     1      47.284   7.015  13.001  0.00  0.00    +0.000 C 
ATOM      2  S   UNL     1      48.493   7.504  11.943  0.00  0.00    +0.000 S 
ENDROOT
BRANCH   1   6
ATOM      3  C   UNL     1      47.904   4.187  16.191  0.00  0.00    +0.000 A 
ATOM      4  C   UNL     1      47.136   3.845  15.071  0.00  0.00    +0.000 A 
ATOM      5  C   UNL     1      46.918   4.775  14.053  0.00  0.00    +0.000 A 
ATOM      6  C   UNL     1      47.506   6.045  14.110  0.00  0.00    +0.000 A 
ATOM      7  C   UNL     1      48.273   6.390  15.229  0.00  0.00    +0.000 A 
ATOM      8  C   UNL     1      48.468   5.467  16.263  0.00  0.00    +0.000 A 
BRANCH   3   9
ATOM      9  C   UNL     1      48.116   3.190  17.305  0.00  0.00    +0.000 C 
BRANCH   9  10
ATOM     10  C   UNL     1      49.540   2.628  17.321  0.00  0.00    +0.000 C 
BRANCH  10  11
ATOM     11  N   UNL     1      49.755   1.724  16.192  0.00  0.00    +0.000 NA
ATOM     12  H   UNL     1      49.637   0.760  16.503  0.00  0.00    +0.000 HD
ATOM     13  H   UNL     1      50.719   1.799  15.868  0.00  0.00    +0.000 HD
ENDBRANCH  10  11
ENDBRANCH   9  10
ENDBRANCH   3   9
ENDBRANCH   1   6
BRANCH   1  14
ATOM     14  N   UNL     1      46.037   7.569  12.818  0.00  0.00    +0.000 N 
ATOM     15  H   UNL     1      45.808   8.328  13.454  0.00  0.00    +0.000 HD
BRANCH  14  16
ATOM     16  C   UNL     1      45.096   7.364  11.725  0.00  0.00    +0.000 C 
BRANCH  16  17
ATOM     17  C   UNL     1      44.527   5.964  11.753  0.00  0.00    +0.000 A 
ATOM     18  C   UNL     1      44.795   5.089  10.706  0.00  0.00    +0.000 A 
ATOM     19  C   UNL     1      44.255   3.813  10.770  0.00  0.00    +0.000 A 
ATOM     20 BR   UNL     1      44.620   2.574   9.390  0.00  0.00    +0.000 Br
ATOM     21  C   UNL     1      43.456   3.440  11.840  0.00  0.00    +0.000 A 
ATOM     22  C   UNL     1      43.224   4.381  12.825  0.00  0.00    +0.000 A 
ATOM     23  N   UNL     1      43.736   5.633  12.803  0.00  0.00    +0.000 NA
ENDBRANCH  16  17
ENDBRANCH  14  16
ENDBRANCH   1  14
TORSDOF 7
ENDMDL
MODEL 7
REMARK VINA RESULT:    -5.796      2.709      6.787
REMARK INTER + INTRA:          -8.614
REMARK INTER:                  -8.193
REMARK INTRA:                  -0.422
REMARK UNBOUND:                -0.616
REMARK  Name = 
REMARK  7 active torsions:
REMARK  status: ('A' for Active; 'I' for Inactive)
REMARK    1  A    between atoms: N_1  and  C_2
REMARK    2  A    between atoms: C_2  and  C_3
REMARK    3  A    between atoms: C_3  and  C_4
REMARK    4  A    between atoms: C_7  and  C_8
REMARK    5  A    between atoms: C_8  and  N_10
REMARK    6  A    between atoms: N_10  and  C_11
REMARK    7  A    between atoms: C_11  and  C_12
REMARK                            x       y       z     vdW  Elec       q    Type
REMARK                         _______ _______ _______ _____ _____    ______ ____
ROOT
ATOM      1  C   UNL     1      44.173   4.978  11.270  0.00  0.00    +0.000 C 
ATOM      2  S   UNL     1      42.633   5.430  11.763  0.00  0.00    +0.000 S 
ENDROOT
BRANCH   1   6
ATOM      3  C   UNL     1      47.781   6.487  13.077  0.00  0.00    +0.000 A 
ATOM      4  C   UNL     1      47.144   5.351  13.591  0.00  0.00    +0.000 A 
ATOM      5  C   UNL     1      45.961   4.882  13.016  0.00  0.00    +0.000 A 
ATOM      6  C   UNL     1      45.421   5.508  11.886  0.00  0.00    +0.000 A 
ATOM      7  C   UNL     1      46.056   6.646  11.370  0.00  0.00    +0.000 A 
ATOM      8  C   UNL     1      47.225   7.132  11.964  0.00  0.00    +0.000 A 
BRANCH   3   9
ATOM      9  C   UNL     1      49.045   7.010  13.716  0.00  0.00    +0.000 C 
BRANCH   9  10
ATOM     10  C   UNL     1      48.885   7.238  15.222  0.00  0.00    +0.000 C 
BRANCH  10  11
ATOM     11  N   UNL     1      50.070   7.891  15.778  0.00  0.00    +0.000 NA
ATOM     12  H   UNL     1      50.813   7.202  15.895  0.00  0.00    +0.000 HD
ATOM     13  H   UNL     1      49.863   8.244  16.712  0.00  0.00    +0.000 HD
ENDBRANCH  10  11
ENDBRANCH   9  10
ENDBRANCH   3   9
ENDBRANCH   1   6
BRANCH   1  14
ATOM     14  N   UNL     1      44.253   4.056  10.251  0.00  0.00    +0.000 N 
ATOM     15  H   UNL     1      43.933   3.123  10.492  0.00  0.00    +0.000 HD
BRANCH  14  16
ATOM     16  C   UNL     1      44.532   4.276   8.839  0.00  0.00    +0.000 C 
BRANCH  16  17
ATOM     17  C   UNL     1      45.361   3.149   8.266  0.00  0.00    +0.000 A 
ATOM     18  C   UNL     1      46.109   3.360   7.113  0.00  0.00    +0.000 A 
ATOM     19  C   UNL     1      46.857   2.301   6.619  0.00  0.00    +0.000 A 
ATOM     20 BR   UNL     1      47.919   2.547   5.075  0.00  0.00    +0.000 Br
ATOM     21  C   UNL     1      46.836   1.069   7.255  0.00  0.00    +0.000 A 
ATOM     22  C   UNL     1      46.048   0.943   8.382  0.00  0.00    +0.000 A 
ATOM     23  N   UNL     1      45.308   1.951   8.898  0.00  0.00    +0.000 NA
ENDBRANCH  16  17
ENDBRANCH  14  16
ENDBRANCH   1  14
TORSDOF 7
ENDMDL
MODEL 8
REMARK VINA RESULT:    -5.781      3.532      4.703
REMARK INTER + INTRA:          -8.594
REMARK INTER:                  -8.224
REMARK INTRA:                  -0.370
REMARK UNBOUND:                -0.616
REMARK  Name = 
REMARK  7 active torsions:
REMARK  status: ('A' for Active; 'I' for Inactive)
REMARK    1  A    between atoms: N_1  and  C_2
REMARK    2  A    between atoms: C_2  and  C_3
REMARK    3  A    between atoms: C_3  and  C_4
REMARK    4  A    between atoms: C_7  and  C_8
REMARK    5  A    between atoms: C_8  and  N_10
REMARK    6  A    between atoms: N_10  and  C_11
REMARK    7  A    between atoms: C_11  and  C_12
REMARK                            x       y       z     vdW  Elec       q    Type
REMARK                         _______ _______ _______ _____ _____    ______ ____
ROOT
ATOM      1  C   UNL     1      47.046   4.996  14.362  0.00  0.00    +0.000 C 
ATOM      2  S   UNL     1      48.060   6.291  14.702  0.00  0.00    +0.000 S 
ENDROOT
BRANCH   1   6
ATOM      3  C   UNL     1      44.939   4.505  10.637  0.00  0.00    +0.000 A 
ATOM      4  C   UNL     1      44.989   3.465  11.573  0.00  0.00    +0.000 A 
ATOM      5  C   UNL     1      45.695   3.622  12.767  0.00  0.00    +0.000 A 
ATOM      6  C   UNL     1      46.320   4.838  13.071  0.00  0.00    +0.000 A 
ATOM      7  C   UNL     1      46.271   5.880  12.136  0.00  0.00    +0.000 A 
ATOM      8  C   UNL     1      45.588   5.712  10.927  0.00  0.00    +0.000 A 
BRANCH   3   9
ATOM      9  C   UNL     1      44.198   4.325   9.333  0.00  0.00    +0.000 C 
BRANCH   9  10
ATOM     10  C   UNL     1      44.993   3.496   8.321  0.00  0.00    +0.000 C 
BRANCH  10  11
ATOM     11  N   UNL     1      46.033   4.305   7.688  0.00  0.00    +0.000 NA
ATOM     12  H   UNL     1      46.109   4.048   6.703  0.00  0.00    +0.000 HD
ATOM     13  H   UNL     1      46.939   4.092   8.105  0.00  0.00    +0.000 HD
ENDBRANCH  10  11
ENDBRANCH   9  10
ENDBRANCH   3   9
ENDBRANCH   1   6
BRANCH   1  14
ATOM     14  N   UNL     1      46.912   4.039  15.342  0.00  0.00    +0.000 N 
ATOM     15  H   UNL     1      46.715   3.102  15.003  0.00  0.00    +0.000 HD
BRANCH  14  16
ATOM     16  C   UNL     1      47.214   4.137  16.764  0.00  0.00    +0.000 C 
BRANCH  16  17
ATOM     17  C   UNL     1      48.602   3.618  17.063  0.00  0.00    +0.000 A 
ATOM     18  C   UNL     1      49.474   4.383  17.830  0.00  0.00    +0.000 A 
ATOM     19  C   UNL     1      50.739   3.871  18.082  0.00  0.00    +0.000 A 
ATOM     20 BR   UNL     1      51.949   4.855  19.149  0.00  0.00    +0.000 Br
ATOM     21  C   UNL     1      51.116   2.642  17.563  0.00  0.00    +0.000 A 
ATOM     22  C   UNL     1      50.193   1.960  16.794  0.00  0.00    +0.000 A 
ATOM     23  N   UNL     1      48.949   2.421  16.529  0.00  0.00    +0.000 NA
ENDBRANCH  16  17
ENDBRANCH  14  16
ENDBRANCH   1  14
TORSDOF 7
ENDMDL
MODEL 9
REMARK VINA RESULT:    -5.748      3.986      5.381
REMARK INTER + INTRA:          -8.548
REMARK INTER:                  -8.049
REMARK INTRA:                  -0.499
REMARK UNBOUND:                -0.616
REMARK  Name = 
REMARK  7 active torsions:
REMARK  status: ('A' for Active; 'I' for Inactive)
REMARK    1  A    between atoms: N_1  and  C_2
REMARK    2  A    between atoms: C_2  and  C_3
REMARK    3  A    between atoms: C_3  and  C_4
REMARK    4  A    between atoms: C_7  and  C_8
REMARK    5  A    between atoms: C_8  and  N_10
REMARK    6  A    between atoms: N_10  and  C_11
REMARK    7  A    between atoms: C_11  and  C_12
REMARK                            x       y       z     vdW  Elec       q    Type
REMARK                         _______ _______ _______ _____ _____    ______ ____
ROOT
ATOM      1  C   UNL     1      48.118   6.884  13.679  0.00  0.00    +0.000 C 
ATOM      2  S   UNL     1      49.425   7.549  12.860  0.00  0.00    +0.000 S 
ENDROOT
BRANCH   1   6
ATOM      3  C   UNL     1      44.794   5.014  11.675  0.00  0.00    +0.000 A 
ATOM      4  C   UNL     1      45.534   6.022  11.045  0.00  0.00    +0.000 A 
ATOM      5  C   UNL     1      46.594   6.641  11.710  0.00  0.00    +0.000 A 
ATOM      6  C   UNL     1      46.967   6.229  12.995  0.00  0.00    +0.000 A 
ATOM      7  C   UNL     1      46.228   5.222  13.628  0.00  0.00    +0.000 A 
ATOM      8  C   UNL     1      45.147   4.622  12.973  0.00  0.00    +0.000 A 
BRANCH   3   9
ATOM      9  C   UNL     1      43.630   4.364  10.966  0.00  0.00    +0.000 C 
BRANCH   9  10
ATOM     10  C   UNL     1      43.850   2.866  10.737  0.00  0.00    +0.000 C 
BRANCH  10  11
ATOM     11  N   UNL     1      43.039   2.073  11.660  0.00  0.00    +0.000 NA
ATOM     12  H   UNL     1      42.112   2.491  11.740  0.00  0.00    +0.000 HD
ATOM     13  H   UNL     1      43.446   2.108  12.594  0.00  0.00    +0.000 HD
ENDBRANCH  10  11
ENDBRANCH   9  10
ENDBRANCH   3   9
ENDBRANCH   1   6
BRANCH   1  14
ATOM     14  N   UNL     1      48.148   6.948  15.053  0.00  0.00    +0.000 N 
ATOM     15  H   UNL     1      47.244   7.078  15.496  0.00  0.00    +0.000 HD
BRANCH  14  16
ATOM     16  C   UNL     1      49.251   6.655  15.958  0.00  0.00    +0.000 C 
BRANCH  16  17
ATOM     17  C   UNL     1      48.922   5.484  16.855  0.00  0.00    +0.000 A 
ATOM     18  C   UNL     1      49.009   5.626  18.236  0.00  0.00    +0.000 A 
ATOM     19  C   UNL     1      48.698   4.529  19.025  0.00  0.00    +0.000 A 
ATOM     20 BR   UNL     1      48.765   4.682  20.907  0.00  0.00    +0.000 Br
ATOM     21  C   UNL     1      48.332   3.325  18.442  0.00  0.00    +0.000 A 
ATOM     22  C   UNL     1      48.292   3.267  17.062  0.00  0.00    +0.000 A 
ATOM     23  N   UNL     1      48.583   4.315  16.257  0.00  0.00    +0.000 NA
ENDBRANCH  16  17
ENDBRANCH  14  16
ENDBRANCH   1  14
TORSDOF 7
ENDMDL
