MODEL 1
REMARK VINA RESULT:    -8.073      0.000      0.000
REMARK INTER + INTRA:         -11.092
REMARK INTER:                 -10.432
REMARK INTRA:                  -0.660
REMARK UNBOUND:                -0.660
REMARK  Name = 
REMARK  6 active torsions:
REMARK  status: ('A' for Active; 'I' for Inactive)
REMARK    1  A    between atoms: C_1  and  O_2
REMARK    2  A    between atoms: O_2  and  C_3
REMARK    3  A    between atoms: C_7  and  N_8
REMARK    4  A    between atoms: N_8  and  C_9
REMARK    5  A    between atoms: C_9  and  C_10
REMARK    6  A    between atoms: C_14  and  C_15
REMARK                            x       y       z     vdW  Elec       q    Type
REMARK                         _______ _______ _______ _____ _____    ______ ____
ROOT
ATOM      1  C   UNL     1      43.878   4.738  10.711  0.00  0.00    +0.000 A 
ATOM      2  C   UNL     1      43.234   3.690  11.353  0.00  0.00    +0.000 A 
ATOM      3  N   UNL     1      43.398   2.394  11.024  0.00  0.00    +0.000 NA
ATOM      4  C   UNL     1      44.245   2.128   9.998  0.00  0.00    +0.000 A 
ATOM      5  C   UNL     1      44.946   3.085   9.259  0.00  0.00    +0.000 A 
ATOM      6  C   UNL     1      44.731   4.418   9.645  0.00  0.00    +0.000 A 
ENDROOT
BRANCH   5   7
ATOM      7  C   UNL     1      45.845   2.725   8.146  0.00  0.00    +0.000 A 
ATOM      8  C   UNL     1      46.198   3.641   7.142  0.00  0.00    +0.000 A 
ATOM      9  C   UNL     1      47.041   3.265   6.095  0.00  0.00    +0.000 A 
ATOM     10  C   UNL     1      47.527   1.971   6.076  0.00  0.00    +0.000 A 
ATOM     11  N   UNL     1      47.228   1.052   7.015  0.00  0.00    +0.000 NA
ATOM     12  C   UNL     1      46.399   1.448   8.014  0.00  0.00    +0.000 A 
ENDBRANCH   5   7
BRANCH   1  13
ATOM     13  C   UNL     1      43.631   6.165  11.114  0.00  0.00    +0.000 C 
BRANCH  13  14
ATOM     14  N   UNL     1      43.888   6.307  12.540  0.00  0.00    +0.000 N 
ATOM     15  H   UNL     1      43.339   5.658  13.098  0.00  0.00    +0.000 HD
BRANCH  14  20
ATOM     16  C   UNL     1      47.008   5.108  13.877  0.00  0.00    +0.000 A 
ATOM     17  C   UNL     1      47.893   6.065  13.407  0.00  0.00    +0.000 A 
ATOM     18  N   UNL     1      47.488   7.120  12.664  0.00  0.00    +0.000 NA
ATOM     19  C   UNL     1      46.158   7.156  12.410  0.00  0.00    +0.000 A 
ATOM     20  C   UNL     1      45.245   6.206  12.888  0.00  0.00    +0.000 A 
ATOM     21  N   UNL     1      45.678   5.163  13.627  0.00  0.00    +0.000 NA
BRANCH  16  23
ATOM     22  C   UNL     1      47.330   4.233  16.018  0.00  0.00    +0.000 C 
ATOM     23  O   UNL     1      47.524   4.064  14.616  0.00  0.00    +0.000 OA
ENDBRANCH  16  23
ENDBRANCH  14  20
ENDBRANCH  13  14
ENDBRANCH   1  13
TORSDOF 5
ENDMDL
MODEL 2
REMARK VINA RESULT:    -7.747      1.427      2.018
REMARK INTER + INTRA:         -10.672
REMARK INTER:                  -9.933
REMARK INTRA:                  -0.739
REMARK UNBOUND:                -0.660
REMARK  Name = 
REMARK  6 active torsions:
REMARK  status: ('A' for Active; 'I' for Inactive)
REMARK    1  A    between atoms: C_1  and  O_2
REMARK    2  A    between atoms: O_2  and  C_3
REMARK    3  A    between atoms: C_7  and  N_8
REMARK    4  A    between atoms: N_8  and  C_9
REMARK    5  A    between atoms: C_9  and  C_10
REMARK    6  A    between atoms: C_14  and  C_15
REMARK                            x       y       z     vdW  Elec       q    Type
REMARK                         _______ _______ _______ _____ _____    ______ ____
ROOT
ATOM      1  C   UNL     1      43.957   4.751  10.788  0.00  0.00    +0.000 A 
ATOM      2  C   UNL     1      43.268   3.720  11.410  0.00  0.00    +0.000 A 
ATOM      3  N   UNL     1      43.371   2.425  11.052  0.00  0.00    +0.000 NA
ATOM      4  C   UNL     1      44.203   2.143  10.018  0.00  0.00    +0.000 A 
ATOM      5  C   UNL     1      44.945   3.083   9.298  0.00  0.00    +0.000 A 
ATOM      6  C   UNL     1      44.792   4.416   9.713  0.00  0.00    +0.000 A 
ENDROOT
BRANCH   5   7
ATOM      7  C   UNL     1      45.825   2.707   8.174  0.00  0.00    +0.000 A 
ATOM      8  C   UNL     1      46.154   3.606   7.147  0.00  0.00    +0.000 A 
ATOM      9  C   UNL     1      46.978   3.215   6.091  0.00  0.00    +0.000 A 
ATOM     10  C   UNL     1      47.470   1.923   6.086  0.00  0.00    +0.000 A 
ATOM     11  N   UNL     1      47.193   1.020   7.047  0.00  0.00    +0.000 NA
ATOM     12  C   UNL     1      46.382   1.431   8.054  0.00  0.00    +0.000 A 
ENDBRANCH   5   7
BRANCH   1  13
ATOM     13  C   UNL     1      43.776   6.178  11.223  0.00  0.00    +0.000 C 
BRANCH  13  14
ATOM     14  N   UNL     1      44.198   6.310  12.611  0.00  0.00    +0.000 N 
ATOM     15  H   UNL     1      43.789   5.596  13.208  0.00  0.00    +0.000 HD
BRANCH  14  20
ATOM     16  C   UNL     1      47.648   7.334  12.530  0.00  0.00    +0.000 A 
ATOM     17  C   UNL     1      48.250   6.328  13.269  0.00  0.00    +0.000 A 
ATOM     18  N   UNL     1      47.548   5.295  13.790  0.00  0.00    +0.000 NA
ATOM     19  C   UNL     1      46.217   5.334  13.541  0.00  0.00    +0.000 A 
ATOM     20  C   UNL     1      45.592   6.335  12.784  0.00  0.00    +0.000 A 
ATOM     21  N   UNL     1      46.318   7.353  12.278  0.00  0.00    +0.000 NA
BRANCH  16  23
ATOM     22  C   UNL     1      49.612   7.864  11.385  0.00  0.00    +0.000 C 
ATOM     23  O   UNL     1      48.452   8.348  12.054  0.00  0.00    +0.000 OA
ENDBRANCH  16  23
ENDBRANCH  14  20
ENDBRANCH  13  14
ENDBRANCH   1  13
TORSDOF 5
ENDMDL
MODEL 3
REMARK VINA RESULT:    -7.130      2.486      6.460
REMARK INTER + INTRA:          -9.875
REMARK INTER:                  -9.413
REMARK INTRA:                  -0.462
REMARK UNBOUND:                -0.660
REMARK  Name = 
REMARK  6 active torsions:
REMARK  status: ('A' for Active; 'I' for Inactive)
REMARK    1  A    between atoms: C_1  and  O_2
REMARK    2  A    between atoms: O_2  and  C_3
REMARK    3  A    between atoms: C_7  and  N_8
REMARK    4  A    between atoms: N_8  and  C_9
REMARK    5  A    between atoms: C_9  and  C_10
REMARK    6  A    between atoms: C_14  and  C_15
REMARK                            x       y       z     vdW  Elec       q    Type
REMARK                         _______ _______ _______ _____ _____    ______ ____
ROOT
ATOM      1  C   UNL     1      44.847   3.992  11.951  0.00  0.00    +0.000 A 
ATOM      2  C   UNL     1      45.513   3.193  12.868  0.00  0.00    +0.000 A 
ATOM      3  N   UNL     1      46.569   3.607  13.596  0.00  0.00    +0.000 NA
ATOM      4  C   UNL     1      46.984   4.883  13.399  0.00  0.00    +0.000 A 
ATOM      5  C   UNL     1      46.412   5.788  12.501  0.00  0.00    +0.000 A 
ATOM      6  C   UNL     1      45.320   5.299  11.766  0.00  0.00    +0.000 A 
ENDROOT
BRANCH   5   7
ATOM      7  C   UNL     1      46.921   7.162  12.328  0.00  0.00    +0.000 A 
ATOM      8  C   UNL     1      48.235   7.428  11.911  0.00  0.00    +0.000 A 
ATOM      9  C   UNL     1      48.690   8.740  11.770  0.00  0.00    +0.000 A 
ATOM     10  C   UNL     1      47.811   9.772  12.041  0.00  0.00    +0.000 A 
ATOM     11  N   UNL     1      46.537   9.577  12.437  0.00  0.00    +0.000 NA
ATOM     12  C   UNL     1      46.131   8.290  12.572  0.00  0.00    +0.000 A 
ENDBRANCH   5   7
BRANCH   1  13
ATOM     13  C   UNL     1      43.690   3.458  11.153  0.00  0.00    +0.000 C 
BRANCH  13  14
ATOM     14  N   UNL     1      44.129   2.288  10.405  0.00  0.00    +0.000 N 
ATOM     15  H   UNL     1      43.353   1.689  10.135  0.00  0.00    +0.000 HD
BRANCH  14  20
ATOM     16  C   UNL     1      46.484   2.036   7.694  0.00  0.00    +0.000 A 
ATOM     17  C   UNL     1      46.285   3.244   7.045  0.00  0.00    +0.000 A 
ATOM     18  N   UNL     1      45.396   4.163   7.487  0.00  0.00    +0.000 NA
ATOM     19  C   UNL     1      44.714   3.801   8.600  0.00  0.00    +0.000 A 
ATOM     20  C   UNL     1      44.912   2.591   9.279  0.00  0.00    +0.000 A 
ATOM     21  N   UNL     1      45.805   1.692   8.814  0.00  0.00    +0.000 NA
BRANCH  16  23
ATOM     22  C   UNL     1      48.155   1.740   6.091  0.00  0.00    +0.000 C 
ATOM     23  O   UNL     1      47.405   1.162   7.156  0.00  0.00    +0.000 OA
ENDBRANCH  16  23
ENDBRANCH  14  20
ENDBRANCH  13  14
ENDBRANCH   1  13
TORSDOF 5
ENDMDL
MODEL 4
REMARK VINA RESULT:    -6.990      1.471      2.295
REMARK INTER + INTRA:          -9.693
REMARK INTER:                  -9.078
REMARK INTRA:                  -0.615
REMARK UNBOUND:                -0.660
REMARK  Name = 
REMARK  6 active torsions:
REMARK  status: ('A' for Active; 'I' for Inactive)
REMARK    1  A    between atoms: C_1  and  O_2
REMARK    2  A    between atoms: O_2  and  C_3
REMARK    3  A    between atoms: C_7  and  N_8
REMARK    4  A    between atoms: N_8  and  C_9
REMARK    5  A    between atoms: C_9  and  C_10
REMARK    6  A    between atoms: C_14  and  C_15
REMARK                            x       y       z     vdW  Elec       q    Type
REMARK                         _______ _______ _______ _____ _____    ______ ____
ROOT
ATOM      1  C   UNL     1      45.061   6.062  11.811  0.00  0.00    +0.000 A 
ATOM      2  C   UNL     1      43.678   6.005  11.904  0.00  0.00    +0.000 A 
ATOM      3  N   UNL     1      42.907   5.209  11.136  0.00  0.00    +0.000 NA
ATOM      4  C   UNL     1      43.548   4.433  10.227  0.00  0.00    +0.000 A 
ATOM      5  C   UNL     1      44.930   4.402  10.021  0.00  0.00    +0.000 A 
ATOM      6  C   UNL     1      45.680   5.256  10.846  0.00  0.00    +0.000 A 
ENDROOT
BRANCH   5   7
ATOM      7  C   UNL     1      45.562   3.540   9.004  0.00  0.00    +0.000 A 
ATOM      8  C   UNL     1      46.166   4.061   7.849  0.00  0.00    +0.000 A 
ATOM      9  C   UNL     1      46.743   3.216   6.900  0.00  0.00    +0.000 A 
ATOM     10  C   UNL     1      46.714   1.854   7.130  0.00  0.00    +0.000 A 
ATOM     11  N   UNL     1      46.155   1.297   8.223  0.00  0.00    +0.000 NA
ATOM     12  C   UNL     1      45.595   2.146   9.121  0.00  0.00    +0.000 A 
ENDBRANCH   5   7
BRANCH   1  13
ATOM     13  C   UNL     1      45.859   6.992  12.683  0.00  0.00    +0.000 C 
BRANCH  13  14
ATOM     14  N   UNL     1      47.226   6.500  12.776  0.00  0.00    +0.000 N 
ATOM     15  H   UNL     1      47.905   7.183  12.450  0.00  0.00    +0.000 HD
BRANCH  14  20
ATOM     16  C   UNL     1      47.557   4.463  15.725  0.00  0.00    +0.000 A 
ATOM     17  C   UNL     1      48.423   5.227  16.491  0.00  0.00    +0.000 A 
ATOM     18  N   UNL     1      48.899   6.421  16.068  0.00  0.00    +0.000 NA
ATOM     19  C   UNL     1      48.470   6.796  14.838  0.00  0.00    +0.000 A 
ATOM     20  C   UNL     1      47.584   6.044  14.055  0.00  0.00    +0.000 A 
ATOM     21  N   UNL     1      47.127   4.857  14.503  0.00  0.00    +0.000 NA
BRANCH  16  23
ATOM     22  C   UNL     1      47.438   3.116  17.629  0.00  0.00    +0.000 C 
ATOM     23  O   UNL     1      47.139   3.254  16.243  0.00  0.00    +0.000 OA
ENDBRANCH  16  23
ENDBRANCH  14  20
ENDBRANCH  13  14
ENDBRANCH   1  13
TORSDOF 5
ENDMDL
MODEL 5
REMARK VINA RESULT:    -6.958      2.624      6.676
REMARK INTER + INTRA:          -9.652
REMARK INTER:                  -9.020
REMARK INTRA:                  -0.632
REMARK UNBOUND:                -0.660
REMARK  Name = 
REMARK  6 active torsions:
REMARK  status: ('A' for Active; 'I' for Inactive)
REMARK    1  A    between atoms: C_1  and  O_2
REMARK    2  A    between atoms: O_2  and  C_3
REMARK    3  A    between atoms: C_7  and  N_8
REMARK    4  A    between atoms: N_8  and  C_9
REMARK    5  A    between atoms: C_9  and  C_10
REMARK    6  A    between atoms: C_14  and  C_15
REMARK                            x       y       z     vdW  Elec       q    Type
REMARK                         _______ _______ _______ _____ _____    ______ ____
ROOT
ATOM      1  C   UNL     1      45.269   5.593  11.795  0.00  0.00    +0.000 A 
ATOM      2  C   UNL     1      44.997   4.638  12.762  0.00  0.00    +0.000 A 
ATOM      3  N   UNL     1      45.797   4.390  13.818  0.00  0.00    +0.000 NA
ATOM      4  C   UNL     1      46.929   5.131  13.913  0.00  0.00    +0.000 A 
ATOM      5  C   UNL     1      47.329   6.115  13.005  0.00  0.00    +0.000 A 
ATOM      6  C   UNL     1      46.459   6.325  11.922  0.00  0.00    +0.000 A 
ENDROOT
BRANCH   5   7
ATOM      7  C   UNL     1      48.582   6.879  13.163  0.00  0.00    +0.000 A 
ATOM      8  C   UNL     1      49.266   7.431  12.069  0.00  0.00    +0.000 A 
ATOM      9  C   UNL     1      50.456   8.137  12.252  0.00  0.00    +0.000 A 
ATOM     10  C   UNL     1      50.939   8.287  13.538  0.00  0.00    +0.000 A 
ATOM     11  N   UNL     1      50.322   7.785  14.626  0.00  0.00    +0.000 NA
ATOM     12  C   UNL     1      49.172   7.097  14.412  0.00  0.00    +0.000 A 
ENDBRANCH   5   7
BRANCH   1  13
ATOM     13  C   UNL     1      44.345   5.801  10.628  0.00  0.00    +0.000 C 
BRANCH  13  14
ATOM     14  N   UNL     1      43.739   4.527  10.268  0.00  0.00    +0.000 N 
ATOM     15  H   UNL     1      42.805   4.638   9.883  0.00  0.00    +0.000 HD
BRANCH  14  20
ATOM     16  C   UNL     1      45.910   3.511   7.583  0.00  0.00    +0.000 A 
ATOM     17  C   UNL     1      46.087   2.166   7.866  0.00  0.00    +0.000 A 
ATOM     18  N   UNL     1      45.491   1.567   8.922  0.00  0.00    +0.000 NA
ATOM     19  C   UNL     1      44.725   2.388   9.680  0.00  0.00    +0.000 A 
ATOM     20  C   UNL     1      44.522   3.747   9.401  0.00  0.00    +0.000 A 
ATOM     21  N   UNL     1      45.131   4.318   8.341  0.00  0.00    +0.000 NA
BRANCH  16  23
ATOM     22  C   UNL     1      46.923   3.030   5.534  0.00  0.00    +0.000 C 
ATOM     23  O   UNL     1      46.572   4.029   6.488  0.00  0.00    +0.000 OA
ENDBRANCH  16  23
ENDBRANCH  14  20
ENDBRANCH  13  14
ENDBRANCH   1  13
TORSDOF 5
ENDMDL
MODEL 6
REMARK VINA RESULT:    -6.687      1.974      2.803
REMARK INTER + INTRA:          -9.302
REMARK INTER:                  -8.862
REMARK INTRA:                  -0.440
REMARK UNBOUND:                -0.660
REMARK  Name = 
REMARK  6 active torsions:
REMARK  status: ('A' for Active; 'I' for Inactive)
REMARK    1  A    between atoms: C_1  and  O_2
REMARK    2  A    between atoms: O_2  and  C_3
REMARK    3  A    between atoms: C_7  and  N_8
REMARK    4  A    between atoms: N_8  and  C_9
REMARK    5  A    between atoms: C_9  and  C_10
REMARK    6  A    between atoms: C_14  and  C_15
REMARK                            x       y       z     vdW  Elec       q    Type
REMARK                         _______ _______ _______ _____ _____    ______ ____
ROOT
ATOM      1  C   UNL     1      44.993   3.933  12.268  0.00  0.00    +0.000 A 
ATOM      2  C   UNL     1      43.703   3.439  12.390  0.00  0.00    +0.000 A 
ATOM      3  N   UNL     1      43.067   2.754  11.420  0.00  0.00    +0.000 NA
ATOM      4  C   UNL     1      43.751   2.553  10.266  0.00  0.00    +0.000 A 
ATOM      5  C   UNL     1      45.047   3.005  10.006  0.00  0.00    +0.000 A 
ATOM      6  C   UNL     1      45.657   3.717  11.051  0.00  0.00    +0.000 A 
ENDROOT
BRANCH   5   7
ATOM      7  C   UNL     1      45.731   2.761   8.721  0.00  0.00    +0.000 A 
ATOM      8  C   UNL     1      45.956   3.783   7.785  0.00  0.00    +0.000 A 
ATOM      9  C   UNL     1      46.593   3.515   6.573  0.00  0.00    +0.000 A 
ATOM     10  C   UNL     1      47.007   2.220   6.321  0.00  0.00    +0.000 A 
ATOM     11  N   UNL     1      46.824   1.201   7.183  0.00  0.00    +0.000 NA
ATOM     12  C   UNL     1      46.193   1.495   8.348  0.00  0.00    +0.000 A 
ENDBRANCH   5   7
BRANCH   1  13
ATOM     13  C   UNL     1      45.635   4.711  13.382  0.00  0.00    +0.000 C 
BRANCH  13  14
ATOM     14  N   UNL     1      46.433   3.805  14.197  0.00  0.00    +0.000 N 
ATOM     15  H   UNL     1      47.020   3.195  13.634  0.00  0.00    +0.000 HD
BRANCH  14  20
ATOM     16  C   UNL     1      48.615   6.137  15.855  0.00  0.00    +0.000 A 
ATOM     17  C   UNL     1      48.585   5.664  17.157  0.00  0.00    +0.000 A 
ATOM     18  N   UNL     1      47.869   4.573  17.512  0.00  0.00    +0.000 NA
ATOM     19  C   UNL     1      47.180   3.994  16.498  0.00  0.00    +0.000 A 
ATOM     20  C   UNL     1      47.211   4.449  15.173  0.00  0.00    +0.000 A 
ATOM     21  N   UNL     1      47.933   5.542  14.849  0.00  0.00    +0.000 NA
BRANCH  16  23
ATOM     22  C   UNL     1      50.743   7.097  15.930  0.00  0.00    +0.000 C 
ATOM     23  O   UNL     1      49.367   7.266  15.600  0.00  0.00    +0.000 OA
ENDBRANCH  16  23
ENDBRANCH  14  20
ENDBRANCH  13  14
ENDBRANCH   1  13
TORSDOF 5
ENDMDL
MODEL 7
REMARK VINA RESULT:    -6.514      2.378      4.674
REMARK INTER + INTRA:          -9.077
REMARK INTER:                  -8.488
REMARK INTRA:                  -0.589
REMARK UNBOUND:                -0.660
REMARK  Name = 
REMARK  6 active torsions:
REMARK  status: ('A' for Active; 'I' for Inactive)
REMARK    1  A    between atoms: C_1  and  O_2
REMARK    2  A    between atoms: O_2  and  C_3
REMARK    3  A    between atoms: C_7  and  N_8
REMARK    4  A    between atoms: N_8  and  C_9
REMARK    5  A    between atoms: C_9  and  C_10
REMARK    6  A    between atoms: C_14  and  C_15
REMARK                            x       y       z     vdW  Elec       q    Type
REMARK                         _______ _______ _______ _____ _____    ______ ____
ROOT
ATOM      1  C   UNL     1      47.254   7.042  13.262  0.00  0.00    +0.000 A 
ATOM      2  C   UNL     1      46.484   8.195  13.270  0.00  0.00    +0.000 A 
ATOM      3  N   UNL     1      45.394   8.374  12.498  0.00  0.00    +0.000 NA
ATOM      4  C   UNL     1      45.055   7.352  11.673  0.00  0.00    +0.000 A 
ATOM      5  C   UNL     1      45.748   6.144  11.557  0.00  0.00    +0.000 A 
ATOM      6  C   UNL     1      46.878   6.017  12.381  0.00  0.00    +0.000 A 
ENDROOT
BRANCH   5   7
ATOM      7  C   UNL     1      45.330   5.076  10.630  0.00  0.00    +0.000 A 
ATOM      8  C   UNL     1      45.648   5.103   9.262  0.00  0.00    +0.000 A 
ATOM      9  C   UNL     1      45.225   4.083   8.409  0.00  0.00    +0.000 A 
ATOM     10  C   UNL     1      44.495   3.039   8.945  0.00  0.00    +0.000 A 
ATOM     11  N   UNL     1      44.166   2.956  10.249  0.00  0.00    +0.000 NA
ATOM     12  C   UNL     1      44.585   3.969  11.049  0.00  0.00    +0.000 A 
ENDBRANCH   5   7
BRANCH   1  13
ATOM     13  C   UNL     1      48.474   6.917  14.132  0.00  0.00    +0.000 C 
BRANCH  13  14
ATOM     14  N   UNL     1      48.055   6.729  15.514  0.00  0.00    +0.000 N 
ATOM     15  H   UNL     1      47.094   7.022  15.669  0.00  0.00    +0.000 HD
BRANCH  14  20
ATOM     16  C   UNL     1      49.488   3.807  17.052  0.00  0.00    +0.000 A 
ATOM     17  C   UNL     1      48.436   2.909  16.969  0.00  0.00    +0.000 A 
ATOM     18  N   UNL     1      47.253   3.234  16.398  0.00  0.00    +0.000 NA
ATOM     19  C   UNL     1      47.181   4.504  15.931  0.00  0.00    +0.000 A 
ATOM     20  C   UNL     1      48.238   5.422  15.993  0.00  0.00    +0.000 A 
ATOM     21  N   UNL     1      49.406   5.069  16.569  0.00  0.00    +0.000 NA
BRANCH  16  23
ATOM     22  C   UNL     1      50.973   2.030  17.350  0.00  0.00    +0.000 C 
ATOM     23  O   UNL     1      50.648   3.381  17.665  0.00  0.00    +0.000 OA
ENDBRANCH  16  23
ENDBRANCH  14  20
ENDBRANCH  13  14
ENDBRANCH   1  13
TORSDOF 5
ENDMDL
MODEL 8
REMARK VINA RESULT:    -6.486      2.938      3.975
REMARK INTER + INTRA:          -9.042
REMARK INTER:                  -8.415
REMARK INTRA:                  -0.627
REMARK UNBOUND:                -0.660
REMARK  Name = 
REMARK  6 active torsions:
REMARK  status: ('A' for Active; 'I' for Inactive)
REMARK    1  A    between atoms: C_1  and  O_2
REMARK    2  A    between atoms: O_2  and  C_3
REMARK    3  A    between atoms: C_7  and  N_8
REMARK    4  A    between atoms: N_8  and  C_9
REMARK    5  A    between atoms: C_9  and  C_10
REMARK    6  A    between atoms: C_14  and  C_15
REMARK                            x       y       z     vdW  Elec       q    Type
REMARK                         _______ _______ _______ _____ _____    ______ ____
ROOT
ATOM      1  C   UNL     1      44.313   5.125  12.113  0.00  0.00    +0.000 A 
ATOM      2  C   UNL     1      43.428   4.164  12.578  0.00  0.00    +0.000 A 
ATOM      3  N   UNL     1      43.198   2.992  11.954  0.00  0.00    +0.000 NA
ATOM      4  C   UNL     1      43.884   2.767  10.806  0.00  0.00    +0.000 A 
ATOM      5  C   UNL     1      44.794   3.652  10.221  0.00  0.00    +0.000 A 
ATOM      6  C   UNL     1      44.988   4.859  10.913  0.00  0.00    +0.000 A 
ENDROOT
BRANCH   5   7
ATOM      7  C   UNL     1      45.499   3.349   8.961  0.00  0.00    +0.000 A 
ATOM      8  C   UNL     1      45.819   2.036   8.579  0.00  0.00    +0.000 A 
ATOM      9  C   UNL     1      46.499   1.784   7.387  0.00  0.00    +0.000 A 
ATOM     10  C   UNL     1      46.840   2.858   6.586  0.00  0.00    +0.000 A 
ATOM     11  N   UNL     1      46.553   4.137   6.897  0.00  0.00    +0.000 NA
ATOM     12  C   UNL     1      45.899   4.347   8.068  0.00  0.00    +0.000 A 
ENDBRANCH   5   7
BRANCH   1  13
ATOM     13  C   UNL     1      44.503   6.424  12.846  0.00  0.00    +0.000 C 
BRANCH  13  14
ATOM     14  N   UNL     1      45.660   7.116  12.294  0.00  0.00    +0.000 N 
ATOM     15  H   UNL     1      46.092   6.600  11.533  0.00  0.00    +0.000 HD
BRANCH  14  20
ATOM     16  C   UNL     1      44.071  10.015  10.871  0.00  0.00    +0.000 A 
ATOM     17  C   UNL     1      44.944  11.022  11.252  0.00  0.00    +0.000 A 
ATOM     18  N   UNL     1      46.068  10.772  11.962  0.00  0.00    +0.000 NA
ATOM     19  C   UNL     1      46.260   9.468  12.277  0.00  0.00    +0.000 A 
ATOM     20  C   UNL     1      45.396   8.434  11.888  0.00  0.00    +0.000 A 
ATOM     21  N   UNL     1      44.282   8.714  11.181  0.00  0.00    +0.000 NA
BRANCH  16  23
ATOM     22  C   UNL     1      41.736  10.042  10.833  0.00  0.00    +0.000 C 
ATOM     23  O   UNL     1      42.946  10.377  10.159  0.00  0.00    +0.000 OA
ENDBRANCH  16  23
ENDBRANCH  14  20
ENDBRANCH  13  14
ENDBRANCH   1  13
TORSDOF 5
ENDMDL
MODEL 9
REMARK VINA RESULT:    -6.325      3.676      6.040
REMARK INTER + INTRA:          -8.833
REMARK INTER:                  -8.329
REMARK INTRA:                  -0.504
REMARK UNBOUND:                -0.660
REMARK  Name = 
REMARK  6 active torsions:
REMARK  status: ('A' for Active; 'I' for Inactive)
REMARK    1  A    between atoms: C_1  and  O_2
REMARK    2  A    between atoms: O_2  and  C_3
REMARK    3  A    between atoms: C_7  and  N_8
REMARK    4  A    between atoms: N_8  and  C_9
REMARK    5  A    between atoms: C_9  and  C_10
REMARK    6  A    between atoms: C_14  and  C_15
REMARK                            x       y       z     vdW  Elec       q    Type
REMARK                         _______ _______ _______ _____ _____    ______ ____
ROOT
ATOM      1  C   UNL     1      45.879   4.731  12.951  0.00  0.00    +0.000 A 
ATOM      2  C   UNL     1      44.853   4.054  12.307  0.00  0.00    +0.000 A 
ATOM      3  N   UNL     1      43.949   4.649  11.505  0.00  0.00    +0.000 NA
ATOM      4  C   UNL     1      44.071   5.990  11.338  0.00  0.00    +0.000 A 
ATOM      5  C   UNL     1      45.046   6.793  11.935  0.00  0.00    +0.000 A 
ATOM      6  C   UNL     1      45.957   6.118  12.764  0.00  0.00    +0.000 A 
ENDROOT
BRANCH   5   7
ATOM      7  C   UNL     1      45.115   8.251  11.718  0.00  0.00    +0.000 A 
ATOM      8  C   UNL     1      46.196   9.026  12.167  0.00  0.00    +0.000 A 
ATOM      9  C   UNL     1      46.224  10.405  11.957  0.00  0.00    +0.000 A 
ATOM     10  C   UNL     1      45.165  10.988  11.287  0.00  0.00    +0.000 A 
ATOM     11  N   UNL     1      44.105  10.295  10.827  0.00  0.00    +0.000 NA
ATOM     12  C   UNL     1      44.106   8.958  11.056  0.00  0.00    +0.000 A 
ENDBRANCH   5   7
BRANCH   1  13
ATOM     13  C   UNL     1      46.840   4.008  13.853  0.00  0.00    +0.000 C 
BRANCH  13  14
ATOM     14  N   UNL     1      46.540   4.348  15.237  0.00  0.00    +0.000 N 
ATOM     15  H   UNL     1      45.590   4.101  15.498  0.00  0.00    +0.000 HD
BRANCH  14  20
ATOM     16  C   UNL     1      49.237   2.473  16.710  0.00  0.00    +0.000 A 
ATOM     17  C   UNL     1      49.200   2.922  18.020  0.00  0.00    +0.000 A 
ATOM     18  N   UNL     1      48.290   3.827  18.448  0.00  0.00    +0.000 NA
ATOM     19  C   UNL     1      47.434   4.262  17.492  0.00  0.00    +0.000 A 
ATOM     20  C   UNL     1      47.446   3.809  16.166  0.00  0.00    +0.000 A 
ATOM     21  N   UNL     1      48.367   2.907  15.768  0.00  0.00    +0.000 NA
BRANCH  16  23
ATOM     22  C   UNL     1      51.272   1.506  17.324  0.00  0.00    +0.000 C 
ATOM     23  O   UNL     1      50.213   1.558  16.372  0.00  0.00    +0.000 OA
ENDBRANCH  16  23
ENDBRANCH  14  20
ENDBRANCH  13  14
ENDBRANCH   1  13
TORSDOF 5
ENDMDL
