MODEL 1
REMARK VINA RESULT:    -6.657      0.000      0.000
REMARK INTER + INTRA:          -9.156
REMARK INTER:                  -8.602
REMARK INTRA:                  -0.554
REMARK UNBOUND:                -0.554
REMARK  Name = 
REMARK  7 active torsions:
REMARK  status: ('A' for Active; 'I' for Inactive)
REMARK    1  A    between atoms: C_1  and  N_2
REMARK    2  A    between atoms: N_2  and  C_3
REMARK    3  A    between atoms: N_2  and  C_4
REMARK    4  A    between atoms: C_4  and  C_5
REMARK    5  A    between atoms: C_5  and  C_6
REMARK    6  A    between atoms: N_8  and  C_9
REMARK    7  A    between atoms: C_9  and  C_10
REMARK                            x       y       z     vdW  Elec       q    Type
REMARK                         _______ _______ _______ _____ _____    ______ ____
ROOT
ATOM      1  C   UNL     1      46.385   5.793  13.092  0.00  0.00    +0.000 A 
ATOM      2  C   UNL     1      45.721   4.837  12.348  0.00  0.00    +0.000 A 
ATOM      3  N   UNL     1      44.816   5.468  11.528  0.00  0.00    +0.000 N 
ATOM      4  C   UNL     1      44.920   6.836  11.680  0.00  0.00    +0.000 A 
ATOM      5  C   UNL     1      44.220   7.889  11.068  0.00  0.00    +0.000 A 
ATOM      6  C   UNL     1      44.536   9.199  11.441  0.00  0.00    +0.000 A 
ATOM      7  C   UNL     1      45.521   9.455  12.388  0.00  0.00    +0.000 A 
ATOM      8  C   UNL     1      46.211   8.401  12.995  0.00  0.00    +0.000 A 
ATOM      9  C   UNL     1      45.906   7.067  12.646  0.00  0.00    +0.000 A 
ENDROOT
BRANCH   1  10
ATOM     10  C   UNL     1      47.378   5.546  14.187  0.00  0.00    +0.000 C 
BRANCH  10  11
ATOM     11  C   UNL     1      47.086   4.278  15.006  0.00  0.00    +0.000 C 
BRANCH  11  13
ATOM     12  C   UNL     1      48.432   5.343  16.692  0.00  0.00    +0.000 C 
ATOM     13  N   UNL     1      48.022   4.052  16.131  0.00  0.00    +0.000 NA
ATOM     14  C   UNL     1      47.434   3.222  17.184  0.00  0.00    +0.000 C 
ENDBRANCH  11  13
ENDBRANCH  10  11
ENDBRANCH   1  10
BRANCH   3  15
ATOM     15  C   UNL     1      43.934   4.778  10.600  0.00  0.00    +0.000 C 
BRANCH  15  16
ATOM     16  C   UNL     1      44.700   3.987   9.574  0.00  0.00    +0.000 A 
ATOM     17  N   UNL     1      45.453   4.666   8.682  0.00  0.00    +0.000 NA
ATOM     18  C   UNL     1      46.155   3.930   7.800  0.00  0.00    +0.000 A 
ATOM     19  C   UNL     1      46.159   2.555   7.787  0.00  0.00    +0.000 A 
ATOM     20  C   UNL     1      45.378   1.955   8.744  0.00  0.00    +0.000 A 
ATOM     21  N   UNL     1      44.644   2.640   9.644  0.00  0.00    +0.000 NA
ENDBRANCH  15  16
ENDBRANCH   3  15
TORSDOF 5
ENDMDL
MODEL 2
REMARK VINA RESULT:    -6.462      2.679      4.376
REMARK INTER + INTRA:          -8.904
REMARK INTER:                  -8.337
REMARK INTRA:                  -0.568
REMARK UNBOUND:                -0.554
REMARK  Name = 
REMARK  7 active torsions:
REMARK  status: ('A' for Active; 'I' for Inactive)
REMARK    1  A    between atoms: C_1  and  N_2
REMARK    2  A    between atoms: N_2  and  C_3
REMARK    3  A    between atoms: N_2  and  C_4
REMARK    4  A    between atoms: C_4  and  C_5
REMARK    5  A    between atoms: C_5  and  C_6
REMARK    6  A    between atoms: N_8  and  C_9
REMARK    7  A    between atoms: C_9  and  C_10
REMARK                            x       y       z     vdW  Elec       q    Type
REMARK                         _______ _______ _______ _____ _____    ______ ____
ROOT
ATOM      1  C   UNL     1      45.983   5.918  11.007  0.00  0.00    +0.000 A 
ATOM      2  C   UNL     1      45.900   5.654   9.654  0.00  0.00    +0.000 A 
ATOM      3  N   UNL     1      45.079   4.567   9.467  0.00  0.00    +0.000 N 
ATOM      4  C   UNL     1      44.570   4.151  10.681  0.00  0.00    +0.000 A 
ATOM      5  C   UNL     1      43.698   3.097  11.004  0.00  0.00    +0.000 A 
ATOM      6  C   UNL     1      43.366   2.902  12.347  0.00  0.00    +0.000 A 
ATOM      7  C   UNL     1      43.880   3.729  13.339  0.00  0.00    +0.000 A 
ATOM      8  C   UNL     1      44.750   4.773  13.010  0.00  0.00    +0.000 A 
ATOM      9  C   UNL     1      45.111   4.988  11.662  0.00  0.00    +0.000 A 
ENDROOT
BRANCH   1  10
ATOM     10  C   UNL     1      46.852   6.945  11.668  0.00  0.00    +0.000 C 
BRANCH  10  11
ATOM     11  C   UNL     1      46.063   8.112  12.282  0.00  0.00    +0.000 C 
BRANCH  11  13
ATOM     12  C   UNL     1      48.233   9.119  12.027  0.00  0.00    +0.000 C 
ATOM     13  N   UNL     1      46.863   9.338  12.502  0.00  0.00    +0.000 NA
ATOM     14  C   UNL     1      46.290  10.504  11.829  0.00  0.00    +0.000 C 
ENDBRANCH  11  13
ENDBRANCH  10  11
ENDBRANCH   1  10
BRANCH   3  15
ATOM     15  C   UNL     1      44.758   3.998   8.168  0.00  0.00    +0.000 C 
BRANCH  15  16
ATOM     16  C   UNL     1      45.826   3.053   7.685  0.00  0.00    +0.000 A 
ATOM     17  N   UNL     1      45.885   1.824   8.241  0.00  0.00    +0.000 NA
ATOM     18  C   UNL     1      46.826   0.989   7.763  0.00  0.00    +0.000 A 
ATOM     19  C   UNL     1      47.688   1.316   6.742  0.00  0.00    +0.000 A 
ATOM     20  C   UNL     1      47.538   2.580   6.228  0.00  0.00    +0.000 A 
ATOM     21  N   UNL     1      46.623   3.463   6.675  0.00  0.00    +0.000 NA
ENDBRANCH  15  16
ENDBRANCH   3  15
TORSDOF 5
ENDMDL
MODEL 3
REMARK VINA RESULT:    -6.317      1.766      4.606
REMARK INTER + INTRA:          -8.718
REMARK INTER:                  -8.174
REMARK INTRA:                  -0.544
REMARK UNBOUND:                -0.554
REMARK  Name = 
REMARK  7 active torsions:
REMARK  status: ('A' for Active; 'I' for Inactive)
REMARK    1  A    between atoms: C_1  and  N_2
REMARK    2  A    between atoms: N_2  and  C_3
REMARK    3  A    between atoms: N_2  and  C_4
REMARK    4  A    between atoms: C_4  and  C_5
REMARK    5  A    between atoms: C_5  and  C_6
REMARK    6  A    between atoms: N_8  and  C_9
REMARK    7  A    between atoms: C_9  and  C_10
REMARK                            x       y       z     vdW  Elec       q    Type
REMARK                         _______ _______ _______ _____ _____    ______ ____
ROOT
ATOM      1  C   UNL     1      45.708   7.024  12.007  0.00  0.00    +0.000 A 
ATOM      2  C   UNL     1      44.920   6.579  10.964  0.00  0.00    +0.000 A 
ATOM      3  N   UNL     1      44.888   5.205  10.992  0.00  0.00    +0.000 N 
ATOM      4  C   UNL     1      45.598   4.742  12.081  0.00  0.00    +0.000 A 
ATOM      5  C   UNL     1      45.850   3.435  12.531  0.00  0.00    +0.000 A 
ATOM      6  C   UNL     1      46.632   3.269  13.678  0.00  0.00    +0.000 A 
ATOM      7  C   UNL     1      47.144   4.367  14.360  0.00  0.00    +0.000 A 
ATOM      8  C   UNL     1      46.891   5.665  13.904  0.00  0.00    +0.000 A 
ATOM      9  C   UNL     1      46.112   5.862  12.742  0.00  0.00    +0.000 A 
ENDROOT
BRANCH   1  10
ATOM     10  C   UNL     1      46.105   8.442  12.289  0.00  0.00    +0.000 C 
BRANCH  10  11
ATOM     11  C   UNL     1      44.908   9.381  12.507  0.00  0.00    +0.000 C 
BRANCH  11  13
ATOM     12  C   UNL     1      46.460  10.970  11.581  0.00  0.00    +0.000 C 
ATOM     13  N   UNL     1      45.044  10.700  11.850  0.00  0.00    +0.000 NA
ATOM     14  C   UNL     1      44.283  10.780  10.602  0.00  0.00    +0.000 C 
ENDBRANCH  11  13
ENDBRANCH  10  11
ENDBRANCH   1  10
BRANCH   3  15
ATOM     15  C   UNL     1      44.155   4.384  10.041  0.00  0.00    +0.000 C 
BRANCH  15  16
ATOM     16  C   UNL     1      45.073   3.662   9.092  0.00  0.00    +0.000 A 
ATOM     17  N   UNL     1      45.207   2.325   9.231  0.00  0.00    +0.000 NA
ATOM     18  C   UNL     1      46.005   1.702   8.344  0.00  0.00    +0.000 A 
ATOM     19  C   UNL     1      46.651   2.347   7.315  0.00  0.00    +0.000 A 
ATOM     20  C   UNL     1      46.438   3.702   7.244  0.00  0.00    +0.000 A 
ATOM     21  N   UNL     1      45.660   4.380   8.110  0.00  0.00    +0.000 NA
ENDBRANCH  15  16
ENDBRANCH   3  15
TORSDOF 5
ENDMDL
MODEL 4
REMARK VINA RESULT:    -6.168      1.822      3.741
REMARK INTER + INTRA:          -8.525
REMARK INTER:                  -7.810
REMARK INTRA:                  -0.715
REMARK UNBOUND:                -0.554
REMARK  Name = 
REMARK  7 active torsions:
REMARK  status: ('A' for Active; 'I' for Inactive)
REMARK    1  A    between atoms: C_1  and  N_2
REMARK    2  A    between atoms: N_2  and  C_3
REMARK    3  A    between atoms: N_2  and  C_4
REMARK    4  A    between atoms: C_4  and  C_5
REMARK    5  A    between atoms: C_5  and  C_6
REMARK    6  A    between atoms: N_8  and  C_9
REMARK    7  A    between atoms: C_9  and  C_10
REMARK                            x       y       z     vdW  Elec       q    Type
REMARK                         _______ _______ _______ _____ _____    ______ ____
ROOT
ATOM      1  C   UNL     1      46.077   7.024  11.930  0.00  0.00    +0.000 A 
ATOM      2  C   UNL     1      45.287   6.632  10.868  0.00  0.00    +0.000 A 
ATOM      3  N   UNL     1      45.115   5.270  10.927  0.00  0.00    +0.000 N 
ATOM      4  C   UNL     1      45.734   4.768  12.054  0.00  0.00    +0.000 A 
ATOM      5  C   UNL     1      45.836   3.455  12.544  0.00  0.00    +0.000 A 
ATOM      6  C   UNL     1      46.555   3.243  13.724  0.00  0.00    +0.000 A 
ATOM      7  C   UNL     1      47.149   4.303  14.400  0.00  0.00    +0.000 A 
ATOM      8  C   UNL     1      47.046   5.606  13.904  0.00  0.00    +0.000 A 
ATOM      9  C   UNL     1      46.335   5.848  12.708  0.00  0.00    +0.000 A 
ENDROOT
BRANCH   1  10
ATOM     10  C   UNL     1      46.604   8.403  12.195  0.00  0.00    +0.000 C 
BRANCH  10  11
ATOM     11  C   UNL     1      48.093   8.567  11.849  0.00  0.00    +0.000 C 
BRANCH  11  13
ATOM     12  C   UNL     1      48.112   9.162  14.180  0.00  0.00    +0.000 C 
ATOM     13  N   UNL     1      48.952   8.903  13.006  0.00  0.00    +0.000 NA
ATOM     14  C   UNL     1      49.912   7.841  13.313  0.00  0.00    +0.000 C 
ENDBRANCH  11  13
ENDBRANCH  10  11
ENDBRANCH   1  10
BRANCH   3  15
ATOM     15  C   UNL     1      44.338   4.501   9.967  0.00  0.00    +0.000 C 
BRANCH  15  16
ATOM     16  C   UNL     1      45.216   3.727   9.020  0.00  0.00    +0.000 A 
ATOM     17  N   UNL     1      45.282   2.387   9.167  0.00  0.00    +0.000 NA
ATOM     18  C   UNL     1      46.045   1.719   8.281  0.00  0.00    +0.000 A 
ATOM     19  C   UNL     1      46.720   2.324   7.247  0.00  0.00    +0.000 A 
ATOM     20  C   UNL     1      46.576   3.687   7.168  0.00  0.00    +0.000 A 
ATOM     21  N   UNL     1      45.835   4.410   8.032  0.00  0.00    +0.000 NA
ENDBRANCH  15  16
ENDBRANCH   3  15
TORSDOF 5
ENDMDL
MODEL 5
REMARK VINA RESULT:    -6.165      1.558      1.999
REMARK INTER + INTRA:          -8.521
REMARK INTER:                  -7.905
REMARK INTRA:                  -0.616
REMARK UNBOUND:                -0.554
REMARK  Name = 
REMARK  7 active torsions:
REMARK  status: ('A' for Active; 'I' for Inactive)
REMARK    1  A    between atoms: C_1  and  N_2
REMARK    2  A    between atoms: N_2  and  C_3
REMARK    3  A    between atoms: N_2  and  C_4
REMARK    4  A    between atoms: C_4  and  C_5
REMARK    5  A    between atoms: C_5  and  C_6
REMARK    6  A    between atoms: N_8  and  C_9
REMARK    7  A    between atoms: C_9  and  C_10
REMARK                            x       y       z     vdW  Elec       q    Type
REMARK                         _______ _______ _______ _____ _____    ______ ____
ROOT
ATOM      1  C   UNL     1      46.529   4.864  14.116  0.00  0.00    +0.000 A 
ATOM      2  C   UNL     1      45.455   4.594  13.292  0.00  0.00    +0.000 A 
ATOM      3  N   UNL     1      45.556   5.376  12.166  0.00  0.00    +0.000 N 
ATOM      4  C   UNL     1      46.721   6.115  12.213  0.00  0.00    +0.000 A 
ATOM      5  C   UNL     1      47.261   7.046  11.309  0.00  0.00    +0.000 A 
ATOM      6  C   UNL     1      48.472   7.661  11.638  0.00  0.00    +0.000 A 
ATOM      7  C   UNL     1      49.130   7.359  12.825  0.00  0.00    +0.000 A 
ATOM      8  C   UNL     1      48.584   6.434  13.720  0.00  0.00    +0.000 A 
ATOM      9  C   UNL     1      47.357   5.804  13.419  0.00  0.00    +0.000 A 
ENDROOT
BRANCH   1  10
ATOM     10  C   UNL     1      46.762   4.318  15.493  0.00  0.00    +0.000 C 
BRANCH  10  11
ATOM     11  C   UNL     1      47.887   3.273  15.556  0.00  0.00    +0.000 C 
BRANCH  11  13
ATOM     12  C   UNL     1      48.433   4.477  17.566  0.00  0.00    +0.000 C 
ATOM     13  N   UNL     1      48.962   3.595  16.521  0.00  0.00    +0.000 NA
ATOM     14  C   UNL     1      49.537   2.396  17.134  0.00  0.00    +0.000 C 
ENDBRANCH  11  13
ENDBRANCH  10  11
ENDBRANCH   1  10
BRANCH   3  15
ATOM     15  C   UNL     1      44.598   5.364  11.072  0.00  0.00    +0.000 C 
BRANCH  15  16
ATOM     16  C   UNL     1      44.988   4.391   9.991  0.00  0.00    +0.000 A 
ATOM     17  N   UNL     1      45.616   4.875   8.898  0.00  0.00    +0.000 NA
ATOM     18  C   UNL     1      45.985   3.976   7.966  0.00  0.00    +0.000 A 
ATOM     19  C   UNL     1      45.778   2.622   8.089  0.00  0.00    +0.000 A 
ATOM     20  C   UNL     1      45.149   2.225   9.243  0.00  0.00    +0.000 A 
ATOM     21  N   UNL     1      44.747   3.079  10.204  0.00  0.00    +0.000 NA
ENDBRANCH  15  16
ENDBRANCH   3  15
TORSDOF 5
ENDMDL
MODEL 6
REMARK VINA RESULT:    -5.654      2.475      6.690
REMARK INTER + INTRA:          -7.860
REMARK INTER:                  -7.349
REMARK INTRA:                  -0.511
REMARK UNBOUND:                -0.554
REMARK  Name = 
REMARK  7 active torsions:
REMARK  status: ('A' for Active; 'I' for Inactive)
REMARK    1  A    between atoms: C_1  and  N_2
REMARK    2  A    between atoms: N_2  and  C_3
REMARK    3  A    between atoms: N_2  and  C_4
REMARK    4  A    between atoms: C_4  and  C_5
REMARK    5  A    between atoms: C_5  and  C_6
REMARK    6  A    between atoms: N_8  and  C_9
REMARK    7  A    between atoms: C_9  and  C_10
REMARK                            x       y       z     vdW  Elec       q    Type
REMARK                         _______ _______ _______ _____ _____    ______ ____
ROOT
ATOM      1  C   UNL     1      46.415   4.697  13.446  0.00  0.00    +0.000 A 
ATOM      2  C   UNL     1      46.541   4.336  14.773  0.00  0.00    +0.000 A 
ATOM      3  N   UNL     1      47.509   5.122  15.353  0.00  0.00    +0.000 N 
ATOM      4  C   UNL     1      47.978   6.040  14.435  0.00  0.00    +0.000 A 
ATOM      5  C   UNL     1      48.954   7.044  14.549  0.00  0.00    +0.000 A 
ATOM      6  C   UNL     1      49.236   7.824  13.425  0.00  0.00    +0.000 A 
ATOM      7  C   UNL     1      48.566   7.617  12.224  0.00  0.00    +0.000 A 
ATOM      8  C   UNL     1      47.598   6.614  12.117  0.00  0.00    +0.000 A 
ATOM      9  C   UNL     1      47.300   5.804  13.235  0.00  0.00    +0.000 A 
ENDROOT
BRANCH   1  10
ATOM     10  C   UNL     1      45.555   4.031  12.414  0.00  0.00    +0.000 C 
BRANCH  10  11
ATOM     11  C   UNL     1      44.060   4.030  12.770  0.00  0.00    +0.000 C 
BRANCH  11  13
ATOM     12  C   UNL     1      42.447   5.529  11.801  0.00  0.00    +0.000 C 
ATOM     13  N   UNL     1      43.161   4.262  11.617  0.00  0.00    +0.000 NA
ATOM     14  C   UNL     1      43.884   4.286  10.344  0.00  0.00    +0.000 C 
ENDBRANCH  11  13
ENDBRANCH  10  11
ENDBRANCH   1  10
BRANCH   3  15
ATOM     15  C   UNL     1      47.916   5.025  16.746  0.00  0.00    +0.000 C 
BRANCH  15  16
ATOM     16  C   UNL     1      49.087   4.097  16.929  0.00  0.00    +0.000 A 
ATOM     17  N   UNL     1      50.264   4.630  17.322  0.00  0.00    +0.000 NA
ATOM     18  C   UNL     1      51.282   3.770  17.513  0.00  0.00    +0.000 A 
ATOM     19  C   UNL     1      51.171   2.408  17.356  0.00  0.00    +0.000 A 
ATOM     20  C   UNL     1      49.930   1.960  16.973  0.00  0.00    +0.000 A 
ATOM     21  N   UNL     1      48.878   2.774  16.755  0.00  0.00    +0.000 NA
ENDBRANCH  15  16
ENDBRANCH   3  15
TORSDOF 5
ENDMDL
MODEL 7
REMARK VINA RESULT:    -5.622      1.400      1.937
REMARK INTER + INTRA:          -7.820
REMARK INTER:                  -7.269
REMARK INTRA:                  -0.551
REMARK UNBOUND:                -0.554
REMARK  Name = 
REMARK  7 active torsions:
REMARK  status: ('A' for Active; 'I' for Inactive)
REMARK    1  A    between atoms: C_1  and  N_2
REMARK    2  A    between atoms: N_2  and  C_3
REMARK    3  A    between atoms: N_2  and  C_4
REMARK    4  A    between atoms: C_4  and  C_5
REMARK    5  A    between atoms: C_5  and  C_6
REMARK    6  A    between atoms: N_8  and  C_9
REMARK    7  A    between atoms: C_9  and  C_10
REMARK                            x       y       z     vdW  Elec       q    Type
REMARK                         _______ _______ _______ _____ _____    ______ ____
ROOT
ATOM      1  C   UNL     1      47.532   6.986  12.991  0.00  0.00    +0.000 A 
ATOM      2  C   UNL     1      46.716   5.885  12.823  0.00  0.00    +0.000 A 
ATOM      3  N   UNL     1      45.524   6.299  12.279  0.00  0.00    +0.000 N 
ATOM      4  C   UNL     1      45.570   7.656  12.029  0.00  0.00    +0.000 A 
ATOM      5  C   UNL     1      44.612   8.528  11.485  0.00  0.00    +0.000 A 
ATOM      6  C   UNL     1      44.940   9.881  11.365  0.00  0.00    +0.000 A 
ATOM      7  C   UNL     1      46.184  10.354  11.769  0.00  0.00    +0.000 A 
ATOM      8  C   UNL     1      47.131   9.480  12.312  0.00  0.00    +0.000 A 
ATOM      9  C   UNL     1      46.823   8.110  12.454  0.00  0.00    +0.000 A 
ENDROOT
BRANCH   1  10
ATOM     10  C   UNL     1      48.879   7.011  13.649  0.00  0.00    +0.000 C 
BRANCH  10  11
ATOM     11  C   UNL     1      48.811   7.044  15.184  0.00  0.00    +0.000 C 
BRANCH  11  13
ATOM     12  C   UNL     1      50.333   6.129  16.807  0.00  0.00    +0.000 C 
ATOM     13  N   UNL     1      49.281   5.803  15.840  0.00  0.00    +0.000 NA
ATOM     14  C   UNL     1      48.197   5.087  16.515  0.00  0.00    +0.000 C 
ENDBRANCH  11  13
ENDBRANCH  10  11
ENDBRANCH   1  10
BRANCH   3  15
ATOM     15  C   UNL     1      44.416   5.412  11.963  0.00  0.00    +0.000 C 
BRANCH  15  16
ATOM     16  C   UNL     1      44.693   4.572  10.746  0.00  0.00    +0.000 A 
ATOM     17  N   UNL     1      44.271   3.290  10.749  0.00  0.00    +0.000 NA
ATOM     18  C   UNL     1      44.501   2.575   9.631  0.00  0.00    +0.000 A 
ATOM     19  C   UNL     1      45.107   3.089   8.509  0.00  0.00    +0.000 A 
ATOM     20  C   UNL     1      45.484   4.406   8.595  0.00  0.00    +0.000 A 
ATOM     21  N   UNL     1      45.291   5.167   9.690  0.00  0.00    +0.000 NA
ENDBRANCH  15  16
ENDBRANCH   3  15
TORSDOF 5
ENDMDL
MODEL 8
REMARK VINA RESULT:    -5.555      2.303      6.565
REMARK INTER + INTRA:          -7.733
REMARK INTER:                  -7.543
REMARK INTRA:                  -0.190
REMARK UNBOUND:                -0.554
REMARK  Name = 
REMARK  7 active torsions:
REMARK  status: ('A' for Active; 'I' for Inactive)
REMARK    1  A    between atoms: C_1  and  N_2
REMARK    2  A    between atoms: N_2  and  C_3
REMARK    3  A    between atoms: N_2  and  C_4
REMARK    4  A    between atoms: C_4  and  C_5
REMARK    5  A    between atoms: C_5  and  C_6
REMARK    6  A    between atoms: N_8  and  C_9
REMARK    7  A    between atoms: C_9  and  C_10
REMARK                            x       y       z     vdW  Elec       q    Type
REMARK                         _______ _______ _______ _____ _____    ______ ____
ROOT
ATOM      1  C   UNL     1      46.350   6.585  12.405  0.00  0.00    +0.000 A 
ATOM      2  C   UNL     1      47.082   5.940  13.382  0.00  0.00    +0.000 A 
ATOM      3  N   UNL     1      46.637   4.643  13.482  0.00  0.00    +0.000 N 
ATOM      4  C   UNL     1      45.660   4.409  12.535  0.00  0.00    +0.000 A 
ATOM      5  C   UNL     1      44.913   3.255  12.245  0.00  0.00    +0.000 A 
ATOM      6  C   UNL     1      43.963   3.322  11.222  0.00  0.00    +0.000 A 
ATOM      7  C   UNL     1      43.765   4.496  10.505  0.00  0.00    +0.000 A 
ATOM      8  C   UNL     1      44.510   5.641  10.802  0.00  0.00    +0.000 A 
ATOM      9  C   UNL     1      45.470   5.606  11.837  0.00  0.00    +0.000 A 
ENDROOT
BRANCH   1  10
ATOM     10  C   UNL     1      46.427   8.036  12.038  0.00  0.00    +0.000 C 
BRANCH  10  11
ATOM     11  C   UNL     1      45.431   8.917  12.810  0.00  0.00    +0.000 C 
BRANCH  11  13
ATOM     12  C   UNL     1      45.979  10.863  11.506  0.00  0.00    +0.000 C 
ATOM     13  N   UNL     1      44.880  10.043  12.023  0.00  0.00    +0.000 NA
ATOM     14  C   UNL     1      44.042   9.587  10.912  0.00  0.00    +0.000 C 
ENDBRANCH  11  13
ENDBRANCH  10  11
ENDBRANCH   1  10
BRANCH   3  15
ATOM     15  C   UNL     1      47.176   3.663  14.412  0.00  0.00    +0.000 C 
BRANCH  15  16
ATOM     16  C   UNL     1      47.508   4.273  15.747  0.00  0.00    +0.000 A 
ATOM     17  N   UNL     1      46.727   3.956  16.802  0.00  0.00    +0.000 NA
ATOM     18  C   UNL     1      47.071   4.488  17.990  0.00  0.00    +0.000 A 
ATOM     19  C   UNL     1      48.169   5.296  18.175  0.00  0.00    +0.000 A 
ATOM     20  C   UNL     1      48.912   5.545  17.047  0.00  0.00    +0.000 A 
ATOM     21  N   UNL     1      48.609   5.051  15.830  0.00  0.00    +0.000 NA
ENDBRANCH  15  16
ENDBRANCH   3  15
TORSDOF 5
ENDMDL
MODEL 9
REMARK VINA RESULT:    -5.342      1.787      6.200
REMARK INTER + INTRA:          -7.458
REMARK INTER:                  -6.762
REMARK INTRA:                  -0.695
REMARK UNBOUND:                -0.554
REMARK  Name = 
REMARK  7 active torsions:
REMARK  status: ('A' for Active; 'I' for Inactive)
REMARK    1  A    between atoms: C_1  and  N_2
REMARK    2  A    between atoms: N_2  and  C_3
REMARK    3  A    between atoms: N_2  and  C_4
REMARK    4  A    between atoms: C_4  and  C_5
REMARK    5  A    between atoms: C_5  and  C_6
REMARK    6  A    between atoms: N_8  and  C_9
REMARK    7  A    between atoms: C_9  and  C_10
REMARK                            x       y       z     vdW  Elec       q    Type
REMARK                         _______ _______ _______ _____ _____    ______ ____
ROOT
ATOM      1  C   UNL     1      44.980   6.272  12.622  0.00  0.00    +0.000 A 
ATOM      2  C   UNL     1      46.152   5.765  13.148  0.00  0.00    +0.000 A 
ATOM      3  N   UNL     1      47.122   6.736  13.078  0.00  0.00    +0.000 N 
ATOM      4  C   UNL     1      46.583   7.900  12.568  0.00  0.00    +0.000 A 
ATOM      5  C   UNL     1      47.166   9.153  12.311  0.00  0.00    +0.000 A 
ATOM      6  C   UNL     1      46.362  10.157  11.765  0.00  0.00    +0.000 A 
ATOM      7  C   UNL     1      45.019   9.928  11.488  0.00  0.00    +0.000 A 
ATOM      8  C   UNL     1      44.447   8.677  11.744  0.00  0.00    +0.000 A 
ATOM      9  C   UNL     1      45.238   7.640  12.286  0.00  0.00    +0.000 A 
ENDROOT
BRANCH   1  10
ATOM     10  C   UNL     1      43.699   5.524  12.403  0.00  0.00    +0.000 C 
BRANCH  10  11
ATOM     11  C   UNL     1      43.473   5.112  10.939  0.00  0.00    +0.000 C 
BRANCH  11  13
ATOM     12  C   UNL     1      44.721   3.284   9.996  0.00  0.00    +0.000 C 
ATOM     13  N   UNL     1      43.493   3.650  10.709  0.00  0.00    +0.000 NA
ATOM     14  C   UNL     1      43.405   2.889  11.957  0.00  0.00    +0.000 C 
ENDBRANCH  11  13
ENDBRANCH  10  11
ENDBRANCH   1  10
BRANCH   3  15
ATOM     15  C   UNL     1      48.490   6.560  13.538  0.00  0.00    +0.000 C 
BRANCH  15  16
ATOM     16  C   UNL     1      48.604   6.685  15.034  0.00  0.00    +0.000 A 
ATOM     17  N   UNL     1      48.660   5.550  15.763  0.00  0.00    +0.000 NA
ATOM     18  C   UNL     1      48.799   5.694  17.095  0.00  0.00    +0.000 A 
ATOM     19  C   UNL     1      48.909   6.913  17.723  0.00  0.00    +0.000 A 
ATOM     20  C   UNL     1      48.860   8.007  16.895  0.00  0.00    +0.000 A 
ATOM     21  N   UNL     1      48.711   7.925  15.558  0.00  0.00    +0.000 NA
ENDBRANCH  15  16
ENDBRANCH   3  15
TORSDOF 5
ENDMDL
