MODEL 1
REMARK VINA RESULT:    -8.012      0.000      0.000
REMARK INTER + INTRA:         -12.104
REMARK INTER:                 -11.057
REMARK INTRA:                  -1.047
REMARK UNBOUND:                -1.047
REMARK  Name = 
REMARK  8 active torsions:
REMARK  status: ('A' for Active; 'I' for Inactive)
REMARK    1  A    between atoms: C_1  and  C_2
REMARK    2  A    between atoms: C_2  and  C_3
REMARK    3  A    between atoms: C_7  and  C_8
REMARK    4  A    between atoms: C_8  and  C_9
REMARK    5  A    between atoms: C_9  and  N_10
REMARK    6  A    between atoms: N_10  and  C_11
REMARK    7  A    between atoms: C_14  and  C_15
REMARK    8  A    between atoms: C_23  and  O_24
REMARK                            x       y       z     vdW  Elec       q    Type
REMARK                         _______ _______ _______ _____ _____    ______ ____
ROOT
ATOM      1  C   UNL     1      47.024   6.406  13.012  0.00  0.00    +0.000 A 
ATOM      2  C   UNL     1      47.541   5.224  13.565  0.00  0.00    +0.000 A 
ATOM      3  C   UNL     1      46.745   4.078  13.694  0.00  0.00    +0.000 A 
ATOM      4  C   UNL     1      45.411   4.089  13.283  0.00  0.00    +0.000 A 
ATOM      5  C   UNL     1      44.859   5.241  12.721  0.00  0.00    +0.000 A 
ATOM      6  C   UNL     1      45.692   6.368  12.578  0.00  0.00    +0.000 A 
ENDROOT
BRANCH   1   8
ATOM      7  C   UNL     1      46.829   8.880  13.053  0.00  0.00    +0.000 C 
ATOM      8  C   UNL     1      47.848   7.717  12.972  0.00  0.00    +0.000 C 
ATOM      9  C   UNL     1      48.834   7.762  14.169  0.00  0.00    +0.000 C 
ATOM     10  C   UNL     1      49.784   8.967  14.150  0.00  0.00    +0.000 C 
ATOM     11  C   UNL     1      50.542   9.120  12.833  0.00  0.00    +0.000 C 
ATOM     12  C   UNL     1      49.609   9.087  11.630  0.00  0.00    +0.000 C 
ATOM     13  C   UNL     1      48.676   7.877  11.657  0.00  0.00    +0.000 C 
BRANCH  11  14
ATOM     14  O   UNL     1      51.530   8.098  12.709  0.00  0.00    +0.000 OA
ATOM     15  H   UNL     1      51.151   7.254  13.003  0.00  0.00    +0.000 HD
ENDBRANCH  11  14
ENDBRANCH   1   8
BRANCH   5  16
ATOM     16  C   UNL     1      43.386   5.271  12.331  0.00  0.00    +0.000 C 
BRANCH  16  17
ATOM     17  C   UNL     1      43.082   4.435  11.082  0.00  0.00    +0.000 C 
BRANCH  17  18
ATOM     18  N   UNL     1      43.737   4.905   9.859  0.00  0.00    +0.000 N 
ATOM     19  H   UNL     1      44.227   5.790  10.004  0.00  0.00    +0.000 HD
BRANCH  18  20
ATOM     20  C   UNL     1      44.589   3.943   9.276  0.00  0.00    +0.000 A 
ATOM     21  C   UNL     1      44.487   2.569   9.473  0.00  0.00    +0.000 A 
ATOM     22  N   UNL     1      45.273   1.635   8.897  0.00  0.00    +0.000 NA
ATOM     23  C   UNL     1      46.191   2.114   8.031  0.00  0.00    +0.000 A 
ATOM     24  N   UNL     1      46.367   3.410   7.707  0.00  0.00    +0.000 NA
ATOM     25  C   UNL     1      45.542   4.284   8.327  0.00  0.00    +0.000 A 
BRANCH  23  26
ATOM     26  C   UNL     1      47.087   1.080   7.391  0.00  0.00    +0.000 C 
ATOM     27  N   UNL     1      46.787  -0.230   7.692  0.00  0.00    +0.000 N 
ATOM     28  O   UNL     1      48.021   1.349   6.648  0.00  0.00    +0.000 OA
ATOM     29  H   UNL     1      46.004  -0.442   8.300  0.00  0.00    +0.000 HD
ATOM     30  H   UNL     1      47.342  -0.968   7.285  0.00  0.00    +0.000 HD
ENDBRANCH  23  26
ENDBRANCH  18  20
ENDBRANCH  17  18
ENDBRANCH  16  17
ENDBRANCH   5  16
TORSDOF 7
ENDMDL
MODEL 2
REMARK VINA RESULT:    -7.846      1.199      1.864
REMARK INTER + INTRA:         -11.875
REMARK INTER:                 -10.883
REMARK INTRA:                  -0.992
REMARK UNBOUND:                -1.047
REMARK  Name = 
REMARK  8 active torsions:
REMARK  status: ('A' for Active; 'I' for Inactive)
REMARK    1  A    between atoms: C_1  and  C_2
REMARK    2  A    between atoms: C_2  and  C_3
REMARK    3  A    between atoms: C_7  and  C_8
REMARK    4  A    between atoms: C_8  and  C_9
REMARK    5  A    between atoms: C_9  and  N_10
REMARK    6  A    between atoms: N_10  and  C_11
REMARK    7  A    between atoms: C_14  and  C_15
REMARK    8  A    between atoms: C_23  and  O_24
REMARK                            x       y       z     vdW  Elec       q    Type
REMARK                         _______ _______ _______ _____ _____    ______ ____
ROOT
ATOM      1  C   UNL     1      47.398   6.730  12.840  0.00  0.00    +0.000 A 
ATOM      2  C   UNL     1      47.793   5.665  13.663  0.00  0.00    +0.000 A 
ATOM      3  C   UNL     1      46.906   4.626  13.975  0.00  0.00    +0.000 A 
ATOM      4  C   UNL     1      45.600   4.633  13.482  0.00  0.00    +0.000 A 
ATOM      5  C   UNL     1      45.169   5.671  12.654  0.00  0.00    +0.000 A 
ATOM      6  C   UNL     1      46.092   6.685  12.334  0.00  0.00    +0.000 A 
ENDROOT
BRANCH   1   8
ATOM      7  C   UNL     1      49.299   7.526  11.456  0.00  0.00    +0.000 C 
ATOM      8  C   UNL     1      48.321   7.947  12.581  0.00  0.00    +0.000 C 
ATOM      9  C   UNL     1      47.476   9.173  12.147  0.00  0.00    +0.000 C 
ATOM     10  C   UNL     1      48.289  10.465  11.985  0.00  0.00    +0.000 C 
ATOM     11  C   UNL     1      49.131  10.810  13.212  0.00  0.00    +0.000 C 
ATOM     12  C   UNL     1      49.982   9.632  13.669  0.00  0.00    +0.000 C 
ATOM     13  C   UNL     1      49.159   8.355  13.835  0.00  0.00    +0.000 C 
BRANCH  11  14
ATOM     14  O   UNL     1      48.293  11.245  14.281  0.00  0.00    +0.000 OA
ATOM     15  H   UNL     1      47.363  11.135  14.021  0.00  0.00    +0.000 HD
ENDBRANCH  11  14
ENDBRANCH   1   8
BRANCH   5  16
ATOM     16  C   UNL     1      43.725   5.710  12.168  0.00  0.00    +0.000 C 
BRANCH  16  17
ATOM     17  C   UNL     1      43.411   4.618  11.139  0.00  0.00    +0.000 C 
BRANCH  17  18
ATOM     18  N   UNL     1      43.772   4.956   9.760  0.00  0.00    +0.000 N 
ATOM     19  H   UNL     1      44.197   5.882   9.693  0.00  0.00    +0.000 HD
BRANCH  18  20
ATOM     20  C   UNL     1      44.579   3.981   9.137  0.00  0.00    +0.000 A 
ATOM     21  C   UNL     1      45.609   4.257   8.242  0.00  0.00    +0.000 A 
ATOM     22  N   UNL     1      46.410   3.339   7.663  0.00  0.00    +0.000 NA
ATOM     23  C   UNL     1      46.190   2.063   8.046  0.00  0.00    +0.000 A 
ATOM     24  N   UNL     1      45.266   1.658   8.939  0.00  0.00    +0.000 NA
ATOM     25  C   UNL     1      44.502   2.638   9.473  0.00  0.00    +0.000 A 
BRANCH  23  26
ATOM     26  C   UNL     1      47.071   1.023   7.394  0.00  0.00    +0.000 C 
ATOM     27  N   UNL     1      46.732  -0.286   7.656  0.00  0.00    +0.000 N 
ATOM     28  O   UNL     1      48.024   1.288   6.674  0.00  0.00    +0.000 OA
ATOM     29  H   UNL     1      45.933  -0.494   8.244  0.00  0.00    +0.000 HD
ATOM     30  H   UNL     1      47.276  -1.028   7.240  0.00  0.00    +0.000 HD
ENDBRANCH  23  26
ENDBRANCH  18  20
ENDBRANCH  17  18
ENDBRANCH  16  17
ENDBRANCH   5  16
TORSDOF 7
ENDMDL
MODEL 3
REMARK VINA RESULT:    -7.457      1.345      2.390
REMARK INTER + INTRA:         -11.338
REMARK INTER:                 -10.596
REMARK INTRA:                  -0.741
REMARK UNBOUND:                -1.047
REMARK  Name = 
REMARK  8 active torsions:
REMARK  status: ('A' for Active; 'I' for Inactive)
REMARK    1  A    between atoms: C_1  and  C_2
REMARK    2  A    between atoms: C_2  and  C_3
REMARK    3  A    between atoms: C_7  and  C_8
REMARK    4  A    between atoms: C_8  and  C_9
REMARK    5  A    between atoms: C_9  and  N_10
REMARK    6  A    between atoms: N_10  and  C_11
REMARK    7  A    between atoms: C_14  and  C_15
REMARK    8  A    between atoms: C_23  and  O_24
REMARK                            x       y       z     vdW  Elec       q    Type
REMARK                         _______ _______ _______ _____ _____    ______ ____
ROOT
ATOM      1  C   UNL     1      47.504   8.562  12.138  0.00  0.00    +0.000 A 
ATOM      2  C   UNL     1      46.423   9.457  12.121  0.00  0.00    +0.000 A 
ATOM      3  C   UNL     1      45.107   8.997  11.982  0.00  0.00    +0.000 A 
ATOM      4  C   UNL     1      44.840   7.634  11.845  0.00  0.00    +0.000 A 
ATOM      5  C   UNL     1      45.886   6.709  11.864  0.00  0.00    +0.000 A 
ATOM      6  C   UNL     1      47.195   7.199  12.035  0.00  0.00    +0.000 A 
ENDROOT
BRANCH   1   8
ATOM      7  C   UNL     1      49.044  10.281  11.225  0.00  0.00    +0.000 C 
ATOM      8  C   UNL     1      48.972   9.056  12.169  0.00  0.00    +0.000 C 
ATOM      9  C   UNL     1      49.370   9.450  13.616  0.00  0.00    +0.000 C 
ATOM     10  C   UNL     1      50.847   9.837  13.773  0.00  0.00    +0.000 C 
ATOM     11  C   UNL     1      51.811   8.786  13.226  0.00  0.00    +0.000 C 
ATOM     12  C   UNL     1      51.458   8.375  11.802  0.00  0.00    +0.000 C 
ATOM     13  C   UNL     1      49.988   7.983  11.662  0.00  0.00    +0.000 C 
BRANCH  11  14
ATOM     14  O   UNL     1      51.824   7.638  14.073  0.00  0.00    +0.000 OA
ATOM     15  H   UNL     1      52.636   7.646  14.606  0.00  0.00    +0.000 HD
ENDBRANCH  11  14
ENDBRANCH   1   8
BRANCH   5  16
ATOM     16  C   UNL     1      45.599   5.228  11.651  0.00  0.00    +0.000 C 
BRANCH  16  17
ATOM     17  C   UNL     1      44.125   4.944  11.338  0.00  0.00    +0.000 C 
BRANCH  17  18
ATOM     18  N   UNL     1      43.807   4.875   9.910  0.00  0.00    +0.000 N 
ATOM     19  H   UNL     1      43.776   5.801   9.480  0.00  0.00    +0.000 HD
BRANCH  18  20
ATOM     20  C   UNL     1      44.657   4.009   9.188  0.00  0.00    +0.000 A 
ATOM     21  C   UNL     1      45.652   4.425   8.309  0.00  0.00    +0.000 A 
ATOM     22  N   UNL     1      46.494   3.612   7.637  0.00  0.00    +0.000 NA
ATOM     23  C   UNL     1      46.352   2.296   7.903  0.00  0.00    +0.000 A 
ATOM     24  N   UNL     1      45.469   1.758   8.767  0.00  0.00    +0.000 NA
ATOM     25  C   UNL     1      44.661   2.638   9.399  0.00  0.00    +0.000 A 
BRANCH  23  26
ATOM     26  C   UNL     1      47.278   1.372   7.146  0.00  0.00    +0.000 C 
ATOM     27  N   UNL     1      48.367   1.979   6.559  0.00  0.00    +0.000 N 
ATOM     28  O   UNL     1      47.108   0.165   7.043  0.00  0.00    +0.000 OA
ATOM     29  H   UNL     1      48.505   2.978   6.660  0.00  0.00    +0.000 HD
ATOM     30  H   UNL     1      49.030   1.413   6.049  0.00  0.00    +0.000 HD
ENDBRANCH  23  26
ENDBRANCH  18  20
ENDBRANCH  17  18
ENDBRANCH  16  17
ENDBRANCH   5  16
TORSDOF 7
ENDMDL
MODEL 4
REMARK VINA RESULT:    -7.398      3.050      4.228
REMARK INTER + INTRA:         -11.256
REMARK INTER:                 -10.456
REMARK INTRA:                  -0.801
REMARK UNBOUND:                -1.047
REMARK  Name = 
REMARK  8 active torsions:
REMARK  status: ('A' for Active; 'I' for Inactive)
REMARK    1  A    between atoms: C_1  and  C_2
REMARK    2  A    between atoms: C_2  and  C_3
REMARK    3  A    between atoms: C_7  and  C_8
REMARK    4  A    between atoms: C_8  and  C_9
REMARK    5  A    between atoms: C_9  and  N_10
REMARK    6  A    between atoms: N_10  and  C_11
REMARK    7  A    between atoms: C_14  and  C_15
REMARK    8  A    between atoms: C_23  and  O_24
REMARK                            x       y       z     vdW  Elec       q    Type
REMARK                         _______ _______ _______ _____ _____    ______ ____
ROOT
ATOM      1  C   UNL     1      47.741   5.137  15.499  0.00  0.00    +0.000 A 
ATOM      2  C   UNL     1      48.285   6.278  14.889  0.00  0.00    +0.000 A 
ATOM      3  C   UNL     1      47.908   6.654  13.593  0.00  0.00    +0.000 A 
ATOM      4  C   UNL     1      46.987   5.893  12.871  0.00  0.00    +0.000 A 
ATOM      5  C   UNL     1      46.416   4.755  13.443  0.00  0.00    +0.000 A 
ATOM      6  C   UNL     1      46.793   4.419  14.758  0.00  0.00    +0.000 A 
ENDROOT
BRANCH   1   8
ATOM      7  C   UNL     1      47.907   3.125  16.942  0.00  0.00    +0.000 C 
ATOM      8  C   UNL     1      48.232   4.638  16.880  0.00  0.00    +0.000 C 
ATOM      9  C   UNL     1      49.758   4.880  17.021  0.00  0.00    +0.000 C 
ATOM     10  C   UNL     1      50.320   4.530  18.406  0.00  0.00    +0.000 C 
ATOM     11  C   UNL     1      49.568   5.203  19.553  0.00  0.00    +0.000 C 
ATOM     12  C   UNL     1      48.064   4.985  19.455  0.00  0.00    +0.000 C 
ATOM     13  C   UNL     1      47.517   5.346  18.075  0.00  0.00    +0.000 C 
BRANCH  11  14
ATOM     14  O   UNL     1      49.855   6.601  19.579  0.00  0.00    +0.000 OA
ATOM     15  H   UNL     1      50.779   6.731  19.846  0.00  0.00    +0.000 HD
ENDBRANCH  11  14
ENDBRANCH   1   8
BRANCH   5  16
ATOM     16  C   UNL     1      45.460   3.889  12.631  0.00  0.00    +0.000 C 
BRANCH  16  17
ATOM     17  C   UNL     1      44.588   4.705  11.669  0.00  0.00    +0.000 C 
BRANCH  17  18
ATOM     18  N   UNL     1      43.906   3.913  10.643  0.00  0.00    +0.000 N 
ATOM     19  H   UNL     1      43.061   4.374  10.302  0.00  0.00    +0.000 HD
BRANCH  18  20
ATOM     20  C   UNL     1      44.748   3.541   9.572  0.00  0.00    +0.000 A 
ATOM     21  C   UNL     1      45.412   4.436   8.738  0.00  0.00    +0.000 A 
ATOM     22  N   UNL     1      46.245   4.097   7.732  0.00  0.00    +0.000 NA
ATOM     23  C   UNL     1      46.457   2.772   7.585  0.00  0.00    +0.000 A 
ATOM     24  N   UNL     1      45.923   1.800   8.351  0.00  0.00    +0.000 NA
ATOM     25  C   UNL     1      45.099   2.220   9.336  0.00  0.00    +0.000 A 
BRANCH  23  26
ATOM     26  C   UNL     1      47.376   2.378   6.453  0.00  0.00    +0.000 C 
ATOM     27  N   UNL     1      47.246   3.122   5.301  0.00  0.00    +0.000 N 
ATOM     28  O   UNL     1      48.194   1.470   6.519  0.00  0.00    +0.000 OA
ATOM     29  H   UNL     1      46.573   3.879   5.261  0.00  0.00    +0.000 HD
ATOM     30  H   UNL     1      47.841   2.915   4.512  0.00  0.00    +0.000 HD
ENDBRANCH  23  26
ENDBRANCH  18  20
ENDBRANCH  17  18
ENDBRANCH  16  17
ENDBRANCH   5  16
TORSDOF 7
ENDMDL
MODEL 5
REMARK VINA RESULT:    -7.347      1.622      2.265
REMARK INTER + INTRA:         -11.187
REMARK INTER:                 -10.183
REMARK INTRA:                  -1.004
REMARK UNBOUND:                -1.047
REMARK  Name = 
REMARK  8 active torsions:
REMARK  status: ('A' for Active; 'I' for Inactive)
REMARK    1  A    between atoms: C_1  and  C_2
REMARK    2  A    between atoms: C_2  and  C_3
REMARK    3  A    between atoms: C_7  and  C_8
REMARK    4  A    between atoms: C_8  and  C_9
REMARK    5  A    between atoms: C_9  and  N_10
REMARK    6  A    between atoms: N_10  and  C_11
REMARK    7  A    between atoms: C_14  and  C_15
REMARK    8  A    between atoms: C_23  and  O_24
REMARK                            x       y       z     vdW  Elec       q    Type
REMARK                         _______ _______ _______ _____ _____    ______ ____
ROOT
ATOM      1  C   UNL     1      45.557   7.659  12.178  0.00  0.00    +0.000 A 
ATOM      2  C   UNL     1      44.618   8.328  11.379  0.00  0.00    +0.000 A 
ATOM      3  C   UNL     1      43.400   7.726  11.037  0.00  0.00    +0.000 A 
ATOM      4  C   UNL     1      43.096   6.436  11.477  0.00  0.00    +0.000 A 
ATOM      5  C   UNL     1      43.999   5.738  12.280  0.00  0.00    +0.000 A 
ATOM      6  C   UNL     1      45.202   6.381  12.631  0.00  0.00    +0.000 A 
ENDROOT
BRANCH   1   8
ATOM      7  C   UNL     1      46.962   9.679  11.857  0.00  0.00    +0.000 C 
ATOM      8  C   UNL     1      46.956   8.256  12.467  0.00  0.00    +0.000 C 
ATOM      9  C   UNL     1      47.207   8.311  13.997  0.00  0.00    +0.000 C 
ATOM     10  C   UNL     1      48.618   8.775  14.382  0.00  0.00    +0.000 C 
ATOM     11  C   UNL     1      49.726   7.982  13.693  0.00  0.00    +0.000 C 
ATOM     12  C   UNL     1      49.522   7.909  12.185  0.00  0.00    +0.000 C 
ATOM     13  C   UNL     1      48.116   7.437  11.815  0.00  0.00    +0.000 C 
BRANCH  11  14
ATOM     14  O   UNL     1      49.804   6.666  14.236  0.00  0.00    +0.000 OA
ATOM     15  H   UNL     1      49.843   6.724  15.204  0.00  0.00    +0.000 HD
ENDBRANCH  11  14
ENDBRANCH   1   8
BRANCH   5  16
ATOM     16  C   UNL     1      43.694   4.307  12.707  0.00  0.00    +0.000 C 
BRANCH  16  17
ATOM     17  C   UNL     1      44.420   3.262  11.852  0.00  0.00    +0.000 C 
BRANCH  17  18
ATOM     18  N   UNL     1      43.781   2.975  10.565  0.00  0.00    +0.000 N 
ATOM     19  H   UNL     1      43.014   3.620  10.368  0.00  0.00    +0.000 HD
BRANCH  18  20
ATOM     20  C   UNL     1      44.691   2.923   9.487  0.00  0.00    +0.000 A 
ATOM     21  C   UNL     1      45.333   1.770   9.046  0.00  0.00    +0.000 A 
ATOM     22  N   UNL     1      46.180   1.699   7.998  0.00  0.00    +0.000 NA
ATOM     23  C   UNL     1      46.355   2.854   7.322  0.00  0.00    +0.000 A 
ATOM     24  N   UNL     1      45.759   4.029   7.605  0.00  0.00    +0.000 NA
ATOM     25  C   UNL     1      44.927   4.019   8.671  0.00  0.00    +0.000 A 
BRANCH  23  26
ATOM     26  C   UNL     1      47.312   2.791   6.155  0.00  0.00    +0.000 C 
ATOM     27  N   UNL     1      48.596   2.400   6.464  0.00  0.00    +0.000 N 
ATOM     28  O   UNL     1      47.003   3.057   5.001  0.00  0.00    +0.000 OA
ATOM     29  H   UNL     1      48.838   2.171   7.421  0.00  0.00    +0.000 HD
ATOM     30  H   UNL     1      49.280   2.327   5.725  0.00  0.00    +0.000 HD
ENDBRANCH  23  26
ENDBRANCH  18  20
ENDBRANCH  17  18
ENDBRANCH  16  17
ENDBRANCH   5  16
TORSDOF 7
ENDMDL
MODEL 6
REMARK VINA RESULT:    -7.260      1.383      2.364
REMARK INTER + INTRA:         -11.066
REMARK INTER:                 -10.275
REMARK INTRA:                  -0.791
REMARK UNBOUND:                -1.047
REMARK  Name = 
REMARK  8 active torsions:
REMARK  status: ('A' for Active; 'I' for Inactive)
REMARK    1  A    between atoms: C_1  and  C_2
REMARK    2  A    between atoms: C_2  and  C_3
REMARK    3  A    between atoms: C_7  and  C_8
REMARK    4  A    between atoms: C_8  and  C_9
REMARK    5  A    between atoms: C_9  and  N_10
REMARK    6  A    between atoms: N_10  and  C_11
REMARK    7  A    between atoms: C_14  and  C_15
REMARK    8  A    between atoms: C_23  and  O_24
REMARK                            x       y       z     vdW  Elec       q    Type
REMARK                         _______ _______ _______ _____ _____    ______ ____
ROOT
ATOM      1  C   UNL     1      46.437   7.404  12.562  0.00  0.00    +0.000 A 
ATOM      2  C   UNL     1      45.615   8.226  11.775  0.00  0.00    +0.000 A 
ATOM      3  C   UNL     1      44.330   7.816  11.399  0.00  0.00    +0.000 A 
ATOM      4  C   UNL     1      43.838   6.569  11.791  0.00  0.00    +0.000 A 
ATOM      5  C   UNL     1      44.619   5.724  12.581  0.00  0.00    +0.000 A 
ATOM      6  C   UNL     1      45.896   6.176  12.966  0.00  0.00    +0.000 A 
ENDROOT
BRANCH   1   8
ATOM      7  C   UNL     1      48.344   6.878  14.060  0.00  0.00    +0.000 C 
ATOM      8  C   UNL     1      47.902   7.786  12.886  0.00  0.00    +0.000 C 
ATOM      9  C   UNL     1      48.800   7.556  11.642  0.00  0.00    +0.000 C 
ATOM     10  C   UNL     1      50.251   8.021  11.825  0.00  0.00    +0.000 C 
ATOM     11  C   UNL     1      50.368   9.467  12.301  0.00  0.00    +0.000 C 
ATOM     12  C   UNL     1      49.505   9.736  13.527  0.00  0.00    +0.000 C 
ATOM     13  C   UNL     1      48.061   9.276  13.329  0.00  0.00    +0.000 C 
BRANCH  11  14
ATOM     14  O   UNL     1      50.011  10.365  11.251  0.00  0.00    +0.000 OA
ATOM     15  H   UNL     1      50.770  10.474  10.655  0.00  0.00    +0.000 HD
ENDBRANCH  11  14
ENDBRANCH   1   8
BRANCH   5  16
ATOM     16  C   UNL     1      44.106   4.338  12.954  0.00  0.00    +0.000 C 
BRANCH  16  17
ATOM     17  C   UNL     1      44.380   3.288  11.871  0.00  0.00    +0.000 C 
BRANCH  17  18
ATOM     18  N   UNL     1      43.824   3.610  10.555  0.00  0.00    +0.000 N 
ATOM     19  H   UNL     1      43.484   4.572  10.509  0.00  0.00    +0.000 HD
BRANCH  18  20
ATOM     20  C   UNL     1      44.708   3.333   9.490  0.00  0.00    +0.000 A 
ATOM     21  C   UNL     1      45.287   4.296   8.669  0.00  0.00    +0.000 A 
ATOM     22  N   UNL     1      46.158   4.049   7.668  0.00  0.00    +0.000 NA
ATOM     23  C   UNL     1      46.503   2.753   7.515  0.00  0.00    +0.000 A 
ATOM     24  N   UNL     1      46.062   1.727   8.268  0.00  0.00    +0.000 NA
ATOM     25  C   UNL     1      45.191   2.055   9.249  0.00  0.00    +0.000 A 
BRANCH  23  26
ATOM     26  C   UNL     1      47.467   2.462   6.389  0.00  0.00    +0.000 C 
ATOM     27  N   UNL     1      47.329   3.257   5.272  0.00  0.00    +0.000 N 
ATOM     28  O   UNL     1      48.326   1.592   6.431  0.00  0.00    +0.000 OA
ATOM     29  H   UNL     1      46.622   3.983   5.253  0.00  0.00    +0.000 HD
ATOM     30  H   UNL     1      47.952   3.119   4.490  0.00  0.00    +0.000 HD
ENDBRANCH  23  26
ENDBRANCH  18  20
ENDBRANCH  17  18
ENDBRANCH  16  17
ENDBRANCH   5  16
TORSDOF 7
ENDMDL
MODEL 7
REMARK VINA RESULT:    -7.110      4.528      7.647
REMARK INTER + INTRA:         -10.859
REMARK INTER:                  -9.561
REMARK INTRA:                  -1.299
REMARK UNBOUND:                -1.047
REMARK  Name = 
REMARK  8 active torsions:
REMARK  status: ('A' for Active; 'I' for Inactive)
REMARK    1  A    between atoms: C_1  and  C_2
REMARK    2  A    between atoms: C_2  and  C_3
REMARK    3  A    between atoms: C_7  and  C_8
REMARK    4  A    between atoms: C_8  and  C_9
REMARK    5  A    between atoms: C_9  and  N_10
REMARK    6  A    between atoms: N_10  and  C_11
REMARK    7  A    between atoms: C_14  and  C_15
REMARK    8  A    between atoms: C_23  and  O_24
REMARK                            x       y       z     vdW  Elec       q    Type
REMARK                         _______ _______ _______ _____ _____    ______ ____
ROOT
ATOM      1  C   UNL     1      45.904   7.118  11.625  0.00  0.00    +0.000 A 
ATOM      2  C   UNL     1      45.119   8.264  11.828  0.00  0.00    +0.000 A 
ATOM      3  C   UNL     1      45.703   9.486  12.185  0.00  0.00    +0.000 A 
ATOM      4  C   UNL     1      47.084   9.590  12.359  0.00  0.00    +0.000 A 
ATOM      5  C   UNL     1      47.902   8.477  12.160  0.00  0.00    +0.000 A 
ATOM      6  C   UNL     1      47.289   7.270  11.773  0.00  0.00    +0.000 A 
ENDROOT
BRANCH   1   8
ATOM      7  C   UNL     1      45.612   5.376   9.882  0.00  0.00    +0.000 C 
ATOM      8  C   UNL     1      45.269   5.733  11.349  0.00  0.00    +0.000 C 
ATOM      9  C   UNL     1      45.851   4.677  12.325  0.00  0.00    +0.000 C 
ATOM     10  C   UNL     1      45.194   3.294  12.212  0.00  0.00    +0.000 C 
ATOM     11  C   UNL     1      43.672   3.335  12.324  0.00  0.00    +0.000 C 
ATOM     12  C   UNL     1      43.057   4.358  11.376  0.00  0.00    +0.000 C 
ATOM     13  C   UNL     1      43.714   5.732  11.505  0.00  0.00    +0.000 C 
BRANCH  11  14
ATOM     14  O   UNL     1      43.282   3.623  13.665  0.00  0.00    +0.000 OA
ATOM     15  H   UNL     1      44.005   4.090  14.113  0.00  0.00    +0.000 HD
ENDBRANCH  11  14
ENDBRANCH   1   8
BRANCH   5  16
ATOM     16  C   UNL     1      49.402   8.577  12.412  0.00  0.00    +0.000 C 
BRANCH  16  17
ATOM     17  C   UNL     1      49.877   7.665  13.550  0.00  0.00    +0.000 C 
BRANCH  17  18
ATOM     18  N   UNL     1      49.345   8.008  14.870  0.00  0.00    +0.000 N 
ATOM     19  H   UNL     1      48.634   8.739  14.817  0.00  0.00    +0.000 HD
BRANCH  18  20
ATOM     20  C   UNL     1      48.870   6.891  15.590  0.00  0.00    +0.000 A 
ATOM     21  C   UNL     1      48.183   5.819  15.029  0.00  0.00    +0.000 A 
ATOM     22  N   UNL     1      47.751   4.729  15.698  0.00  0.00    +0.000 NA
ATOM     23  C   UNL     1      48.073   4.697  17.009  0.00  0.00    +0.000 A 
ATOM     24  N   UNL     1      48.777   5.636  17.670  0.00  0.00    +0.000 NA
ATOM     25  C   UNL     1      49.172   6.697  16.930  0.00  0.00    +0.000 A 
BRANCH  23  26
ATOM     26  C   UNL     1      47.584   3.489  17.773  0.00  0.00    +0.000 C 
ATOM     27  N   UNL     1      48.332   3.144  18.877  0.00  0.00    +0.000 N 
ATOM     28  O   UNL     1      46.594   2.839  17.465  0.00  0.00    +0.000 OA
ATOM     29  H   UNL     1      49.144   3.696  19.129  0.00  0.00    +0.000 HD
ATOM     30  H   UNL     1      48.049   2.353  19.436  0.00  0.00    +0.000 HD
ENDBRANCH  23  26
ENDBRANCH  18  20
ENDBRANCH  17  18
ENDBRANCH  16  17
ENDBRANCH   5  16
TORSDOF 7
ENDMDL
MODEL 8
REMARK VINA RESULT:    -7.098      5.107      8.008
REMARK INTER + INTRA:         -10.842
REMARK INTER:                 -10.008
REMARK INTRA:                  -0.835
REMARK UNBOUND:                -1.047
REMARK  Name = 
REMARK  8 active torsions:
REMARK  status: ('A' for Active; 'I' for Inactive)
REMARK    1  A    between atoms: C_1  and  C_2
REMARK    2  A    between atoms: C_2  and  C_3
REMARK    3  A    between atoms: C_7  and  C_8
REMARK    4  A    between atoms: C_8  and  C_9
REMARK    5  A    between atoms: C_9  and  N_10
REMARK    6  A    between atoms: N_10  and  C_11
REMARK    7  A    between atoms: C_14  and  C_15
REMARK    8  A    between atoms: C_23  and  O_24
REMARK                            x       y       z     vdW  Elec       q    Type
REMARK                         _______ _______ _______ _____ _____    ______ ____
ROOT
ATOM      1  C   UNL     1      45.811   5.767  11.594  0.00  0.00    +0.000 A 
ATOM      2  C   UNL     1      45.922   7.146  11.354  0.00  0.00    +0.000 A 
ATOM      3  C   UNL     1      46.651   7.973  12.219  0.00  0.00    +0.000 A 
ATOM      4  C   UNL     1      47.275   7.445  13.350  0.00  0.00    +0.000 A 
ATOM      5  C   UNL     1      47.196   6.079  13.622  0.00  0.00    +0.000 A 
ATOM      6  C   UNL     1      46.482   5.268  12.719  0.00  0.00    +0.000 A 
ENDROOT
BRANCH   1   8
ATOM      7  C   UNL     1      43.478   5.427  10.820  0.00  0.00    +0.000 C 
ATOM      8  C   UNL     1      44.913   4.857  10.721  0.00  0.00    +0.000 C 
ATOM      9  C   UNL     1      45.412   4.870   9.251  0.00  0.00    +0.000 C 
ATOM     10  C   UNL     1      44.661   3.901   8.329  0.00  0.00    +0.000 C 
ATOM     11  C   UNL     1      44.617   2.469   8.860  0.00  0.00    +0.000 C 
ATOM     12  C   UNL     1      44.127   2.410  10.301  0.00  0.00    +0.000 C 
ATOM     13  C   UNL     1      44.889   3.373  11.210  0.00  0.00    +0.000 C 
BRANCH  11  14
ATOM     14  O   UNL     1      45.906   1.866   8.761  0.00  0.00    +0.000 OA
ATOM     15  H   UNL     1      46.278   2.053   7.884  0.00  0.00    +0.000 HD
ENDBRANCH  11  14
ENDBRANCH   1   8
BRANCH   5  16
ATOM     16  C   UNL     1      47.824   5.515  14.891  0.00  0.00    +0.000 C 
BRANCH  16  17
ATOM     17  C   UNL     1      47.055   4.314  15.455  0.00  0.00    +0.000 C 
BRANCH  17  18
ATOM     18  N   UNL     1      47.311   4.036  16.870  0.00  0.00    +0.000 N 
ATOM     19  H   UNL     1      46.550   3.506  17.299  0.00  0.00    +0.000 HD
BRANCH  18  20
ATOM     20  C   UNL     1      48.556   3.414  17.103  0.00  0.00    +0.000 A 
ATOM     21  C   UNL     1      48.994   2.254  16.470  0.00  0.00    +0.000 A 
ATOM     22  N   UNL     1      50.194   1.666  16.657  0.00  0.00    +0.000 NA
ATOM     23  C   UNL     1      51.024   2.313  17.502  0.00  0.00    +0.000 A 
ATOM     24  N   UNL     1      50.752   3.468  18.142  0.00  0.00    +0.000 NA
ATOM     25  C   UNL     1      49.529   3.993  17.903  0.00  0.00    +0.000 A 
BRANCH  23  26
ATOM     26  C   UNL     1      52.365   1.657  17.732  0.00  0.00    +0.000 C 
ATOM     27  N   UNL     1      53.080   2.134  18.809  0.00  0.00    +0.000 N 
ATOM     28  O   UNL     1      52.817   0.760  17.034  0.00  0.00    +0.000 OA
ATOM     29  H   UNL     1      52.691   2.870  19.388  0.00  0.00    +0.000 HD
ATOM     30  H   UNL     1      53.979   1.728  19.022  0.00  0.00    +0.000 HD
ENDBRANCH  23  26
ENDBRANCH  18  20
ENDBRANCH  17  18
ENDBRANCH  16  17
ENDBRANCH   5  16
TORSDOF 7
ENDMDL
MODEL 9
REMARK VINA RESULT:    -6.862      3.601      5.718
REMARK INTER + INTRA:         -10.517
REMARK INTER:                  -9.553
REMARK INTRA:                  -0.964
REMARK UNBOUND:                -1.047
REMARK  Name = 
REMARK  8 active torsions:
REMARK  status: ('A' for Active; 'I' for Inactive)
REMARK    1  A    between atoms: C_1  and  C_2
REMARK    2  A    between atoms: C_2  and  C_3
REMARK    3  A    between atoms: C_7  and  C_8
REMARK    4  A    between atoms: C_8  and  C_9
REMARK    5  A    between atoms: C_9  and  N_10
REMARK    6  A    between atoms: N_10  and  C_11
REMARK    7  A    between atoms: C_14  and  C_15
REMARK    8  A    between atoms: C_23  and  O_24
REMARK                            x       y       z     vdW  Elec       q    Type
REMARK                         _______ _______ _______ _____ _____    ______ ____
ROOT
ATOM      1  C   UNL     1      48.713   6.541  16.722  0.00  0.00    +0.000 A 
ATOM      2  C   UNL     1      48.628   7.741  17.446  0.00  0.00    +0.000 A 
ATOM      3  C   UNL     1      48.534   8.975  16.789  0.00  0.00    +0.000 A 
ATOM      4  C   UNL     1      48.536   9.041  15.395  0.00  0.00    +0.000 A 
ATOM      5  C   UNL     1      48.612   7.872  14.637  0.00  0.00    +0.000 A 
ATOM      6  C   UNL     1      48.675   6.644  15.325  0.00  0.00    +0.000 A 
ENDROOT
BRANCH   1   8
ATOM      7  C   UNL     1      48.818   5.443  18.946  0.00  0.00    +0.000 C 
ATOM      8  C   UNL     1      48.938   5.179  17.425  0.00  0.00    +0.000 C 
ATOM      9  C   UNL     1      47.870   4.156  16.956  0.00  0.00    +0.000 C 
ATOM     10  C   UNL     1      48.081   2.738  17.504  0.00  0.00    +0.000 C 
ATOM     11  C   UNL     1      49.484   2.193  17.247  0.00  0.00    +0.000 C 
ATOM     12  C   UNL     1      50.566   3.165  17.699  0.00  0.00    +0.000 C 
ATOM     13  C   UNL     1      50.349   4.571  17.139  0.00  0.00    +0.000 C 
BRANCH  11  14
ATOM     14  O   UNL     1      49.652   1.890  15.863  0.00  0.00    +0.000 OA
ATOM     15  H   UNL     1      49.675   2.718  15.357  0.00  0.00    +0.000 HD
ENDBRANCH  11  14
ENDBRANCH   1   8
BRANCH   5  16
ATOM     16  C   UNL     1      48.677   7.949  13.117  0.00  0.00    +0.000 C 
BRANCH  16  17
ATOM     17  C   UNL     1      47.293   8.043  12.464  0.00  0.00    +0.000 C 
BRANCH  17  18
ATOM     18  N   UNL     1      46.200   7.496  13.271  0.00  0.00    +0.000 N 
ATOM     19  H   UNL     1      45.474   8.191  13.452  0.00  0.00    +0.000 HD
BRANCH  18  20
ATOM     20  C   UNL     1      45.646   6.313  12.735  0.00  0.00    +0.000 A 
ATOM     21  C   UNL     1      45.439   5.138  13.452  0.00  0.00    +0.000 A 
ATOM     22  N   UNL     1      44.882   4.011  12.964  0.00  0.00    +0.000 NA
ATOM     23  C   UNL     1      44.465   4.086  11.682  0.00  0.00    +0.000 A 
ATOM     24  N   UNL     1      44.554   5.171  10.889  0.00  0.00    +0.000 NA
ATOM     25  C   UNL     1      45.126   6.260  11.451  0.00  0.00    +0.000 A 
BRANCH  23  26
ATOM     26  C   UNL     1      43.852   2.826  11.118  0.00  0.00    +0.000 C 
ATOM     27  N   UNL     1      44.404   2.378   9.938  0.00  0.00    +0.000 N 
ATOM     28  O   UNL     1      42.933   2.216  11.646  0.00  0.00    +0.000 OA
ATOM     29  H   UNL     1      45.174   2.884   9.515  0.00  0.00    +0.000 HD
ATOM     30  H   UNL     1      44.046   1.533   9.517  0.00  0.00    +0.000 HD
ENDBRANCH  23  26
ENDBRANCH  18  20
ENDBRANCH  17  18
ENDBRANCH  16  17
ENDBRANCH   5  16
TORSDOF 7
ENDMDL
