MODEL 1
REMARK VINA RESULT:    -7.803      0.000      0.000
REMARK INTER + INTRA:          -9.979
REMARK INTER:                  -9.627
REMARK INTRA:                  -0.352
REMARK UNBOUND:                -0.352
REMARK  Name = 
REMARK  5 active torsions:
REMARK  status: ('A' for Active; 'I' for Inactive)
REMARK    1  A    between atoms: C_1  and  N_2
REMARK    2  A    between atoms: C_3  and  C_5
REMARK    3  A    between atoms: C_8  and  N_9
REMARK    4  A    between atoms: N_9  and  C_10
REMARK    5  A    between atoms: C_10  and  C_11
REMARK                            x       y       z     vdW  Elec       q    Type
REMARK                         _______ _______ _______ _____ _____    ______ ____
ROOT
ATOM      1  C   UNL     1      46.662   4.311  13.796  0.00  0.00    +0.000 A 
ATOM      2  C   UNL     1      46.942   5.535  13.200  0.00  0.00    +0.000 A 
ATOM      3  C   UNL     1      46.305   5.855  11.998  0.00  0.00    +0.000 A 
ATOM      4  C   UNL     1      45.432   4.943  11.397  0.00  0.00    +0.000 A 
ATOM      5  C   UNL     1      45.211   3.750  12.095  0.00  0.00    +0.000 A 
ATOM      6  N   UNL     1      45.803   3.400  13.263  0.00  0.00    +0.000 NA
ENDROOT
BRANCH   1   9
ATOM      7  C   UNL     1      47.760   4.684  17.407  0.00  0.00    +0.000 C 
ATOM      8  N   UNL     1      47.180   4.899  16.106  0.00  0.00    +0.000 N 
ATOM      9  C   UNL     1      47.287   3.952  15.109  0.00  0.00    +0.000 C 
ATOM     10  O   UNL     1      47.857   2.870  15.262  0.00  0.00    +0.000 OA
ATOM     11  H   UNL     1      46.595   5.707  15.919  0.00  0.00    +0.000 HD
ENDBRANCH   1   9
BRANCH   4  12
ATOM     12  N   UNL     1      44.765   5.312  10.222  0.00  0.00    +0.000 N 
ATOM     13  H   UNL     1      44.058   6.023  10.424  0.00  0.00    +0.000 HD
BRANCH  12  14
ATOM     14  C   UNL     1      44.159   4.240   9.416  0.00  0.00    +0.000 C 
BRANCH  14  15
ATOM     15  C   UNL     1      45.221   3.530   8.597  0.00  0.00    +0.000 A 
ATOM     16  C   UNL     1      45.420   2.158   8.758  0.00  0.00    +0.000 A 
ATOM     17  C   UNL     1      46.385   1.519   7.986  0.00  0.00    +0.000 A 
ATOM     18  C   UNL     1      47.122   2.260   7.073  0.00  0.00    +0.000 A 
ATOM     19  C   UNL     1      46.865   3.617   6.972  0.00  0.00    +0.000 A 
ATOM     20  N   UNL     1      45.937   4.268   7.709  0.00  0.00    +0.000 NA
ENDBRANCH  14  15
ENDBRANCH  12  14
ENDBRANCH   4  12
TORSDOF 4
ENDMDL
MODEL 2
REMARK VINA RESULT:    -7.773      1.267      1.567
REMARK INTER + INTRA:          -9.943
REMARK INTER:                  -9.510
REMARK INTRA:                  -0.433
REMARK UNBOUND:                -0.352
REMARK  Name = 
REMARK  5 active torsions:
REMARK  status: ('A' for Active; 'I' for Inactive)
REMARK    1  A    between atoms: C_1  and  N_2
REMARK    2  A    between atoms: C_3  and  C_5
REMARK    3  A    between atoms: C_8  and  N_9
REMARK    4  A    between atoms: N_9  and  C_10
REMARK    5  A    between atoms: C_10  and  C_11
REMARK                            x       y       z     vdW  Elec       q    Type
REMARK                         _______ _______ _______ _____ _____    ______ ____
ROOT
ATOM      1  C   UNL     1      46.482   4.675  13.468  0.00  0.00    +0.000 A 
ATOM      2  C   UNL     1      46.374   5.714  12.550  0.00  0.00    +0.000 A 
ATOM      3  C   UNL     1      45.665   5.488  11.367  0.00  0.00    +0.000 A 
ATOM      4  C   UNL     1      45.111   4.231  11.104  0.00  0.00    +0.000 A 
ATOM      5  C   UNL     1      45.267   3.268  12.107  0.00  0.00    +0.000 A 
ATOM      6  N   UNL     1      45.941   3.443  13.269  0.00  0.00    +0.000 NA
ENDROOT
BRANCH   1   9
ATOM      7  C   UNL     1      47.322   4.272  17.144  0.00  0.00    +0.000 C 
ATOM      8  N   UNL     1      46.740   4.139  15.833  0.00  0.00    +0.000 N 
ATOM      9  C   UNL     1      47.191   4.892  14.770  0.00  0.00    +0.000 C 
ATOM     10  O   UNL     1      48.117   5.700  14.858  0.00  0.00    +0.000 OA
ATOM     11  H   UNL     1      46.050   3.421  15.636  0.00  0.00    +0.000 HD
ENDBRANCH   1   9
BRANCH   4  12
ATOM     12  N   UNL     1      44.359   4.051   9.935  0.00  0.00    +0.000 N 
ATOM     13  H   UNL     1      43.411   4.413  10.064  0.00  0.00    +0.000 HD
BRANCH  12  14
ATOM     14  C   UNL     1      44.289   2.692   9.375  0.00  0.00    +0.000 C 
BRANCH  14  15
ATOM     15  C   UNL     1      45.422   2.467   8.392  0.00  0.00    +0.000 A 
ATOM     16  C   UNL     1      45.806   3.493   7.528  0.00  0.00    +0.000 A 
ATOM     17  C   UNL     1      46.860   3.278   6.646  0.00  0.00    +0.000 A 
ATOM     18  C   UNL     1      47.507   2.049   6.650  0.00  0.00    +0.000 A 
ATOM     19  C   UNL     1      47.067   1.081   7.538  0.00  0.00    +0.000 A 
ATOM     20  N   UNL     1      46.045   1.259   8.405  0.00  0.00    +0.000 NA
ENDBRANCH  14  15
ENDBRANCH  12  14
ENDBRANCH   4  12
TORSDOF 4
ENDMDL
MODEL 3
REMARK VINA RESULT:    -7.174      2.071      2.522
REMARK INTER + INTRA:          -9.203
REMARK INTER:                  -8.806
REMARK INTRA:                  -0.397
REMARK UNBOUND:                -0.352
REMARK  Name = 
REMARK  5 active torsions:
REMARK  status: ('A' for Active; 'I' for Inactive)
REMARK    1  A    between atoms: C_1  and  N_2
REMARK    2  A    between atoms: C_3  and  C_5
REMARK    3  A    between atoms: C_8  and  N_9
REMARK    4  A    between atoms: N_9  and  C_10
REMARK    5  A    between atoms: C_10  and  C_11
REMARK                            x       y       z     vdW  Elec       q    Type
REMARK                         _______ _______ _______ _____ _____    ______ ____
ROOT
ATOM      1  C   UNL     1      46.675   5.884  12.835  0.00  0.00    +0.000 A 
ATOM      2  C   UNL     1      46.149   4.628  13.113  0.00  0.00    +0.000 A 
ATOM      3  C   UNL     1      45.333   4.019  12.156  0.00  0.00    +0.000 A 
ATOM      4  C   UNL     1      45.029   4.681  10.962  0.00  0.00    +0.000 A 
ATOM      5  C   UNL     1      45.629   5.933  10.783  0.00  0.00    +0.000 A 
ATOM      6  N   UNL     1      46.428   6.559  11.680  0.00  0.00    +0.000 NA
ENDROOT
BRANCH   1   9
ATOM      7  C   UNL     1      48.190   8.648  14.944  0.00  0.00    +0.000 C 
ATOM      8  N   UNL     1      47.361   7.889  14.043  0.00  0.00    +0.000 N 
ATOM      9  C   UNL     1      47.594   6.549  13.814  0.00  0.00    +0.000 C 
ATOM     10  O   UNL     1      48.495   5.915  14.366  0.00  0.00    +0.000 OA
ATOM     11  H   UNL     1      46.528   8.294  13.629  0.00  0.00    +0.000 HD
ENDBRANCH   1   9
BRANCH   4  12
ATOM     12  N   UNL     1      44.254   4.024   9.998  0.00  0.00    +0.000 N 
ATOM     13  H   UNL     1      43.258   4.157  10.192  0.00  0.00    +0.000 HD
BRANCH  12  14
ATOM     14  C   UNL     1      44.517   2.593   9.772  0.00  0.00    +0.000 C 
BRANCH  14  15
ATOM     15  C   UNL     1      45.426   2.407   8.571  0.00  0.00    +0.000 A 
ATOM     16  C   UNL     1      45.577   3.443   7.648  0.00  0.00    +0.000 A 
ATOM     17  C   UNL     1      46.428   3.264   6.563  0.00  0.00    +0.000 A 
ATOM     18  C   UNL     1      47.110   2.061   6.427  0.00  0.00    +0.000 A 
ATOM     19  C   UNL     1      46.907   1.083   7.386  0.00  0.00    +0.000 A 
ATOM     20  N   UNL     1      46.085   1.225   8.450  0.00  0.00    +0.000 NA
ENDBRANCH  14  15
ENDBRANCH  12  14
ENDBRANCH   4  12
TORSDOF 4
ENDMDL
MODEL 4
REMARK VINA RESULT:    -6.977      2.470      6.180
REMARK INTER + INTRA:          -8.961
REMARK INTER:                  -8.560
REMARK INTRA:                  -0.401
REMARK UNBOUND:                -0.352
REMARK  Name = 
REMARK  5 active torsions:
REMARK  status: ('A' for Active; 'I' for Inactive)
REMARK    1  A    between atoms: C_1  and  N_2
REMARK    2  A    between atoms: C_3  and  C_5
REMARK    3  A    between atoms: C_8  and  N_9
REMARK    4  A    between atoms: N_9  and  C_10
REMARK    5  A    between atoms: C_10  and  C_11
REMARK                            x       y       z     vdW  Elec       q    Type
REMARK                         _______ _______ _______ _____ _____    ______ ____
ROOT
ATOM      1  C   UNL     1      45.345   2.836   8.897  0.00  0.00    +0.000 A 
ATOM      2  C   UNL     1      45.267   4.216   8.751  0.00  0.00    +0.000 A 
ATOM      3  C   UNL     1      44.419   4.930   9.602  0.00  0.00    +0.000 A 
ATOM      4  C   UNL     1      43.642   4.259  10.552  0.00  0.00    +0.000 A 
ATOM      5  C   UNL     1      43.816   2.872  10.619  0.00  0.00    +0.000 A 
ATOM      6  N   UNL     1      44.629   2.140   9.819  0.00  0.00    +0.000 NA
ENDROOT
BRANCH   1   9
ATOM      7  C   UNL     1      47.946   2.112   6.233  0.00  0.00    +0.000 C 
ATOM      8  N   UNL     1      47.029   2.763   7.133  0.00  0.00    +0.000 N 
ATOM      9  C   UNL     1      46.280   2.040   8.037  0.00  0.00    +0.000 C 
ATOM     10  O   UNL     1      46.354   0.815   8.151  0.00  0.00    +0.000 OA
ATOM     11  H   UNL     1      46.981   3.775   7.192  0.00  0.00    +0.000 HD
ENDBRANCH   1   9
BRANCH   4  12
ATOM     12  N   UNL     1      42.843   5.005  11.427  0.00  0.00    +0.000 N 
ATOM     13  H   UNL     1      42.821   5.986  11.138  0.00  0.00    +0.000 HD
BRANCH  12  14
ATOM     14  C   UNL     1      43.151   4.928  12.864  0.00  0.00    +0.000 C 
BRANCH  14  15
ATOM     15  C   UNL     1      44.607   5.274  13.111  0.00  0.00    +0.000 A 
ATOM     16  C   UNL     1      45.081   6.548  12.794  0.00  0.00    +0.000 A 
ATOM     17  C   UNL     1      46.415   6.856  13.044  0.00  0.00    +0.000 A 
ATOM     18  C   UNL     1      47.240   5.890  13.605  0.00  0.00    +0.000 A 
ATOM     19  C   UNL     1      46.694   4.650  13.891  0.00  0.00    +0.000 A 
ATOM     20  N   UNL     1      45.404   4.319  13.658  0.00  0.00    +0.000 NA
ENDBRANCH  14  15
ENDBRANCH  12  14
ENDBRANCH   4  12
TORSDOF 4
ENDMDL
MODEL 5
REMARK VINA RESULT:    -5.837      2.544      7.316
REMARK INTER + INTRA:          -7.554
REMARK INTER:                  -7.188
REMARK INTRA:                  -0.366
REMARK UNBOUND:                -0.352
REMARK  Name = 
REMARK  5 active torsions:
REMARK  status: ('A' for Active; 'I' for Inactive)
REMARK    1  A    between atoms: C_1  and  N_2
REMARK    2  A    between atoms: C_3  and  C_5
REMARK    3  A    between atoms: C_8  and  N_9
REMARK    4  A    between atoms: N_9  and  C_10
REMARK    5  A    between atoms: C_10  and  C_11
REMARK                            x       y       z     vdW  Elec       q    Type
REMARK                         _______ _______ _______ _____ _____    ______ ____
ROOT
ATOM      1  C   UNL     1      45.541   4.259  11.988  0.00  0.00    +0.000 A 
ATOM      2  C   UNL     1      45.743   5.607  12.260  0.00  0.00    +0.000 A 
ATOM      3  C   UNL     1      46.414   5.957  13.435  0.00  0.00    +0.000 A 
ATOM      4  C   UNL     1      46.837   4.968  14.329  0.00  0.00    +0.000 A 
ATOM      5  C   UNL     1      46.595   3.645  13.943  0.00  0.00    +0.000 A 
ATOM      6  N   UNL     1      45.953   3.259  12.813  0.00  0.00    +0.000 NA
ENDROOT
BRANCH   1   9
ATOM      7  C   UNL     1      44.455   1.998   9.143  0.00  0.00    +0.000 C 
ATOM      8  N   UNL     1      45.030   2.518  10.357  0.00  0.00    +0.000 N 
ATOM      9  C   UNL     1      44.869   3.840  10.715  0.00  0.00    +0.000 C 
ATOM     10  O   UNL     1      44.220   4.647  10.048  0.00  0.00    +0.000 OA
ATOM     11  H   UNL     1      45.486   1.906  11.026  0.00  0.00    +0.000 HD
ENDBRANCH   1   9
BRANCH   4  12
ATOM     12  N   UNL     1      47.555   5.346  15.471  0.00  0.00    +0.000 N 
ATOM     13  H   UNL     1      48.534   5.523  15.232  0.00  0.00    +0.000 HD
BRANCH  12  14
ATOM     14  C   UNL     1      47.494   4.453  16.640  0.00  0.00    +0.000 C 
BRANCH  14  15
ATOM     15  C   UNL     1      48.862   3.862  16.925  0.00  0.00    +0.000 A 
ATOM     16  C   UNL     1      49.883   4.678  17.413  0.00  0.00    +0.000 A 
ATOM     17  C   UNL     1      51.127   4.117  17.687  0.00  0.00    +0.000 A 
ATOM     18  C   UNL     1      51.319   2.759  17.472  0.00  0.00    +0.000 A 
ATOM     19  C   UNL     1      50.256   2.016  16.986  0.00  0.00    +0.000 A 
ATOM     20  N   UNL     1      49.037   2.532  16.708  0.00  0.00    +0.000 NA
ENDBRANCH  14  15
ENDBRANCH  12  14
ENDBRANCH   4  12
TORSDOF 4
ENDMDL
MODEL 6
REMARK VINA RESULT:    -5.529      3.366      6.341
REMARK INTER + INTRA:          -7.174
REMARK INTER:                  -6.767
REMARK INTRA:                  -0.407
REMARK UNBOUND:                -0.352
REMARK  Name = 
REMARK  5 active torsions:
REMARK  status: ('A' for Active; 'I' for Inactive)
REMARK    1  A    between atoms: C_1  and  N_2
REMARK    2  A    between atoms: C_3  and  C_5
REMARK    3  A    between atoms: C_8  and  N_9
REMARK    4  A    between atoms: N_9  and  C_10
REMARK    5  A    between atoms: C_10  and  C_11
REMARK                            x       y       z     vdW  Elec       q    Type
REMARK                         _______ _______ _______ _____ _____    ______ ____
ROOT
ATOM      1  C   UNL     1      45.106   4.100  11.694  0.00  0.00    +0.000 A 
ATOM      2  C   UNL     1      45.284   5.399  11.235  0.00  0.00    +0.000 A 
ATOM      3  C   UNL     1      46.012   6.293  12.026  0.00  0.00    +0.000 A 
ATOM      4  C   UNL     1      46.516   5.890  13.267  0.00  0.00    +0.000 A 
ATOM      5  C   UNL     1      46.291   4.553  13.617  0.00  0.00    +0.000 A 
ATOM      6  N   UNL     1      45.596   3.652  12.882  0.00  0.00    +0.000 NA
ENDROOT
BRANCH   1   9
ATOM      7  C   UNL     1      44.510   1.553   8.948  0.00  0.00    +0.000 C 
ATOM      8  N   UNL     1      45.105   2.513   9.841  0.00  0.00    +0.000 N 
ATOM      9  C   UNL     1      44.375   3.098  10.854  0.00  0.00    +0.000 C 
ATOM     10  O   UNL     1      43.192   2.831  11.075  0.00  0.00    +0.000 OA
ATOM     11  H   UNL     1      46.100   2.713   9.810  0.00  0.00    +0.000 HD
ENDBRANCH   1   9
BRANCH   4  12
ATOM     12  N   UNL     1      47.288   6.790  14.012  0.00  0.00    +0.000 N 
ATOM     13  H   UNL     1      46.897   6.900  14.951  0.00  0.00    +0.000 HD
BRANCH  12  14
ATOM     14  C   UNL     1      47.537   8.119  13.429  0.00  0.00    +0.000 C 
BRANCH  14  15
ATOM     15  C   UNL     1      48.980   8.233  12.974  0.00  0.00    +0.000 A 
ATOM     16  C   UNL     1      49.349   7.760  11.714  0.00  0.00    +0.000 A 
ATOM     17  C   UNL     1      50.672   7.889  11.303  0.00  0.00    +0.000 A 
ATOM     18  C   UNL     1      51.590   8.490  12.154  0.00  0.00    +0.000 A 
ATOM     19  C   UNL     1      51.145   8.935  13.388  0.00  0.00    +0.000 A 
ATOM     20  N   UNL     1      49.868   8.821  13.817  0.00  0.00    +0.000 NA
ENDBRANCH  14  15
ENDBRANCH  12  14
ENDBRANCH   4  12
TORSDOF 4
ENDMDL
MODEL 7
REMARK VINA RESULT:    -5.012      3.446      5.442
REMARK INTER + INTRA:          -6.536
REMARK INTER:                  -6.293
REMARK INTRA:                  -0.243
REMARK UNBOUND:                -0.352
REMARK  Name = 
REMARK  5 active torsions:
REMARK  status: ('A' for Active; 'I' for Inactive)
REMARK    1  A    between atoms: C_1  and  N_2
REMARK    2  A    between atoms: C_3  and  C_5
REMARK    3  A    between atoms: C_8  and  N_9
REMARK    4  A    between atoms: N_9  and  C_10
REMARK    5  A    between atoms: C_10  and  C_11
REMARK                            x       y       z     vdW  Elec       q    Type
REMARK                         _______ _______ _______ _____ _____    ______ ____
ROOT
ATOM      1  C   UNL     1      49.543   4.594  18.076  0.00  0.00    +0.000 A 
ATOM      2  C   UNL     1      49.369   5.617  17.151  0.00  0.00    +0.000 A 
ATOM      3  C   UNL     1      48.309   5.526  16.246  0.00  0.00    +0.000 A 
ATOM      4  C   UNL     1      47.466   4.409  16.255  0.00  0.00    +0.000 A 
ATOM      5  C   UNL     1      47.725   3.451  17.241  0.00  0.00    +0.000 A 
ATOM      6  N   UNL     1      48.738   3.500  18.140  0.00  0.00    +0.000 NA
ENDROOT
BRANCH   1   9
ATOM      7  C   UNL     1      52.855   3.864  19.773  0.00  0.00    +0.000 C 
ATOM      8  N   UNL     1      51.745   3.891  18.856  0.00  0.00    +0.000 N 
ATOM      9  C   UNL     1      50.638   4.679  19.095  0.00  0.00    +0.000 C 
ATOM     10  O   UNL     1      50.531   5.414  20.079  0.00  0.00    +0.000 OA
ATOM     11  H   UNL     1      51.788   3.407  17.965  0.00  0.00    +0.000 HD
ENDBRANCH   1   9
BRANCH   4  12
ATOM     12  N   UNL     1      46.379   4.371  15.373  0.00  0.00    +0.000 N 
ATOM     13  H   UNL     1      45.855   3.500  15.493  0.00  0.00    +0.000 HD
BRANCH  12  14
ATOM     14  C   UNL     1      46.654   4.579  13.942  0.00  0.00    +0.000 C 
BRANCH  14  15
ATOM     15  C   UNL     1      45.363   4.557  13.147  0.00  0.00    +0.000 A 
ATOM     16  C   UNL     1      45.098   3.494  12.282  0.00  0.00    +0.000 A 
ATOM     17  C   UNL     1      43.900   3.479  11.574  0.00  0.00    +0.000 A 
ATOM     18  C   UNL     1      42.996   4.518  11.750  0.00  0.00    +0.000 A 
ATOM     19  C   UNL     1      43.332   5.536  12.626  0.00  0.00    +0.000 A 
ATOM     20  N   UNL     1      44.488   5.581  13.326  0.00  0.00    +0.000 NA
ENDBRANCH  14  15
ENDBRANCH  12  14
ENDBRANCH   4  12
TORSDOF 4
ENDMDL
MODEL 8
REMARK VINA RESULT:    -4.992      2.477      8.099
REMARK INTER + INTRA:          -6.512
REMARK INTER:                  -6.213
REMARK INTRA:                  -0.299
REMARK UNBOUND:                -0.352
REMARK  Name = 
REMARK  5 active torsions:
REMARK  status: ('A' for Active; 'I' for Inactive)
REMARK    1  A    between atoms: C_1  and  N_2
REMARK    2  A    between atoms: C_3  and  C_5
REMARK    3  A    between atoms: C_8  and  N_9
REMARK    4  A    between atoms: N_9  and  C_10
REMARK    5  A    between atoms: C_10  and  C_11
REMARK                            x       y       z     vdW  Elec       q    Type
REMARK                         _______ _______ _______ _____ _____    ______ ____
ROOT
ATOM      1  C   UNL     1      45.608   4.381  11.939  0.00  0.00    +0.000 A 
ATOM      2  C   UNL     1      46.063   3.522  12.932  0.00  0.00    +0.000 A 
ATOM      3  C   UNL     1      46.821   4.055  13.979  0.00  0.00    +0.000 A 
ATOM      4  C   UNL     1      47.138   5.417  14.000  0.00  0.00    +0.000 A 
ATOM      5  C   UNL     1      46.611   6.187  12.958  0.00  0.00    +0.000 A 
ATOM      6  N   UNL     1      45.870   5.715  11.926  0.00  0.00    +0.000 NA
ENDROOT
BRANCH   1   9
ATOM      7  C   UNL     1      44.417   2.056   9.189  0.00  0.00    +0.000 C 
ATOM      8  N   UNL     1      45.143   2.653  10.281  0.00  0.00    +0.000 N 
ATOM      9  C   UNL     1      44.751   3.857  10.826  0.00  0.00    +0.000 C 
ATOM     10  O   UNL     1      43.764   4.486  10.439  0.00  0.00    +0.000 OA
ATOM     11  H   UNL     1      45.901   2.158  10.741  0.00  0.00    +0.000 HD
ENDBRANCH   1   9
BRANCH   4  12
ATOM     12  N   UNL     1      47.852   5.932  15.090  0.00  0.00    +0.000 N 
ATOM     13  H   UNL     1      48.734   6.342  14.774  0.00  0.00    +0.000 HD
BRANCH  12  14
ATOM     14  C   UNL     1      48.113   5.028  16.222  0.00  0.00    +0.000 C 
BRANCH  14  15
ATOM     15  C   UNL     1      48.072   5.794  17.530  0.00  0.00    +0.000 A 
ATOM     16  C   UNL     1      48.790   6.984  17.660  0.00  0.00    +0.000 A 
ATOM     17  C   UNL     1      48.727   7.685  18.860  0.00  0.00    +0.000 A 
ATOM     18  C   UNL     1      47.948   7.187  19.896  0.00  0.00    +0.000 A 
ATOM     19  C   UNL     1      47.264   6.001  19.688  0.00  0.00    +0.000 A 
ATOM     20  N   UNL     1      47.307   5.295  18.536  0.00  0.00    +0.000 NA
ENDBRANCH  14  15
ENDBRANCH  12  14
ENDBRANCH   4  12
TORSDOF 4
ENDMDL
MODEL 9
REMARK VINA RESULT:    -4.938      2.487      7.529
REMARK INTER + INTRA:          -6.444
REMARK INTER:                  -6.102
REMARK INTRA:                  -0.343
REMARK UNBOUND:                -0.352
REMARK  Name = 
REMARK  5 active torsions:
REMARK  status: ('A' for Active; 'I' for Inactive)
REMARK    1  A    between atoms: C_1  and  N_2
REMARK    2  A    between atoms: C_3  and  C_5
REMARK    3  A    between atoms: C_8  and  N_9
REMARK    4  A    between atoms: N_9  and  C_10
REMARK    5  A    between atoms: C_10  and  C_11
REMARK                            x       y       z     vdW  Elec       q    Type
REMARK                         _______ _______ _______ _____ _____    ______ ____
ROOT
ATOM      1  C   UNL     1      45.217   5.692  11.452  0.00  0.00    +0.000 A 
ATOM      2  C   UNL     1      45.081   7.065  11.625  0.00  0.00    +0.000 A 
ATOM      3  C   UNL     1      45.856   7.694  12.603  0.00  0.00    +0.000 A 
ATOM      4  C   UNL     1      46.720   6.947  13.410  0.00  0.00    +0.000 A 
ATOM      5  C   UNL     1      46.787   5.576  13.134  0.00  0.00    +0.000 A 
ATOM      6  N   UNL     1      46.059   4.925  12.195  0.00  0.00    +0.000 NA
ENDROOT
BRANCH   1   9
ATOM      7  C   UNL     1      44.562   3.661   8.317  0.00  0.00    +0.000 C 
ATOM      8  N   UNL     1      45.189   4.353   9.414  0.00  0.00    +0.000 N 
ATOM      9  C   UNL     1      44.440   4.988  10.382  0.00  0.00    +0.000 C 
ATOM     10  O   UNL     1      43.208   4.992  10.389  0.00  0.00    +0.000 OA
ATOM     11  H   UNL     1      46.193   4.310   9.556  0.00  0.00    +0.000 HD
ENDBRANCH   1   9
BRANCH   4  12
ATOM     12  N   UNL     1      47.525   7.612  14.344  0.00  0.00    +0.000 N 
ATOM     13  H   UNL     1      47.669   8.584  14.059  0.00  0.00    +0.000 HD
BRANCH  12  14
ATOM     14  C   UNL     1      48.824   7.005  14.678  0.00  0.00    +0.000 C 
BRANCH  14  15
ATOM     15  C   UNL     1      48.788   6.420  16.077  0.00  0.00    +0.000 A 
ATOM     16  C   UNL     1      48.804   7.268  17.185  0.00  0.00    +0.000 A 
ATOM     17  C   UNL     1      48.752   6.716  18.461  0.00  0.00    +0.000 A 
ATOM     18  C   UNL     1      48.681   5.336  18.600  0.00  0.00    +0.000 A 
ATOM     19  C   UNL     1      48.669   4.562  17.451  0.00  0.00    +0.000 A 
ATOM     20  N   UNL     1      48.721   5.068  16.198  0.00  0.00    +0.000 NA
ENDBRANCH  14  15
ENDBRANCH  12  14
ENDBRANCH   4  12
TORSDOF 4
ENDMDL
