MODEL 1
REMARK VINA RESULT:    -7.970      0.000      0.000
REMARK INTER + INTRA:         -10.985
REMARK INTER:                 -10.300
REMARK INTRA:                  -0.685
REMARK UNBOUND:                -0.685
REMARK  Name = 
REMARK  5 active torsions:
REMARK  status: ('A' for Active; 'I' for Inactive)
REMARK    1  A    between atoms: C_2  and  C_5
REMARK    2  A    between atoms: C_9  and  N_10
REMARK    3  A    between atoms: N_10  and  C_11
REMARK    4  A    between atoms: C_11  and  C_12
REMARK    5  A    between atoms: C_16  and  C_17
REMARK                            x       y       z     vdW  Elec       q    Type
REMARK                         _______ _______ _______ _____ _____    ______ ____
ROOT
ATOM      1  C   UNL     1      44.548   5.512  11.330  0.00  0.00    +0.000 C 
ENDROOT
BRANCH   1   2
ATOM      2  C   UNL     1      45.834   5.854  12.031  0.00  0.00    +0.000 A 
ATOM      3  C   UNL     1      46.777   6.676  11.425  0.00  0.00    +0.000 A 
ATOM      4  N   UNL     1      47.944   7.034  12.002  0.00  0.00    +0.000 NA
ATOM      5  C   UNL     1      48.190   6.538  13.238  0.00  0.00    +0.000 A 
ATOM      6  C   UNL     1      47.336   5.695  13.951  0.00  0.00    +0.000 A 
ATOM      7  C   UNL     1      46.140   5.349  13.303  0.00  0.00    +0.000 A 
BRANCH   6   8
ATOM      8  C   UNL     1      47.670   5.190  15.293  0.00  0.00    +0.000 A 
ATOM      9  C   UNL     1      47.036   4.081  15.864  0.00  0.00    +0.000 A 
ATOM     10  C   UNL     1      47.379   3.680  17.156  0.00  0.00    +0.000 A 
ATOM     11  C   UNL     1      48.348   4.389  17.848  0.00  0.00    +0.000 A 
ATOM     12 CL   UNL     1      48.787   3.942  19.445  0.00  0.00    +0.000 Cl
ATOM     13  C   UNL     1      48.948   5.464  17.216  0.00  0.00    +0.000 A 
ATOM     14  N   UNL     1      48.637   5.874  15.959  0.00  0.00    +0.000 NA
ENDBRANCH   6   8
ENDBRANCH   1   2
BRANCH   1  15
ATOM     15  N   UNL     1      44.762   5.541   9.890  0.00  0.00    +0.000 N 
ATOM     16  H   UNL     1      45.488   6.204   9.629  0.00  0.00    +0.000 HD
BRANCH  15  21
ATOM     17  C   UNL     1      46.097   2.921   7.765  0.00  0.00    +0.000 A 
ATOM     18  C   UNL     1      45.519   1.804   8.350  0.00  0.00    +0.000 A 
ATOM     19  N   UNL     1      44.695   1.883   9.418  0.00  0.00    +0.000 NA
ATOM     20  C   UNL     1      44.476   3.138   9.884  0.00  0.00    +0.000 A 
ATOM     21  C   UNL     1      45.020   4.289   9.311  0.00  0.00    +0.000 A 
ATOM     22  N   UNL     1      45.845   4.180   8.247  0.00  0.00    +0.000 NA
BRANCH  17  24
ATOM     23  F   UNL     1      46.895   1.517   5.982  0.00  0.00    +0.000 F 
ATOM     24  C   UNL     1      47.020   2.739   6.582  0.00  0.00    +0.000 C 
ATOM     25  F   UNL     1      48.338   2.845   6.911  0.00  0.00    +0.000 F 
ATOM     26  F   UNL     1      46.805   3.649   5.590  0.00  0.00    +0.000 F 
ENDBRANCH  17  24
ENDBRANCH  15  21
ENDBRANCH   1  15
TORSDOF 5
ENDMDL
MODEL 2
REMARK VINA RESULT:    -7.923      2.398      3.431
REMARK INTER + INTRA:         -10.925
REMARK INTER:                 -10.293
REMARK INTRA:                  -0.632
REMARK UNBOUND:                -0.685
REMARK  Name = 
REMARK  5 active torsions:
REMARK  status: ('A' for Active; 'I' for Inactive)
REMARK    1  A    between atoms: C_2  and  C_5
REMARK    2  A    between atoms: C_9  and  N_10
REMARK    3  A    between atoms: N_10  and  C_11
REMARK    4  A    between atoms: C_11  and  C_12
REMARK    5  A    between atoms: C_16  and  C_17
REMARK                            x       y       z     vdW  Elec       q    Type
REMARK                         _______ _______ _______ _____ _____    ______ ____
ROOT
ATOM      1  C   UNL     1      44.191   5.461  11.115  0.00  0.00    +0.000 C 
ENDROOT
BRANCH   1   2
ATOM      2  C   UNL     1      45.267   5.388  12.163  0.00  0.00    +0.000 A 
ATOM      3  C   UNL     1      45.161   4.502  13.229  0.00  0.00    +0.000 A 
ATOM      4  N   UNL     1      46.095   4.375  14.197  0.00  0.00    +0.000 NA
ATOM      5  C   UNL     1      47.181   5.180  14.104  0.00  0.00    +0.000 A 
ATOM      6  C   UNL     1      47.404   6.119  13.096  0.00  0.00    +0.000 A 
ATOM      7  C   UNL     1      46.399   6.215  12.120  0.00  0.00    +0.000 A 
BRANCH   6   8
ATOM      8  C   UNL     1      48.608   6.964  13.060  0.00  0.00    +0.000 A 
ATOM      9  C   UNL     1      48.978   7.707  11.933  0.00  0.00    +0.000 A 
ATOM     10  C   UNL     1      50.154   8.460  11.959  0.00  0.00    +0.000 A 
ATOM     11  C   UNL     1      50.932   8.458  13.107  0.00  0.00    +0.000 A 
ATOM     12 CL   UNL     1      52.394   9.353  13.175  0.00  0.00    +0.000 Cl
ATOM     13  C   UNL     1      50.496   7.714  14.190  0.00  0.00    +0.000 A 
ATOM     14  N   UNL     1      49.356   6.978  14.194  0.00  0.00    +0.000 NA
ENDBRANCH   6   8
ENDBRANCH   1   2
BRANCH   1  15
ATOM     15  N   UNL     1      44.805   5.495   9.795  0.00  0.00    +0.000 N 
ATOM     16  H   UNL     1      45.658   6.050   9.790  0.00  0.00    +0.000 HD
BRANCH  15  21
ATOM     17  C   UNL     1      46.131   2.830   7.722  0.00  0.00    +0.000 A 
ATOM     18  C   UNL     1      45.503   1.731   8.293  0.00  0.00    +0.000 A 
ATOM     19  N   UNL     1      44.649   1.839   9.334  0.00  0.00    +0.000 NA
ATOM     20  C   UNL     1      44.452   3.101   9.789  0.00  0.00    +0.000 A 
ATOM     21  C   UNL     1      45.046   4.234   9.229  0.00  0.00    +0.000 A 
ATOM     22  N   UNL     1      45.899   4.097   8.192  0.00  0.00    +0.000 NA
BRANCH  17  24
ATOM     23  F   UNL     1      46.819   3.413   5.491  0.00  0.00    +0.000 F 
ATOM     24  C   UNL     1      47.084   2.616   6.569  0.00  0.00    +0.000 C 
ATOM     25  F   UNL     1      47.064   1.341   6.087  0.00  0.00    +0.000 F 
ATOM     26  F   UNL     1      48.383   2.874   6.895  0.00  0.00    +0.000 F 
ENDBRANCH  17  24
ENDBRANCH  15  21
ENDBRANCH   1  15
TORSDOF 5
ENDMDL
MODEL 3
REMARK VINA RESULT:    -7.877      4.930      8.538
REMARK INTER + INTRA:         -10.865
REMARK INTER:                 -10.266
REMARK INTRA:                  -0.599
REMARK UNBOUND:                -0.685
REMARK  Name = 
REMARK  5 active torsions:
REMARK  status: ('A' for Active; 'I' for Inactive)
REMARK    1  A    between atoms: C_2  and  C_5
REMARK    2  A    between atoms: C_9  and  N_10
REMARK    3  A    between atoms: N_10  and  C_11
REMARK    4  A    between atoms: C_11  and  C_12
REMARK    5  A    between atoms: C_16  and  C_17
REMARK                            x       y       z     vdW  Elec       q    Type
REMARK                         _______ _______ _______ _____ _____    ______ ____
ROOT
ATOM      1  C   UNL     1      45.135   5.037  13.324  0.00  0.00    +0.000 C 
ENDROOT
BRANCH   1   2
ATOM      2  C   UNL     1      44.673   4.068  12.270  0.00  0.00    +0.000 A 
ATOM      3  C   UNL     1      43.530   3.301  12.463  0.00  0.00    +0.000 A 
ATOM      4  N   UNL     1      43.052   2.423  11.555  0.00  0.00    +0.000 NA
ATOM      5  C   UNL     1      43.755   2.294  10.404  0.00  0.00    +0.000 A 
ATOM      6  C   UNL     1      44.922   2.992  10.091  0.00  0.00    +0.000 A 
ATOM      7  C   UNL     1      45.379   3.886  11.072  0.00  0.00    +0.000 A 
BRANCH   6   8
ATOM      8  C   UNL     1      45.637   2.798   8.819  0.00  0.00    +0.000 A 
ATOM      9  C   UNL     1      46.106   1.550   8.397  0.00  0.00    +0.000 A 
ATOM     10  C   UNL     1      46.808   1.447   7.194  0.00  0.00    +0.000 A 
ATOM     11  C   UNL     1      47.024   2.589   6.439  0.00  0.00    +0.000 A 
ATOM     12 CL   UNL     1      47.898   2.512   4.965  0.00  0.00    +0.000 Cl
ATOM     13  C   UNL     1      46.516   3.788   6.908  0.00  0.00    +0.000 A 
ATOM     14  N   UNL     1      45.827   3.916   8.070  0.00  0.00    +0.000 NA
ENDBRANCH   6   8
ENDBRANCH   1   2
BRANCH   1  15
ATOM     15  N   UNL     1      46.567   5.262  13.176  0.00  0.00    +0.000 N 
ATOM     16  H   UNL     1      46.764   6.125  12.677  0.00  0.00    +0.000 HD
BRANCH  15  21
ATOM     17  C   UNL     1      48.007   4.142  16.312  0.00  0.00    +0.000 A 
ATOM     18  C   UNL     1      48.822   5.224  16.615  0.00  0.00    +0.000 A 
ATOM     19  N   UNL     1      48.908   6.316  15.824  0.00  0.00    +0.000 NA
ATOM     20  C   UNL     1      48.142   6.279  14.706  0.00  0.00    +0.000 A 
ATOM     21  C   UNL     1      47.292   5.221  14.376  0.00  0.00    +0.000 A 
ATOM     22  N   UNL     1      47.230   4.139  15.182  0.00  0.00    +0.000 NA
BRANCH  17  24
ATOM     23  F   UNL     1      48.561   1.834  16.709  0.00  0.00    +0.000 F 
ATOM     24  C   UNL     1      47.985   2.953  17.244  0.00  0.00    +0.000 C 
ATOM     25  F   UNL     1      46.725   2.574  17.599  0.00  0.00    +0.000 F 
ATOM     26  F   UNL     1      48.653   3.177  18.412  0.00  0.00    +0.000 F 
ENDBRANCH  17  24
ENDBRANCH  15  21
ENDBRANCH   1  15
TORSDOF 5
ENDMDL
MODEL 4
REMARK VINA RESULT:    -7.722      4.874      7.704
REMARK INTER + INTRA:         -10.664
REMARK INTER:                  -9.869
REMARK INTRA:                  -0.796
REMARK UNBOUND:                -0.685
REMARK  Name = 
REMARK  5 active torsions:
REMARK  status: ('A' for Active; 'I' for Inactive)
REMARK    1  A    between atoms: C_2  and  C_5
REMARK    2  A    between atoms: C_9  and  N_10
REMARK    3  A    between atoms: N_10  and  C_11
REMARK    4  A    between atoms: C_11  and  C_12
REMARK    5  A    between atoms: C_16  and  C_17
REMARK                            x       y       z     vdW  Elec       q    Type
REMARK                         _______ _______ _______ _____ _____    ______ ____
ROOT
ATOM      1  C   UNL     1      43.498   6.622  11.492  0.00  0.00    +0.000 C 
ENDROOT
BRANCH   1   2
ATOM      2  C   UNL     1      43.706   5.186  11.097  0.00  0.00    +0.000 A 
ATOM      3  C   UNL     1      43.099   4.158  11.809  0.00  0.00    +0.000 A 
ATOM      4  N   UNL     1      43.231   2.850  11.501  0.00  0.00    +0.000 NA
ATOM      5  C   UNL     1      44.019   2.551  10.441  0.00  0.00    +0.000 A 
ATOM      6  C   UNL     1      44.694   3.483   9.651  0.00  0.00    +0.000 A 
ATOM      7  C   UNL     1      44.528   4.827  10.019  0.00  0.00    +0.000 A 
BRANCH   6   8
ATOM      8  C   UNL     1      45.538   3.085   8.513  0.00  0.00    +0.000 A 
ATOM      9  C   UNL     1      46.042   1.789   8.360  0.00  0.00    +0.000 A 
ATOM     10  C   UNL     1      46.865   1.493   7.272  0.00  0.00    +0.000 A 
ATOM     11  C   UNL     1      47.165   2.492   6.360  0.00  0.00    +0.000 A 
ATOM     12 CL   UNL     1      48.188   2.177   5.019  0.00  0.00    +0.000 Cl
ATOM     13  C   UNL     1      46.617   3.747   6.563  0.00  0.00    +0.000 A 
ATOM     14  N   UNL     1      45.811   4.062   7.608  0.00  0.00    +0.000 NA
ENDBRANCH   6   8
ENDBRANCH   1   2
BRANCH   1  15
ATOM     15  N   UNL     1      44.239   6.898  12.715  0.00  0.00    +0.000 N 
ATOM     16  H   UNL     1      44.495   6.043  13.202  0.00  0.00    +0.000 HD
BRANCH  15  21
ATOM     17  C   UNL     1      47.661   8.024  12.295  0.00  0.00    +0.000 A 
ATOM     18  C   UNL     1      47.457   9.383  12.105  0.00  0.00    +0.000 A 
ATOM     19  N   UNL     1      46.229   9.946  12.120  0.00  0.00    +0.000 NA
ATOM     20  C   UNL     1      45.204   9.083  12.328  0.00  0.00    +0.000 A 
ATOM     21  C   UNL     1      45.368   7.713  12.545  0.00  0.00    +0.000 A 
ATOM     22  N   UNL     1      46.607   7.177  12.520  0.00  0.00    +0.000 NA
BRANCH  17  24
ATOM     23  F   UNL     1      49.643   7.567  11.008  0.00  0.00    +0.000 F 
ATOM     24  C   UNL     1      49.069   7.477  12.246  0.00  0.00    +0.000 C 
ATOM     25  F   UNL     1      49.144   6.158  12.582  0.00  0.00    +0.000 F 
ATOM     26  F   UNL     1      49.925   8.127  13.085  0.00  0.00    +0.000 F 
ENDBRANCH  17  24
ENDBRANCH  15  21
ENDBRANCH   1  15
TORSDOF 5
ENDMDL
MODEL 5
REMARK VINA RESULT:    -7.347      5.325      8.512
REMARK INTER + INTRA:         -10.180
REMARK INTER:                  -9.684
REMARK INTRA:                  -0.496
REMARK UNBOUND:                -0.685
REMARK  Name = 
REMARK  5 active torsions:
REMARK  status: ('A' for Active; 'I' for Inactive)
REMARK    1  A    between atoms: C_2  and  C_5
REMARK    2  A    between atoms: C_9  and  N_10
REMARK    3  A    between atoms: N_10  and  C_11
REMARK    4  A    between atoms: C_11  and  C_12
REMARK    5  A    between atoms: C_16  and  C_17
REMARK                            x       y       z     vdW  Elec       q    Type
REMARK                         _______ _______ _______ _____ _____    ______ ____
ROOT
ATOM      1  C   UNL     1      45.019   5.700  13.076  0.00  0.00    +0.000 C 
ENDROOT
BRANCH   1   2
ATOM      2  C   UNL     1      44.603   4.598  12.142  0.00  0.00    +0.000 A 
ATOM      3  C   UNL     1      43.506   3.795  12.433  0.00  0.00    +0.000 A 
ATOM      4  N   UNL     1      43.069   2.798  11.633  0.00  0.00    +0.000 NA
ATOM      5  C   UNL     1      43.769   2.582  10.493  0.00  0.00    +0.000 A 
ATOM      6  C   UNL     1      44.892   3.305  10.089  0.00  0.00    +0.000 A 
ATOM      7  C   UNL     1      45.307   4.325  10.960  0.00  0.00    +0.000 A 
BRANCH   6   8
ATOM      8  C   UNL     1      45.606   3.013   8.835  0.00  0.00    +0.000 A 
ATOM      9  C   UNL     1      46.021   1.725   8.483  0.00  0.00    +0.000 A 
ATOM     10  C   UNL     1      46.725   1.528   7.293  0.00  0.00    +0.000 A 
ATOM     11  C   UNL     1      46.996   2.617   6.481  0.00  0.00    +0.000 A 
ATOM     12 CL   UNL     1      47.875   2.424   5.020  0.00  0.00    +0.000 Cl
ATOM     13  C   UNL     1      46.539   3.861   6.882  0.00  0.00    +0.000 A 
ATOM     14  N   UNL     1      45.849   4.080   8.030  0.00  0.00    +0.000 NA
ENDBRANCH   6   8
ENDBRANCH   1   2
BRANCH   1  15
ATOM     15  N   UNL     1      46.473   5.755  13.139  0.00  0.00    +0.000 N 
ATOM     16  H   UNL     1      46.815   6.713  13.141  0.00  0.00    +0.000 HD
BRANCH  15  21
ATOM     17  C   UNL     1      47.903   4.893  16.359  0.00  0.00    +0.000 A 
ATOM     18  C   UNL     1      48.031   3.519  16.218  0.00  0.00    +0.000 A 
ATOM     19  N   UNL     1      47.670   2.865  15.092  0.00  0.00    +0.000 NA
ATOM     20  C   UNL     1      47.166   3.648  14.107  0.00  0.00    +0.000 A 
ATOM     21  C   UNL     1      47.041   5.036  14.201  0.00  0.00    +0.000 A 
ATOM     22  N   UNL     1      47.405   5.664  15.340  0.00  0.00    +0.000 NA
BRANCH  17  24
ATOM     23  F   UNL     1      49.406   4.950  18.237  0.00  0.00    +0.000 F 
ATOM     24  C   UNL     1      48.316   5.541  17.660  0.00  0.00    +0.000 C 
ATOM     25  F   UNL     1      47.341   5.503  18.612  0.00  0.00    +0.000 F 
ATOM     26  F   UNL     1      48.653   6.855  17.520  0.00  0.00    +0.000 F 
ENDBRANCH  17  24
ENDBRANCH  15  21
ENDBRANCH   1  15
TORSDOF 5
ENDMDL
MODEL 6
REMARK VINA RESULT:    -7.192      1.295      1.772
REMARK INTER + INTRA:          -9.980
REMARK INTER:                  -9.358
REMARK INTRA:                  -0.622
REMARK UNBOUND:                -0.685
REMARK  Name = 
REMARK  5 active torsions:
REMARK  status: ('A' for Active; 'I' for Inactive)
REMARK    1  A    between atoms: C_2  and  C_5
REMARK    2  A    between atoms: C_9  and  N_10
REMARK    3  A    between atoms: N_10  and  C_11
REMARK    4  A    between atoms: C_11  and  C_12
REMARK    5  A    between atoms: C_16  and  C_17
REMARK                            x       y       z     vdW  Elec       q    Type
REMARK                         _______ _______ _______ _____ _____    ______ ____
ROOT
ATOM      1  C   UNL     1      45.026   7.108  11.383  0.00  0.00    +0.000 C 
ENDROOT
BRANCH   1   2
ATOM      2  C   UNL     1      46.364   6.985  12.059  0.00  0.00    +0.000 A 
ATOM      3  C   UNL     1      47.501   7.550  11.492  0.00  0.00    +0.000 A 
ATOM      4  N   UNL     1      48.729   7.490  12.051  0.00  0.00    +0.000 NA
ATOM      5  C   UNL     1      48.831   6.823  13.226  0.00  0.00    +0.000 A 
ATOM      6  C   UNL     1      47.775   6.202  13.893  0.00  0.00    +0.000 A 
ATOM      7  C   UNL     1      46.522   6.289  13.266  0.00  0.00    +0.000 A 
BRANCH   6   8
ATOM      8  C   UNL     1      47.960   5.490  15.168  0.00  0.00    +0.000 A 
ATOM      9  C   UNL     1      47.160   4.411  15.556  0.00  0.00    +0.000 A 
ATOM     10  C   UNL     1      47.371   3.806  16.797  0.00  0.00    +0.000 A 
ATOM     11  C   UNL     1      48.376   4.288  17.621  0.00  0.00    +0.000 A 
ATOM     12 CL   UNL     1      48.657   3.587  19.161  0.00  0.00    +0.000 Cl
ATOM     13  C   UNL     1      49.142   5.347  17.166  0.00  0.00    +0.000 A 
ATOM     14  N   UNL     1      48.962   5.951  15.963  0.00  0.00    +0.000 NA
ENDBRANCH   6   8
ENDBRANCH   1   2
BRANCH   1  15
ATOM     15  N   UNL     1      44.134   6.076  11.892  0.00  0.00    +0.000 N 
ATOM     16  H   UNL     1      43.179   6.414  11.987  0.00  0.00    +0.000 HD
BRANCH  15  21
ATOM     17  C   UNL     1      44.901   3.548   9.406  0.00  0.00    +0.000 A 
ATOM     18  C   UNL     1      44.181   2.473   9.909  0.00  0.00    +0.000 A 
ATOM     19  N   UNL     1      43.442   2.555  11.037  0.00  0.00    +0.000 NA
ATOM     20  C   UNL     1      43.458   3.764  11.650  0.00  0.00    +0.000 A 
ATOM     21  C   UNL     1      44.151   4.876  11.165  0.00  0.00    +0.000 A 
ATOM     22  N   UNL     1      44.886   4.765  10.038  0.00  0.00    +0.000 NA
BRANCH  17  24
ATOM     23  F   UNL     1      46.588   4.389   7.910  0.00  0.00    +0.000 F 
ATOM     24  C   UNL     1      45.715   3.363   8.146  0.00  0.00    +0.000 C 
ATOM     25  F   UNL     1      44.949   3.277   7.022  0.00  0.00    +0.000 F 
ATOM     26  F   UNL     1      46.482   2.236   8.166  0.00  0.00    +0.000 F 
ENDBRANCH  17  24
ENDBRANCH  15  21
ENDBRANCH   1  15
TORSDOF 5
ENDMDL
MODEL 7
REMARK VINA RESULT:    -6.828      4.378      7.992
REMARK INTER + INTRA:          -9.509
REMARK INTER:                  -8.771
REMARK INTRA:                  -0.738
REMARK UNBOUND:                -0.685
REMARK  Name = 
REMARK  5 active torsions:
REMARK  status: ('A' for Active; 'I' for Inactive)
REMARK    1  A    between atoms: C_2  and  C_5
REMARK    2  A    between atoms: C_9  and  N_10
REMARK    3  A    between atoms: N_10  and  C_11
REMARK    4  A    between atoms: C_11  and  C_12
REMARK    5  A    between atoms: C_16  and  C_17
REMARK                            x       y       z     vdW  Elec       q    Type
REMARK                         _______ _______ _______ _____ _____    ______ ____
ROOT
ATOM      1  C   UNL     1      48.879   7.553  14.516  0.00  0.00    +0.000 C 
ENDROOT
BRANCH   1   2
ATOM      2  C   UNL     1      47.637   7.575  13.668  0.00  0.00    +0.000 A 
ATOM      3  C   UNL     1      46.804   8.688  13.656  0.00  0.00    +0.000 A 
ATOM      4  N   UNL     1      45.683   8.781  12.909  0.00  0.00    +0.000 NA
ATOM      5  C   UNL     1      45.370   7.706  12.146  0.00  0.00    +0.000 A 
ATOM      6  C   UNL     1      46.110   6.525  12.075  0.00  0.00    +0.000 A 
ATOM      7  C   UNL     1      47.262   6.480  12.877  0.00  0.00    +0.000 A 
BRANCH   6   8
ATOM      8  C   UNL     1      45.708   5.394  11.225  0.00  0.00    +0.000 A 
ATOM      9  C   UNL     1      45.701   5.462   9.827  0.00  0.00    +0.000 A 
ATOM     10  C   UNL     1      45.273   4.359   9.085  0.00  0.00    +0.000 A 
ATOM     11  C   UNL     1      44.866   3.214   9.751  0.00  0.00    +0.000 A 
ATOM     12 CL   UNL     1      44.314   1.843   8.879  0.00  0.00    +0.000 Cl
ATOM     13  C   UNL     1      44.916   3.210  11.134  0.00  0.00    +0.000 A 
ATOM     14  N   UNL     1      45.331   4.265  11.880  0.00  0.00    +0.000 NA
ENDBRANCH   6   8
ENDBRANCH   1   2
BRANCH   1  15
ATOM     15  N   UNL     1      48.510   7.727  15.914  0.00  0.00    +0.000 N 
ATOM     16  H   UNL     1      47.556   8.066  16.014  0.00  0.00    +0.000 HD
BRANCH  15  21
ATOM     17  C   UNL     1      48.593   4.301  17.102  0.00  0.00    +0.000 A 
ATOM     18  C   UNL     1      49.239   4.472  18.318  0.00  0.00    +0.000 A 
ATOM     19  N   UNL     1      49.641   5.681  18.767  0.00  0.00    +0.000 NA
ATOM     20  C   UNL     1      49.374   6.721  17.938  0.00  0.00    +0.000 A 
ATOM     21  C   UNL     1      48.707   6.594  16.717  0.00  0.00    +0.000 A 
ATOM     22  N   UNL     1      48.321   5.373  16.291  0.00  0.00    +0.000 NA
BRANCH  17  24
ATOM     23  F   UNL     1      49.221   2.010  16.719  0.00  0.00    +0.000 F 
ATOM     24  C   UNL     1      48.193   2.909  16.671  0.00  0.00    +0.000 C 
ATOM     25  F   UNL     1      47.730   2.858  15.389  0.00  0.00    +0.000 F 
ATOM     26  F   UNL     1      47.209   2.371  17.447  0.00  0.00    +0.000 F 
ENDBRANCH  17  24
ENDBRANCH  15  21
ENDBRANCH   1  15
TORSDOF 5
ENDMDL
MODEL 8
REMARK VINA RESULT:    -6.821      3.367      3.869
REMARK INTER + INTRA:          -9.500
REMARK INTER:                  -8.973
REMARK INTRA:                  -0.527
REMARK UNBOUND:                -0.685
REMARK  Name = 
REMARK  5 active torsions:
REMARK  status: ('A' for Active; 'I' for Inactive)
REMARK    1  A    between atoms: C_2  and  C_5
REMARK    2  A    between atoms: C_9  and  N_10
REMARK    3  A    between atoms: N_10  and  C_11
REMARK    4  A    between atoms: C_11  and  C_12
REMARK    5  A    between atoms: C_16  and  C_17
REMARK                            x       y       z     vdW  Elec       q    Type
REMARK                         _______ _______ _______ _____ _____    ______ ____
ROOT
ATOM      1  C   UNL     1      45.222   5.768  11.272  0.00  0.00    +0.000 C 
ENDROOT
BRANCH   1   2
ATOM      2  C   UNL     1      45.920   7.039  11.670  0.00  0.00    +0.000 A 
ATOM      3  C   UNL     1      45.204   8.218  11.843  0.00  0.00    +0.000 A 
ATOM      4  N   UNL     1      45.764   9.390  12.213  0.00  0.00    +0.000 NA
ATOM      5  C   UNL     1      47.106   9.390  12.405  0.00  0.00    +0.000 A 
ATOM      6  C   UNL     1      47.941   8.283  12.252  0.00  0.00    +0.000 A 
ATOM      7  C   UNL     1      47.308   7.092  11.861  0.00  0.00    +0.000 A 
BRANCH   6   8
ATOM      8  C   UNL     1      49.393   8.357  12.475  0.00  0.00    +0.000 A 
ATOM      9  C   UNL     1      49.965   8.340  13.752  0.00  0.00    +0.000 A 
ATOM     10  C   UNL     1      51.351   8.449  13.889  0.00  0.00    +0.000 A 
ATOM     11  C   UNL     1      52.134   8.568  12.752  0.00  0.00    +0.000 A 
ATOM     12 CL   UNL     1      53.838   8.724  12.875  0.00  0.00    +0.000 Cl
ATOM     13  C   UNL     1      51.504   8.559  11.520  0.00  0.00    +0.000 A 
ATOM     14  N   UNL     1      50.160   8.450  11.357  0.00  0.00    +0.000 NA
ENDBRANCH   6   8
ENDBRANCH   1   2
BRANCH   1  15
ATOM     15  N   UNL     1      45.120   5.708   9.820  0.00  0.00    +0.000 N 
ATOM     16  H   UNL     1      45.794   6.322   9.369  0.00  0.00    +0.000 HD
BRANCH  15  21
ATOM     17  C   UNL     1      46.097   2.865   7.790  0.00  0.00    +0.000 A 
ATOM     18  C   UNL     1      45.357   1.859   8.394  0.00  0.00    +0.000 A 
ATOM     19  N   UNL     1      44.538   2.086   9.444  0.00  0.00    +0.000 NA
ATOM     20  C   UNL     1      44.494   3.371   9.872  0.00  0.00    +0.000 A 
ATOM     21  C   UNL     1      45.205   4.417   9.279  0.00  0.00    +0.000 A 
ATOM     22  N   UNL     1      46.021   4.161   8.234  0.00  0.00    +0.000 NA
BRANCH  17  24
ATOM     23  F   UNL     1      47.044   1.180   6.357  0.00  0.00    +0.000 F 
ATOM     24  C   UNL     1      47.002   2.519   6.630  0.00  0.00    +0.000 C 
ATOM     25  F   UNL     1      48.299   2.886   6.834  0.00  0.00    +0.000 F 
ATOM     26  F   UNL     1      46.623   3.111   5.461  0.00  0.00    +0.000 F 
ENDBRANCH  17  24
ENDBRANCH  15  21
ENDBRANCH   1  15
TORSDOF 5
ENDMDL
MODEL 9
REMARK VINA RESULT:    -6.297      3.999      5.333
REMARK INTER + INTRA:          -8.823
REMARK INTER:                  -8.175
REMARK INTRA:                  -0.648
REMARK UNBOUND:                -0.685
REMARK  Name = 
REMARK  5 active torsions:
REMARK  status: ('A' for Active; 'I' for Inactive)
REMARK    1  A    between atoms: C_2  and  C_5
REMARK    2  A    between atoms: C_9  and  N_10
REMARK    3  A    between atoms: N_10  and  C_11
REMARK    4  A    between atoms: C_11  and  C_12
REMARK    5  A    between atoms: C_16  and  C_17
REMARK                            x       y       z     vdW  Elec       q    Type
REMARK                         _______ _______ _______ _____ _____    ______ ____
ROOT
ATOM      1  C   UNL     1      47.105   5.879  13.428  0.00  0.00    +0.000 C 
ENDROOT
BRANCH   1   2
ATOM      2  C   UNL     1      47.801   7.054  12.797  0.00  0.00    +0.000 A 
ATOM      3  C   UNL     1      47.120   8.244  12.570  0.00  0.00    +0.000 A 
ATOM      4  N   UNL     1      47.685   9.341  12.021  0.00  0.00    +0.000 NA
ATOM      5  C   UNL     1      48.990   9.241  11.669  0.00  0.00    +0.000 A 
ATOM      6  C   UNL     1      49.783   8.105  11.830  0.00  0.00    +0.000 A 
ATOM      7  C   UNL     1      49.144   6.991  12.398  0.00  0.00    +0.000 A 
BRANCH   6   8
ATOM      8  C   UNL     1      51.196   8.067  11.420  0.00  0.00    +0.000 A 
ATOM      9  C   UNL     1      51.647   7.324  10.323  0.00  0.00    +0.000 A 
ATOM     10  C   UNL     1      53.008   7.307  10.014  0.00  0.00    +0.000 A 
ATOM     11  C   UNL     1      53.888   8.032  10.802  0.00  0.00    +0.000 A 
ATOM     12 CL   UNL     1      55.572   8.024  10.470  0.00  0.00    +0.000 Cl
ATOM     13  C   UNL     1      53.371   8.759  11.860  0.00  0.00    +0.000 A 
ATOM     14  N   UNL     1      52.053   8.797  12.181  0.00  0.00    +0.000 NA
ENDBRANCH   6   8
ENDBRANCH   1   2
BRANCH   1  15
ATOM     15  N   UNL     1      45.664   6.058  13.321  0.00  0.00    +0.000 N 
ATOM     16  H   UNL     1      45.418   7.019  13.098  0.00  0.00    +0.000 HD
BRANCH  15  21
ATOM     17  C   UNL     1      44.812   4.159  10.350  0.00  0.00    +0.000 A 
ATOM     18  C   UNL     1      43.787   3.365  10.844  0.00  0.00    +0.000 A 
ATOM     19  N   UNL     1      43.359   3.439  12.124  0.00  0.00    +0.000 NA
ATOM     20  C   UNL     1      44.008   4.345  12.896  0.00  0.00    +0.000 A 
ATOM     21  C   UNL     1      45.029   5.178  12.432  0.00  0.00    +0.000 A 
ATOM     22  N   UNL     1      45.440   5.079  11.150  0.00  0.00    +0.000 NA
BRANCH  17  24
ATOM     23  F   UNL     1      45.799   2.779   8.643  0.00  0.00    +0.000 F 
ATOM     24  C   UNL     1      45.238   3.998   8.909  0.00  0.00    +0.000 C 
ATOM     25  F   UNL     1      46.169   4.914   8.520  0.00  0.00    +0.000 F 
ATOM     26  F   UNL     1      44.204   4.117   8.029  0.00  0.00    +0.000 F 
ENDBRANCH  17  24
ENDBRANCH  15  21
ENDBRANCH   1  15
TORSDOF 5
ENDMDL
