MODEL 1
REMARK VINA RESULT:    -8.969      0.000      0.000
REMARK INTER + INTRA:         -12.132
REMARK INTER:                 -11.066
REMARK INTRA:                  -1.066
REMARK UNBOUND:                -1.066
REMARK  Name = 
REMARK  4 active torsions:
REMARK  status: ('A' for Active; 'I' for Inactive)
REMARK    1  A    between atoms: C_2  and  C_4
REMARK    2  A    between atoms: N_8  and  C_9
REMARK    3  A    between atoms: C_9  and  C_10
REMARK    4  A    between atoms: C_15  and  C_16
REMARK                            x       y       z     vdW  Elec       q    Type
REMARK                         _______ _______ _______ _____ _____    ______ ____
ROOT
ATOM      1  C   UNL     1      43.824   4.929  11.393  0.00  0.00    +0.000 C 
ATOM      2  C   UNL     1      42.496   5.142  12.111  0.00  0.00    +0.000 C 
ATOM      3  C   UNL     1      42.898   6.069  11.015  0.00  0.00    +0.000 C 
ENDROOT
BRANCH   1   8
ATOM      4  C   UNL     1      46.573   2.804   7.500  0.00  0.00    +0.000 A 
ATOM      5  C   UNL     1      46.223   4.136   7.699  0.00  0.00    +0.000 A 
ATOM      6  C   UNL     1      45.370   4.470   8.755  0.00  0.00    +0.000 A 
ATOM      7  C   UNL     1      44.876   3.472   9.587  0.00  0.00    +0.000 A 
ATOM      8  N   UNL     1      43.923   3.703  10.584  0.00  0.00    +0.000 N 
ATOM      9  N   UNL     1      45.222   2.179   9.412  0.00  0.00    +0.000 NA
ATOM     10  C   UNL     1      46.052   1.870   8.379  0.00  0.00    +0.000 A 
ATOM     11  H   UNL     1      43.812   2.818  11.077  0.00  0.00    +0.000 HD
BRANCH   4  13
ATOM     12  N   UNL     1      47.300   3.009   5.187  0.00  0.00    +0.000 N 
ATOM     13  C   UNL     1      47.418   2.346   6.378  0.00  0.00    +0.000 C 
ATOM     14  O   UNL     1      48.205   1.419   6.507  0.00  0.00    +0.000 OA
ATOM     15  H   UNL     1      47.928   2.723   4.446  0.00  0.00    +0.000 HD
ATOM     16  H   UNL     1      46.835   3.899   5.089  0.00  0.00    +0.000 HD
ENDBRANCH   4  13
ENDBRANCH   1   8
BRANCH   1  17
ATOM     17  C   UNL     1      45.093   5.231  12.186  0.00  0.00    +0.000 A 
ATOM     18  C   UNL     1      45.544   4.371  13.201  0.00  0.00    +0.000 A 
ATOM     19  C   UNL     1      46.732   4.619  13.882  0.00  0.00    +0.000 A 
ATOM     20  C   UNL     1      47.504   5.728  13.547  0.00  0.00    +0.000 A 
ATOM     21  F   UNL     1      48.660   5.894  14.206  0.00  0.00    +0.000 F 
ATOM     22  C   UNL     1      47.109   6.635  12.550  0.00  0.00    +0.000 A 
ATOM     23  C   UNL     1      45.887   6.360  11.896  0.00  0.00    +0.000 A 
BRANCH  22  24
ATOM     24  C   UNL     1      47.922   7.818  12.183  0.00  0.00    +0.000 A 
ATOM     25  C   UNL     1      49.258   7.703  11.763  0.00  0.00    +0.000 A 
ATOM     26  C   UNL     1      49.995   8.828  11.396  0.00  0.00    +0.000 A 
ATOM     27  C   UNL     1      49.384  10.065  11.470  0.00  0.00    +0.000 A 
ATOM     28  N   UNL     1      48.112  10.240  11.874  0.00  0.00    +0.000 NA
ATOM     29  C   UNL     1      47.420   9.123  12.220  0.00  0.00    +0.000 A 
ENDBRANCH  22  24
ENDBRANCH   1  17
TORSDOF 4
ENDMDL
MODEL 2
REMARK VINA RESULT:    -8.895      2.092      3.655
REMARK INTER + INTRA:         -12.041
REMARK INTER:                 -11.213
REMARK INTRA:                  -0.828
REMARK UNBOUND:                -1.066
REMARK  Name = 
REMARK  4 active torsions:
REMARK  status: ('A' for Active; 'I' for Inactive)
REMARK    1  A    between atoms: C_2  and  C_4
REMARK    2  A    between atoms: N_8  and  C_9
REMARK    3  A    between atoms: C_9  and  C_10
REMARK    4  A    between atoms: C_15  and  C_16
REMARK                            x       y       z     vdW  Elec       q    Type
REMARK                         _______ _______ _______ _____ _____    ______ ____
ROOT
ATOM      1  C   UNL     1      43.914   4.855  11.543  0.00  0.00    +0.000 C 
ATOM      2  C   UNL     1      42.667   4.986  12.413  0.00  0.00    +0.000 C 
ATOM      3  C   UNL     1      42.881   5.936  11.286  0.00  0.00    +0.000 C 
ENDROOT
BRANCH   1   8
ATOM      4  C   UNL     1      46.515   2.802   7.514  0.00  0.00    +0.000 A 
ATOM      5  C   UNL     1      46.158   4.127   7.741  0.00  0.00    +0.000 A 
ATOM      6  C   UNL     1      45.348   4.441   8.836  0.00  0.00    +0.000 A 
ATOM      7  C   UNL     1      44.903   3.428   9.679  0.00  0.00    +0.000 A 
ATOM      8  N   UNL     1      43.992   3.639  10.719  0.00  0.00    +0.000 N 
ATOM      9  N   UNL     1      45.257   2.142   9.476  0.00  0.00    +0.000 NA
ATOM     10  C   UNL     1      46.044   1.853   8.405  0.00  0.00    +0.000 A 
ATOM     11  H   UNL     1      43.913   2.748  11.208  0.00  0.00    +0.000 HD
BRANCH   4  13
ATOM     12  N   UNL     1      47.157   3.054   5.180  0.00  0.00    +0.000 N 
ATOM     13  C   UNL     1      47.316   2.365   6.351  0.00  0.00    +0.000 C 
ATOM     14  O   UNL     1      48.102   1.432   6.431  0.00  0.00    +0.000 OA
ATOM     15  H   UNL     1      47.756   2.782   4.410  0.00  0.00    +0.000 HD
ATOM     16  H   UNL     1      46.693   3.948   5.119  0.00  0.00    +0.000 HD
ENDBRANCH   4  13
ENDBRANCH   1   8
BRANCH   1  17
ATOM     17  C   UNL     1      45.245   5.235  12.186  0.00  0.00    +0.000 A 
ATOM     18  C   UNL     1      46.047   6.259  11.657  0.00  0.00    +0.000 A 
ATOM     19  C   UNL     1      47.232   6.642  12.279  0.00  0.00    +0.000 A 
ATOM     20  C   UNL     1      47.629   6.017  13.458  0.00  0.00    +0.000 A 
ATOM     21  F   UNL     1      48.755   6.456  14.038  0.00  0.00    +0.000 F 
ATOM     22  C   UNL     1      46.880   4.980  14.038  0.00  0.00    +0.000 A 
ATOM     23  C   UNL     1      45.695   4.605  13.365  0.00  0.00    +0.000 A 
BRANCH  22  24
ATOM     24  C   UNL     1      47.290   4.309  15.294  0.00  0.00    +0.000 A 
ATOM     25  C   UNL     1      47.876   3.032  15.300  0.00  0.00    +0.000 A 
ATOM     26  C   UNL     1      48.279   2.431  16.492  0.00  0.00    +0.000 A 
ATOM     27  C   UNL     1      48.074   3.118  17.673  0.00  0.00    +0.000 A 
ATOM     28  N   UNL     1      47.510   4.338  17.733  0.00  0.00    +0.000 NA
ATOM     29  C   UNL     1      47.133   4.897  16.553  0.00  0.00    +0.000 A 
ENDBRANCH  22  24
ENDBRANCH   1  17
TORSDOF 4
ENDMDL
MODEL 3
REMARK VINA RESULT:    -7.090      3.775      7.451
REMARK INTER + INTRA:          -9.814
REMARK INTER:                  -9.696
REMARK INTRA:                  -0.118
REMARK UNBOUND:                -1.066
REMARK  Name = 
REMARK  4 active torsions:
REMARK  status: ('A' for Active; 'I' for Inactive)
REMARK    1  A    between atoms: C_2  and  C_4
REMARK    2  A    between atoms: N_8  and  C_9
REMARK    3  A    between atoms: C_9  and  C_10
REMARK    4  A    between atoms: C_15  and  C_16
REMARK                            x       y       z     vdW  Elec       q    Type
REMARK                         _______ _______ _______ _____ _____    ______ ____
ROOT
ATOM      1  C   UNL     1      48.390   7.780  12.713  0.00  0.00    +0.000 C 
ATOM      2  C   UNL     1      49.507   7.237  11.828  0.00  0.00    +0.000 C 
ATOM      3  C   UNL     1      49.247   8.704  11.870  0.00  0.00    +0.000 C 
ENDROOT
BRANCH   1   8
ATOM      4  C   UNL     1      47.933   4.307  16.581  0.00  0.00    +0.000 A 
ATOM      5  C   UNL     1      47.140   4.466  15.449  0.00  0.00    +0.000 A 
ATOM      6  C   UNL     1      47.371   5.550  14.597  0.00  0.00    +0.000 A 
ATOM      7  C   UNL     1      48.382   6.458  14.891  0.00  0.00    +0.000 A 
ATOM      8  N   UNL     1      48.596   7.632  14.163  0.00  0.00    +0.000 N 
ATOM      9  N   UNL     1      49.166   6.303  15.978  0.00  0.00    +0.000 NA
ATOM     10  C   UNL     1      48.928   5.245  16.799  0.00  0.00    +0.000 A 
ATOM     11  H   UNL     1      49.439   8.053  14.551  0.00  0.00    +0.000 HD
BRANCH   4  13
ATOM     12  N   UNL     1      48.772   2.930  18.402  0.00  0.00    +0.000 N 
ATOM     13  C   UNL     1      47.727   3.230  17.572  0.00  0.00    +0.000 C 
ATOM     14  O   UNL     1      46.662   2.637  17.660  0.00  0.00    +0.000 OA
ATOM     15  H   UNL     1      48.596   2.232  19.115  0.00  0.00    +0.000 HD
ATOM     16  H   UNL     1      49.582   3.521  18.515  0.00  0.00    +0.000 HD
ENDBRANCH   4  13
ENDBRANCH   1   8
BRANCH   1  17
ATOM     17  C   UNL     1      46.958   7.484  12.275  0.00  0.00    +0.000 A 
ATOM     18  C   UNL     1      45.908   8.373  12.556  0.00  0.00    +0.000 A 
ATOM     19  C   UNL     1      44.615   8.129  12.103  0.00  0.00    +0.000 A 
ATOM     20  C   UNL     1      44.350   6.994  11.341  0.00  0.00    +0.000 A 
ATOM     21  F   UNL     1      43.096   6.832  10.895  0.00  0.00    +0.000 F 
ATOM     22  C   UNL     1      45.349   6.059  11.030  0.00  0.00    +0.000 A 
ATOM     23  C   UNL     1      46.645   6.331  11.525  0.00  0.00    +0.000 A 
BRANCH  22  24
ATOM     24  C   UNL     1      45.081   4.849  10.218  0.00  0.00    +0.000 A 
ATOM     25  C   UNL     1      45.578   4.702   8.911  0.00  0.00    +0.000 A 
ATOM     26  C   UNL     1      45.336   3.542   8.177  0.00  0.00    +0.000 A 
ATOM     27  C   UNL     1      44.581   2.543   8.760  0.00  0.00    +0.000 A 
ATOM     28  N   UNL     1      44.070   2.629  10.002  0.00  0.00    +0.000 NA
ATOM     29  C   UNL     1      44.329   3.769  10.692  0.00  0.00    +0.000 A 
ENDBRANCH  22  24
ENDBRANCH   1  17
TORSDOF 4
ENDMDL
MODEL 4
REMARK VINA RESULT:    -6.970      4.452      8.220
REMARK INTER + INTRA:          -9.666
REMARK INTER:                  -8.622
REMARK INTRA:                  -1.044
REMARK UNBOUND:                -1.066
REMARK  Name = 
REMARK  4 active torsions:
REMARK  status: ('A' for Active; 'I' for Inactive)
REMARK    1  A    between atoms: C_2  and  C_4
REMARK    2  A    between atoms: N_8  and  C_9
REMARK    3  A    between atoms: C_9  and  C_10
REMARK    4  A    between atoms: C_15  and  C_16
REMARK                            x       y       z     vdW  Elec       q    Type
REMARK                         _______ _______ _______ _____ _____    ______ ____
ROOT
ATOM      1  C   UNL     1      49.055   7.920  12.793  0.00  0.00    +0.000 C 
ATOM      2  C   UNL     1      50.010   8.170  11.630  0.00  0.00    +0.000 C 
ATOM      3  C   UNL     1      49.701   9.276  12.580  0.00  0.00    +0.000 C 
ENDROOT
BRANCH   1   8
ATOM      4  C   UNL     1      48.493   6.749  17.846  0.00  0.00    +0.000 A 
ATOM      5  C   UNL     1      48.448   7.993  17.226  0.00  0.00    +0.000 A 
ATOM      6  C   UNL     1      48.750   8.092  15.864  0.00  0.00    +0.000 A 
ATOM      7  C   UNL     1      49.097   6.952  15.149  0.00  0.00    +0.000 A 
ATOM      8  N   UNL     1      49.533   6.981  13.820  0.00  0.00    +0.000 N 
ATOM      9  N   UNL     1      49.128   5.738  15.738  0.00  0.00    +0.000 NA
ATOM     10  C   UNL     1      48.834   5.658  17.063  0.00  0.00    +0.000 A 
ATOM     11  H   UNL     1      49.638   6.007  13.538  0.00  0.00    +0.000 HD
BRANCH   4  13
ATOM     12  N   UNL     1      47.207   5.743  19.650  0.00  0.00    +0.000 N 
ATOM     13  C   UNL     1      48.250   6.552  19.290  0.00  0.00    +0.000 C 
ATOM     14  O   UNL     1      48.959   7.079  20.135  0.00  0.00    +0.000 OA
ATOM     15  H   UNL     1      47.091   5.570  20.641  0.00  0.00    +0.000 HD
ATOM     16  H   UNL     1      46.735   5.125  19.008  0.00  0.00    +0.000 HD
ENDBRANCH   4  13
ENDBRANCH   1   8
BRANCH   1  17
ATOM     17  C   UNL     1      47.580   7.735  12.445  0.00  0.00    +0.000 A 
ATOM     18  C   UNL     1      46.621   8.703  12.787  0.00  0.00    +0.000 A 
ATOM     19  C   UNL     1      45.287   8.559  12.417  0.00  0.00    +0.000 A 
ATOM     20  C   UNL     1      44.889   7.447  11.679  0.00  0.00    +0.000 A 
ATOM     21  F   UNL     1      43.601   7.382  11.312  0.00  0.00    +0.000 F 
ATOM     22  C   UNL     1      45.792   6.438  11.310  0.00  0.00    +0.000 A 
ATOM     23  C   UNL     1      47.133   6.610  11.723  0.00  0.00    +0.000 A 
BRANCH  22  24
ATOM     24  C   UNL     1      45.382   5.252  10.523  0.00  0.00    +0.000 A 
ATOM     25  C   UNL     1      45.693   5.117   9.160  0.00  0.00    +0.000 A 
ATOM     26  C   UNL     1      45.321   3.979   8.446  0.00  0.00    +0.000 A 
ATOM     27  C   UNL     1      44.622   2.989   9.110  0.00  0.00    +0.000 A 
ATOM     28  N   UNL     1      44.287   3.064  10.410  0.00  0.00    +0.000 NA
ATOM     29  C   UNL     1      44.669   4.184  11.078  0.00  0.00    +0.000 A 
ENDBRANCH  22  24
ENDBRANCH   1  17
TORSDOF 4
ENDMDL
MODEL 5
REMARK VINA RESULT:    -6.574      3.340      7.047
REMARK INTER + INTRA:          -9.177
REMARK INTER:                  -8.987
REMARK INTRA:                  -0.190
REMARK UNBOUND:                -1.066
REMARK  Name = 
REMARK  4 active torsions:
REMARK  status: ('A' for Active; 'I' for Inactive)
REMARK    1  A    between atoms: C_2  and  C_4
REMARK    2  A    between atoms: N_8  and  C_9
REMARK    3  A    between atoms: C_9  and  C_10
REMARK    4  A    between atoms: C_15  and  C_16
REMARK                            x       y       z     vdW  Elec       q    Type
REMARK                         _______ _______ _______ _____ _____    ______ ____
ROOT
ATOM      1  C   UNL     1      44.669   5.651  11.493  0.00  0.00    +0.000 C 
ATOM      2  C   UNL     1      43.323   6.342  11.690  0.00  0.00    +0.000 C 
ATOM      3  C   UNL     1      44.045   5.785  12.869  0.00  0.00    +0.000 C 
ENDROOT
BRANCH   1   8
ATOM      4  C   UNL     1      49.008   7.967  13.233  0.00  0.00    +0.000 A 
ATOM      5  C   UNL     1      47.817   7.720  13.907  0.00  0.00    +0.000 A 
ATOM      6  C   UNL     1      46.729   7.193  13.207  0.00  0.00    +0.000 A 
ATOM      7  C   UNL     1      46.846   6.927  11.847  0.00  0.00    +0.000 A 
ATOM      8  N   UNL     1      45.772   6.518  11.049  0.00  0.00    +0.000 N 
ATOM      9  N   UNL     1      48.002   7.147  11.187  0.00  0.00    +0.000 NA
ATOM     10  C   UNL     1      49.051   7.663  11.882  0.00  0.00    +0.000 A 
ATOM     11  H   UNL     1      46.164   6.325  10.128  0.00  0.00    +0.000 HD
BRANCH   4  13
ATOM     12  N   UNL     1      51.203   7.742  14.258  0.00  0.00    +0.000 N 
ATOM     13  C   UNL     1      50.192   8.578  13.872  0.00  0.00    +0.000 C 
ATOM     14  O   UNL     1      50.276   9.786  14.038  0.00  0.00    +0.000 OA
ATOM     15  H   UNL     1      52.033   8.181  14.639  0.00  0.00    +0.000 HD
ATOM     16  H   UNL     1      51.279   6.783  13.955  0.00  0.00    +0.000 HD
ENDBRANCH   4  13
ENDBRANCH   1   8
BRANCH   1  17
ATOM     17  C   UNL     1      44.650   4.294  10.795  0.00  0.00    +0.000 A 
ATOM     18  C   UNL     1      43.806   3.259  11.230  0.00  0.00    +0.000 A 
ATOM     19  C   UNL     1      43.748   2.043  10.556  0.00  0.00    +0.000 A 
ATOM     20  C   UNL     1      44.525   1.845   9.418  0.00  0.00    +0.000 A 
ATOM     21  F   UNL     1      44.398   0.670   8.783  0.00  0.00    +0.000 F 
ATOM     22  C   UNL     1      45.398   2.831   8.932  0.00  0.00    +0.000 A 
ATOM     23  C   UNL     1      45.443   4.045   9.656  0.00  0.00    +0.000 A 
BRANCH  22  24
ATOM     24  C   UNL     1      46.228   2.634   7.721  0.00  0.00    +0.000 A 
ATOM     25  C   UNL     1      46.249   3.567   6.671  0.00  0.00    +0.000 A 
ATOM     26  C   UNL     1      47.059   3.373   5.553  0.00  0.00    +0.000 A 
ATOM     27  C   UNL     1      47.832   2.230   5.495  0.00  0.00    +0.000 A 
ATOM     28  N   UNL     1      47.848   1.296   6.463  0.00  0.00    +0.000 NA
ATOM     29  C   UNL     1      47.051   1.517   7.540  0.00  0.00    +0.000 A 
ENDBRANCH  22  24
ENDBRANCH   1  17
TORSDOF 4
ENDMDL
MODEL 6
REMARK VINA RESULT:    -6.349      3.692      6.563
REMARK INTER + INTRA:          -8.900
REMARK INTER:                  -7.858
REMARK INTRA:                  -1.042
REMARK UNBOUND:                -1.066
REMARK  Name = 
REMARK  4 active torsions:
REMARK  status: ('A' for Active; 'I' for Inactive)
REMARK    1  A    between atoms: C_2  and  C_4
REMARK    2  A    between atoms: N_8  and  C_9
REMARK    3  A    between atoms: C_9  and  C_10
REMARK    4  A    between atoms: C_15  and  C_16
REMARK                            x       y       z     vdW  Elec       q    Type
REMARK                         _______ _______ _______ _____ _____    ______ ____
ROOT
ATOM      1  C   UNL     1      49.143   8.582  12.778  0.00  0.00    +0.000 C 
ATOM      2  C   UNL     1      50.353   9.396  12.330  0.00  0.00    +0.000 C 
ATOM      3  C   UNL     1      50.286   7.941  12.014  0.00  0.00    +0.000 C 
ENDROOT
BRANCH   1   8
ATOM      4  C   UNL     1      44.542   6.513  11.447  0.00  0.00    +0.000 A 
ATOM      5  C   UNL     1      45.796   5.912  11.479  0.00  0.00    +0.000 A 
ATOM      6  C   UNL     1      46.924   6.691  11.750  0.00  0.00    +0.000 A 
ATOM      7  C   UNL     1      46.783   8.056  11.977  0.00  0.00    +0.000 A 
ATOM      8  N   UNL     1      47.867   8.925  12.130  0.00  0.00    +0.000 N 
ATOM      9  N   UNL     1      45.570   8.646  11.963  0.00  0.00    +0.000 NA
ATOM     10  C   UNL     1      44.482   7.875  11.696  0.00  0.00    +0.000 A 
ATOM     11  H   UNL     1      47.468   9.835  12.358  0.00  0.00    +0.000 HD
BRANCH   4  13
ATOM     12  N   UNL     1      42.156   6.158  11.760  0.00  0.00    +0.000 N 
ATOM     13  C   UNL     1      43.301   5.786  11.110  0.00  0.00    +0.000 C 
ATOM     14  O   UNL     1      43.289   4.896  10.273  0.00  0.00    +0.000 OA
ATOM     15  H   UNL     1      41.303   5.692  11.475  0.00  0.00    +0.000 HD
ATOM     16  H   UNL     1      42.069   7.012  12.290  0.00  0.00    +0.000 HD
ENDBRANCH   4  13
ENDBRANCH   1   8
BRANCH   1  17
ATOM     17  C   UNL     1      49.008   8.318  14.275  0.00  0.00    +0.000 A 
ATOM     18  C   UNL     1      48.910   9.373  15.198  0.00  0.00    +0.000 A 
ATOM     19  C   UNL     1      48.727   9.129  16.556  0.00  0.00    +0.000 A 
ATOM     20  C   UNL     1      48.620   7.819  17.016  0.00  0.00    +0.000 A 
ATOM     21  F   UNL     1      48.400   7.644  18.328  0.00  0.00    +0.000 F 
ATOM     22  C   UNL     1      48.716   6.717  16.152  0.00  0.00    +0.000 A 
ATOM     23  C   UNL     1      48.923   7.005  14.783  0.00  0.00    +0.000 A 
BRANCH  22  24
ATOM     24  C   UNL     1      48.601   5.319  16.628  0.00  0.00    +0.000 A 
ATOM     25  C   UNL     1      49.610   4.705  17.389  0.00  0.00    +0.000 A 
ATOM     26  C   UNL     1      49.466   3.397  17.850  0.00  0.00    +0.000 A 
ATOM     27  C   UNL     1      48.312   2.711  17.527  0.00  0.00    +0.000 A 
ATOM     28  N   UNL     1      47.316   3.241  16.794  0.00  0.00    +0.000 NA
ATOM     29  C   UNL     1      47.484   4.519  16.365  0.00  0.00    +0.000 A 
ENDBRANCH  22  24
ENDBRANCH   1  17
TORSDOF 4
ENDMDL
MODEL 7
REMARK VINA RESULT:    -6.145      4.096      6.876
REMARK INTER + INTRA:          -8.649
REMARK INTER:                  -7.596
REMARK INTRA:                  -1.053
REMARK UNBOUND:                -1.066
REMARK  Name = 
REMARK  4 active torsions:
REMARK  status: ('A' for Active; 'I' for Inactive)
REMARK    1  A    between atoms: C_2  and  C_4
REMARK    2  A    between atoms: N_8  and  C_9
REMARK    3  A    between atoms: C_9  and  C_10
REMARK    4  A    between atoms: C_15  and  C_16
REMARK                            x       y       z     vdW  Elec       q    Type
REMARK                         _______ _______ _______ _____ _____    ______ ____
ROOT
ATOM      1  C   UNL     1      48.869   9.462  14.578  0.00  0.00    +0.000 C 
ATOM      2  C   UNL     1      49.718  10.728  14.640  0.00  0.00    +0.000 C 
ATOM      3  C   UNL     1      50.236   9.529  13.923  0.00  0.00    +0.000 C 
ENDROOT
BRANCH   1   8
ATOM      4  C   UNL     1      45.661   6.628  11.595  0.00  0.00    +0.000 A 
ATOM      5  C   UNL     1      47.043   6.541  11.721  0.00  0.00    +0.000 A 
ATOM      6  C   UNL     1      47.722   7.489  12.491  0.00  0.00    +0.000 A 
ATOM      7  C   UNL     1      47.013   8.509  13.116  0.00  0.00    +0.000 A 
ATOM      8  N   UNL     1      47.625   9.565  13.798  0.00  0.00    +0.000 N 
ATOM      9  N   UNL     1      45.670   8.592  13.013  0.00  0.00    +0.000 NA
ATOM     10  C   UNL     1      45.024   7.664  12.258  0.00  0.00    +0.000 A 
ATOM     11  H   UNL     1      46.868  10.108  14.213  0.00  0.00    +0.000 HD
BRANCH   4  13
ATOM     12  N   UNL     1      45.418   5.288   9.578  0.00  0.00    +0.000 N 
ATOM     13  C   UNL     1      44.863   5.711  10.755  0.00  0.00    +0.000 C 
ATOM     14  O   UNL     1      43.753   5.330  11.100  0.00  0.00    +0.000 OA
ATOM     15  H   UNL     1      44.886   4.613   9.043  0.00  0.00    +0.000 HD
ATOM     16  H   UNL     1      46.396   5.397   9.354  0.00  0.00    +0.000 HD
ENDBRANCH   4  13
ENDBRANCH   1   8
BRANCH   1  17
ATOM     17  C   UNL     1      48.704   8.679  15.877  0.00  0.00    +0.000 A 
ATOM     18  C   UNL     1      48.142   9.270  17.021  0.00  0.00    +0.000 A 
ATOM     19  C   UNL     1      47.938   8.537  18.186  0.00  0.00    +0.000 A 
ATOM     20  C   UNL     1      48.278   7.187  18.224  0.00  0.00    +0.000 A 
ATOM     21  F   UNL     1      48.019   6.519  19.357  0.00  0.00    +0.000 F 
ATOM     22  C   UNL     1      48.851   6.534  17.121  0.00  0.00    +0.000 A 
ATOM     23  C   UNL     1      49.062   7.318  15.964  0.00  0.00    +0.000 A 
BRANCH  22  24
ATOM     24  C   UNL     1      49.215   5.098  17.147  0.00  0.00    +0.000 A 
ATOM     25  C   UNL     1      48.264   4.084  16.943  0.00  0.00    +0.000 A 
ATOM     26  C   UNL     1      48.635   2.740  16.945  0.00  0.00    +0.000 A 
ATOM     27  C   UNL     1      49.961   2.427  17.167  0.00  0.00    +0.000 A 
ATOM     28  N   UNL     1      50.916   3.351  17.379  0.00  0.00    +0.000 NA
ATOM     29  C   UNL     1      50.522   4.652  17.366  0.00  0.00    +0.000 A 
ENDBRANCH  22  24
ENDBRANCH   1  17
TORSDOF 4
ENDMDL
MODEL 8
REMARK VINA RESULT:    -6.097      3.819      5.951
REMARK INTER + INTRA:          -8.590
REMARK INTER:                  -7.996
REMARK INTRA:                  -0.594
REMARK UNBOUND:                -1.066
REMARK  Name = 
REMARK  4 active torsions:
REMARK  status: ('A' for Active; 'I' for Inactive)
REMARK    1  A    between atoms: C_2  and  C_4
REMARK    2  A    between atoms: N_8  and  C_9
REMARK    3  A    between atoms: C_9  and  C_10
REMARK    4  A    between atoms: C_15  and  C_16
REMARK                            x       y       z     vdW  Elec       q    Type
REMARK                         _______ _______ _______ _____ _____    ______ ____
ROOT
ATOM      1  C   UNL     1      47.720   8.120  13.163  0.00  0.00    +0.000 C 
ATOM      2  C   UNL     1      47.611   9.614  12.872  0.00  0.00    +0.000 C 
ATOM      3  C   UNL     1      48.055   8.684  11.795  0.00  0.00    +0.000 C 
ENDROOT
BRANCH   1   8
ATOM      4  C   UNL     1      44.790   4.144  11.481  0.00  0.00    +0.000 A 
ATOM      5  C   UNL     1      45.607   5.000  10.750  0.00  0.00    +0.000 A 
ATOM      6  C   UNL     1      46.212   6.085  11.391  0.00  0.00    +0.000 A 
ATOM      7  C   UNL     1      45.986   6.301  12.746  0.00  0.00    +0.000 A 
ATOM      8  N   UNL     1      46.449   7.428  13.432  0.00  0.00    +0.000 N 
ATOM      9  N   UNL     1      45.208   5.468  13.467  0.00  0.00    +0.000 NA
ATOM     10  C   UNL     1      44.625   4.418  12.829  0.00  0.00    +0.000 A 
ATOM     11  H   UNL     1      46.206   7.280  14.411  0.00  0.00    +0.000 HD
BRANCH   4  13
ATOM     12  N   UNL     1      44.613   2.414   9.780  0.00  0.00    +0.000 N 
ATOM     13  C   UNL     1      44.060   3.008  10.881  0.00  0.00    +0.000 C 
ATOM     14  O   UNL     1      43.009   2.602  11.355  0.00  0.00    +0.000 OA
ATOM     15  H   UNL     1      44.133   1.600   9.417  0.00  0.00    +0.000 HD
ATOM     16  H   UNL     1      45.565   2.567   9.484  0.00  0.00    +0.000 HD
ENDBRANCH   4  13
ENDBRANCH   1   8
BRANCH   1  17
ATOM     17  C   UNL     1      48.854   7.680  14.085  0.00  0.00    +0.000 A 
ATOM     18  C   UNL     1      50.183   8.064  13.845  0.00  0.00    +0.000 A 
ATOM     19  C   UNL     1      51.206   7.710  14.721  0.00  0.00    +0.000 A 
ATOM     20  C   UNL     1      50.913   6.976  15.867  0.00  0.00    +0.000 A 
ATOM     21  F   UNL     1      51.930   6.700  16.697  0.00  0.00    +0.000 F 
ATOM     22  C   UNL     1      49.609   6.551  16.165  0.00  0.00    +0.000 A 
ATOM     23  C   UNL     1      48.602   6.912  15.241  0.00  0.00    +0.000 A 
BRANCH  22  24
ATOM     24  C   UNL     1      49.284   5.772  17.382  0.00  0.00    +0.000 A 
ATOM     25  C   UNL     1      49.136   4.375  17.357  0.00  0.00    +0.000 A 
ATOM     26  C   UNL     1      48.858   3.660  18.521  0.00  0.00    +0.000 A 
ATOM     27  C   UNL     1      48.715   4.362  19.702  0.00  0.00    +0.000 A 
ATOM     28  N   UNL     1      48.835   5.699  19.789  0.00  0.00    +0.000 NA
ATOM     29  C   UNL     1      49.111   6.365  18.638  0.00  0.00    +0.000 A 
ENDBRANCH  22  24
ENDBRANCH   1  17
TORSDOF 4
ENDMDL
MODEL 9
REMARK VINA RESULT:    -5.986      4.084      6.650
REMARK INTER + INTRA:          -8.452
REMARK INTER:                  -7.363
REMARK INTRA:                  -1.089
REMARK UNBOUND:                -1.066
REMARK  Name = 
REMARK  4 active torsions:
REMARK  status: ('A' for Active; 'I' for Inactive)
REMARK    1  A    between atoms: C_2  and  C_4
REMARK    2  A    between atoms: N_8  and  C_9
REMARK    3  A    between atoms: C_9  and  C_10
REMARK    4  A    between atoms: C_15  and  C_16
REMARK                            x       y       z     vdW  Elec       q    Type
REMARK                         _______ _______ _______ _____ _____    ______ ____
ROOT
ATOM      1  C   UNL     1      49.064   8.319  12.478  0.00  0.00    +0.000 C 
ATOM      2  C   UNL     1      49.957   9.329  11.765  0.00  0.00    +0.000 C 
ATOM      3  C   UNL     1      50.262   7.874  11.662  0.00  0.00    +0.000 C 
ENDROOT
BRANCH   1   8
ATOM      4  C   UNL     1      44.803   5.324  12.795  0.00  0.00    +0.000 A 
ATOM      5  C   UNL     1      46.142   4.949  12.845  0.00  0.00    +0.000 A 
ATOM      6  C   UNL     1      47.132   5.909  12.615  0.00  0.00    +0.000 A 
ATOM      7  C   UNL     1      46.769   7.222  12.332  0.00  0.00    +0.000 A 
ATOM      8  N   UNL     1      47.688   8.211  11.968  0.00  0.00    +0.000 N 
ATOM      9  N   UNL     1      45.474   7.598  12.297  0.00  0.00    +0.000 NA
ATOM     10  C   UNL     1      44.523   6.652  12.521  0.00  0.00    +0.000 A 
ATOM     11  H   UNL     1      47.155   9.077  11.899  0.00  0.00    +0.000 HD
BRANCH   4  13
ATOM     12  N   UNL     1      43.975   3.037  12.868  0.00  0.00    +0.000 N 
ATOM     13  C   UNL     1      43.687   4.371  12.964  0.00  0.00    +0.000 C 
ATOM     14  O   UNL     1      42.549   4.754  13.195  0.00  0.00    +0.000 OA
ATOM     15  H   UNL     1      43.212   2.395  13.046  0.00  0.00    +0.000 HD
ATOM     16  H   UNL     1      44.914   2.667  12.893  0.00  0.00    +0.000 HD
ENDBRANCH   4  13
ENDBRANCH   1   8
BRANCH   1  17
ATOM     17  C   UNL     1      49.146   8.283  14.002  0.00  0.00    +0.000 A 
ATOM     18  C   UNL     1      48.542   9.276  14.791  0.00  0.00    +0.000 A 
ATOM     19  C   UNL     1      48.569   9.207  16.182  0.00  0.00    +0.000 A 
ATOM     20  C   UNL     1      49.187   8.130  16.810  0.00  0.00    +0.000 A 
ATOM     21  F   UNL     1      49.144   8.093  18.150  0.00  0.00    +0.000 F 
ATOM     22  C   UNL     1      49.817   7.107  16.084  0.00  0.00    +0.000 A 
ATOM     23  C   UNL     1      49.787   7.223  14.676  0.00  0.00    +0.000 A 
BRANCH  22  24
ATOM     24  C   UNL     1      50.476   5.954  16.742  0.00  0.00    +0.000 A 
ATOM     25  C   UNL     1      49.752   4.836  17.187  0.00  0.00    +0.000 A 
ATOM     26  C   UNL     1      50.397   3.750  17.778  0.00  0.00    +0.000 A 
ATOM     27  C   UNL     1      51.769   3.807  17.929  0.00  0.00    +0.000 A 
ATOM     28  N   UNL     1      52.516   4.853  17.533  0.00  0.00    +0.000 NA
ATOM     29  C   UNL     1      51.857   5.892  16.956  0.00  0.00    +0.000 A 
ENDBRANCH  22  24
ENDBRANCH   1  17
TORSDOF 4
ENDMDL
