MODEL 1
REMARK VINA RESULT:    -7.656      0.000      0.000
REMARK INTER + INTRA:         -11.289
REMARK INTER:                 -10.566
REMARK INTRA:                  -0.723
REMARK UNBOUND:                -0.723
REMARK  Name = 
REMARK  7 active torsions:
REMARK  status: ('A' for Active; 'I' for Inactive)
REMARK    1  A    between atoms: N_1  and  C_2
REMARK    2  A    between atoms: C_2  and  C_3
REMARK    3  A    between atoms: C_2  and  C_19
REMARK    4  A    between atoms: C_3  and  C_4
REMARK    5  A    between atoms: C_7  and  S_8
REMARK    6  A    between atoms: S_8  and  N_11
REMARK    7  A    between atoms: N_11  and  C_12
REMARK                            x       y       z     vdW  Elec       q    Type
REMARK                         _______ _______ _______ _____ _____    ______ ____
ROOT
ATOM      1  C   UNL     1      47.150   6.343  13.542  0.00  0.00    +0.000 A 
ATOM      2  C   UNL     1      46.217   6.805  12.602  0.00  0.00    +0.000 A 
ATOM      3  C   UNL     1      45.279   5.937  12.037  0.00  0.00    +0.000 A 
ATOM      4  C   UNL     1      45.292   4.586  12.387  0.00  0.00    +0.000 A 
ATOM      5  C   UNL     1      46.253   4.091  13.268  0.00  0.00    +0.000 A 
ATOM      6  C   UNL     1      47.179   4.967  13.836  0.00  0.00    +0.000 A 
ENDROOT
BRANCH   4   7
ATOM      7  S   UNL     1      44.044   3.496  11.766  0.00  0.00    +0.000 S 
ATOM      8  O   UNL     1      43.660   2.615  12.851  0.00  0.00    +0.000 OA
ATOM      9  O   UNL     1      43.066   4.261  11.024  0.00  0.00    +0.000 OA
BRANCH   7  10
ATOM     10  N   UNL     1      44.891   2.531  10.670  0.00  0.00    +0.000 NA
ATOM     11  H   UNL     1      44.856   1.559  10.975  0.00  0.00    +0.000 HD
BRANCH  10  12
ATOM     12  C   UNL     1      44.705   2.790   9.232  0.00  0.00    +0.000 C 
ATOM     13  C   UNL     1      45.478   1.759   8.406  0.00  0.00    +0.000 C 
ATOM     14  C   UNL     1      46.499   2.565   7.620  0.00  0.00    +0.000 C 
ATOM     15  N   UNL     1      45.891   3.889   7.463  0.00  0.00    +0.000 NA
ATOM     16  C   UNL     1      45.275   4.137   8.775  0.00  0.00    +0.000 C 
ATOM     17  H   UNL     1      45.153   3.835   6.761  0.00  0.00    +0.000 HD
ENDBRANCH  10  12
ENDBRANCH   7  10
ENDBRANCH   4   7
BRANCH   1  18
ATOM     18  C   UNL     1      48.100   7.253  14.304  0.00  0.00    +0.000 C 
BRANCH  18  19
ATOM     19  C   UNL     1      49.184   6.608  15.206  0.00  0.00    +0.000 C 
BRANCH  19  20
ATOM     20  C   UNL     1      48.934   6.811  16.690  0.00  0.00    +0.000 A 
ATOM     21  C   UNL     1      48.657   8.057  17.233  0.00  0.00    +0.000 A 
ATOM     22  S   UNL     1      48.397   8.023  18.919  0.00  0.00    +0.000 S 
ATOM     23  C   UNL     1      48.641   6.340  18.983  0.00  0.00    +0.000 A 
ATOM     24  N   UNL     1      48.562   5.666  20.163  0.00  0.00    +0.000 NA
ATOM     25  C   UNL     1      48.771   4.396  20.063  0.00  0.00    +0.000 A 
ATOM     26  N   UNL     1      49.042   3.736  18.892  0.00  0.00    +0.000 N 
ATOM     27  C   UNL     1      49.075   4.365  17.668  0.00  0.00    +0.000 A 
ATOM     28  O   UNL     1      49.211   3.730  16.628  0.00  0.00    +0.000 OA
ATOM     29  C   UNL     1      48.899   5.807  17.733  0.00  0.00    +0.000 A 
ATOM     30  H   UNL     1      49.167   2.735  18.881  0.00  0.00    +0.000 HD
ENDBRANCH  19  20
BRANCH  19  31
ATOM     31  N   UNL     1      50.545   7.066  14.926  0.00  0.00    +0.000 NA
ATOM     32  H   UNL     1      50.607   8.074  15.056  0.00  0.00    +0.000 HD
ATOM     33  H   UNL     1      50.767   6.870  13.947  0.00  0.00    +0.000 HD
ENDBRANCH  19  31
ENDBRANCH  18  19
ENDBRANCH   1  18
TORSDOF 7
ENDMDL
MODEL 2
REMARK VINA RESULT:    -7.502      1.289      1.840
REMARK INTER + INTRA:         -11.076
REMARK INTER:                  -9.865
REMARK INTRA:                  -1.211
REMARK UNBOUND:                -0.723
REMARK  Name = 
REMARK  7 active torsions:
REMARK  status: ('A' for Active; 'I' for Inactive)
REMARK    1  A    between atoms: N_1  and  C_2
REMARK    2  A    between atoms: C_2  and  C_3
REMARK    3  A    between atoms: C_2  and  C_19
REMARK    4  A    between atoms: C_3  and  C_4
REMARK    5  A    between atoms: C_7  and  S_8
REMARK    6  A    between atoms: S_8  and  N_11
REMARK    7  A    between atoms: N_11  and  C_12
REMARK                            x       y       z     vdW  Elec       q    Type
REMARK                         _______ _______ _______ _____ _____    ______ ____
ROOT
ATOM      1  C   UNL     1      47.330   6.659  13.041  0.00  0.00    +0.000 A 
ATOM      2  C   UNL     1      47.178   5.336  13.481  0.00  0.00    +0.000 A 
ATOM      3  C   UNL     1      45.982   4.644  13.271  0.00  0.00    +0.000 A 
ATOM      4  C   UNL     1      44.915   5.288  12.645  0.00  0.00    +0.000 A 
ATOM      5  C   UNL     1      45.020   6.624  12.260  0.00  0.00    +0.000 A 
ATOM      6  C   UNL     1      46.221   7.304  12.463  0.00  0.00    +0.000 A 
ENDROOT
BRANCH   4   7
ATOM      7  S   UNL     1      43.434   4.394  12.272  0.00  0.00    +0.000 S 
ATOM      8  O   UNL     1      43.541   3.096  12.906  0.00  0.00    +0.000 OA
ATOM      9  O   UNL     1      42.289   5.253  12.484  0.00  0.00    +0.000 OA
BRANCH   7  10
ATOM     10  N   UNL     1      43.569   4.106  10.614  0.00  0.00    +0.000 NA
ATOM     11  H   UNL     1      43.143   4.877  10.099  0.00  0.00    +0.000 HD
BRANCH  10  12
ATOM     12  C   UNL     1      44.849   3.585  10.104  0.00  0.00    +0.000 C 
ATOM     13  C   UNL     1      45.381   4.491   8.991  0.00  0.00    +0.000 C 
ATOM     14  C   UNL     1      45.428   3.612   7.752  0.00  0.00    +0.000 C 
ATOM     15  N   UNL     1      45.610   2.252   8.264  0.00  0.00    +0.000 NA
ATOM     16  C   UNL     1      44.728   2.210   9.439  0.00  0.00    +0.000 C 
ATOM     17  H   UNL     1      46.575   2.141   8.577  0.00  0.00    +0.000 HD
ENDBRANCH  10  12
ENDBRANCH   7  10
ENDBRANCH   4   7
BRANCH   1  18
ATOM     18  C   UNL     1      48.644   7.423  13.104  0.00  0.00    +0.000 C 
BRANCH  18  19
ATOM     19  C   UNL     1      49.582   7.192  14.316  0.00  0.00    +0.000 C 
BRANCH  19  20
ATOM     20  C   UNL     1      49.065   7.806  15.605  0.00  0.00    +0.000 A 
ATOM     21  C   UNL     1      48.826   9.167  15.735  0.00  0.00    +0.000 A 
ATOM     22  S   UNL     1      48.232   9.610  17.273  0.00  0.00    +0.000 S 
ATOM     23  C   UNL     1      48.270   7.998  17.818  0.00  0.00    +0.000 A 
ATOM     24  N   UNL     1      47.883   7.678  19.082  0.00  0.00    +0.000 NA
ATOM     25  C   UNL     1      47.965   6.420  19.360  0.00  0.00    +0.000 A 
ATOM     26  N   UNL     1      48.388   5.451  18.487  0.00  0.00    +0.000 N 
ATOM     27  C   UNL     1      48.735   5.718  17.182  0.00  0.00    +0.000 A 
ATOM     28  O   UNL     1      49.004   4.816  16.396  0.00  0.00    +0.000 OA
ATOM     29  C   UNL     1      48.711   7.130  16.835  0.00  0.00    +0.000 A 
ATOM     30  H   UNL     1      48.401   4.479  18.760  0.00  0.00    +0.000 HD
ENDBRANCH  19  20
BRANCH  19  31
ATOM     31  N   UNL     1      50.947   7.678  14.118  0.00  0.00    +0.000 NA
ATOM     32  H   UNL     1      51.585   7.190  14.743  0.00  0.00    +0.000 HD
ATOM     33  H   UNL     1      50.984   8.672  14.359  0.00  0.00    +0.000 HD
ENDBRANCH  19  31
ENDBRANCH  18  19
ENDBRANCH   1  18
TORSDOF 7
ENDMDL
MODEL 3
REMARK VINA RESULT:    -7.330      2.330      8.616
REMARK INTER + INTRA:         -10.838
REMARK INTER:                 -10.029
REMARK INTRA:                  -0.808
REMARK UNBOUND:                -0.723
REMARK  Name = 
REMARK  7 active torsions:
REMARK  status: ('A' for Active; 'I' for Inactive)
REMARK    1  A    between atoms: N_1  and  C_2
REMARK    2  A    between atoms: C_2  and  C_3
REMARK    3  A    between atoms: C_2  and  C_19
REMARK    4  A    between atoms: C_3  and  C_4
REMARK    5  A    between atoms: C_7  and  S_8
REMARK    6  A    between atoms: S_8  and  N_11
REMARK    7  A    between atoms: N_11  and  C_12
REMARK                            x       y       z     vdW  Elec       q    Type
REMARK                         _______ _______ _______ _____ _____    ______ ____
ROOT
ATOM      1  C   UNL     1      47.249   6.193  13.537  0.00  0.00    +0.000 A 
ATOM      2  C   UNL     1      48.156   7.086  14.127  0.00  0.00    +0.000 A 
ATOM      3  C   UNL     1      48.744   6.798  15.362  0.00  0.00    +0.000 A 
ATOM      4  C   UNL     1      48.399   5.624  16.032  0.00  0.00    +0.000 A 
ATOM      5  C   UNL     1      47.449   4.755  15.497  0.00  0.00    +0.000 A 
ATOM      6  C   UNL     1      46.876   5.043  14.258  0.00  0.00    +0.000 A 
ENDROOT
BRANCH   4   7
ATOM      7  S   UNL     1      49.214   5.191  17.542  0.00  0.00    +0.000 S 
ATOM      8  O   UNL     1      49.898   6.376  18.019  0.00  0.00    +0.000 OA
ATOM      9  O   UNL     1      48.302   4.448  18.383  0.00  0.00    +0.000 OA
BRANCH   7  10
ATOM     10  N   UNL     1      50.429   4.136  17.031  0.00  0.00    +0.000 NA
ATOM     11  H   UNL     1      51.209   4.673  16.653  0.00  0.00    +0.000 HD
BRANCH  10  12
ATOM     12  C   UNL     1      50.760   2.990  17.896  0.00  0.00    +0.000 C 
ATOM     13  C   UNL     1      52.251   3.005  18.242  0.00  0.00    +0.000 C 
ATOM     14  C   UNL     1      52.808   1.719  17.655  0.00  0.00    +0.000 C 
ATOM     15  N   UNL     1      51.675   0.790  17.645  0.00  0.00    +0.000 NA
ATOM     16  C   UNL     1      50.548   1.632  17.219  0.00  0.00    +0.000 C 
ATOM     17  H   UNL     1      51.500   0.470  18.598  0.00  0.00    +0.000 HD
ENDBRANCH  10  12
ENDBRANCH   7  10
ENDBRANCH   4   7
BRANCH   1  18
ATOM     18  C   UNL     1      46.685   6.368  12.136  0.00  0.00    +0.000 C 
BRANCH  18  19
ATOM     19  C   UNL     1      45.149   6.299  11.938  0.00  0.00    +0.000 C 
BRANCH  19  20
ATOM     20  C   UNL     1      44.650   4.916  11.559  0.00  0.00    +0.000 A 
ATOM     21  C   UNL     1      43.839   4.164  12.398  0.00  0.00    +0.000 A 
ATOM     22  S   UNL     1      43.398   2.652  11.742  0.00  0.00    +0.000 S 
ATOM     23  C   UNL     1      44.272   2.949  10.312  0.00  0.00    +0.000 A 
ATOM     24  N   UNL     1      44.311   2.028   9.311  0.00  0.00    +0.000 NA
ATOM     25  C   UNL     1      45.012   2.386   8.287  0.00  0.00    +0.000 A 
ATOM     26  N   UNL     1      45.668   3.584   8.168  0.00  0.00    +0.000 N 
ATOM     27  C   UNL     1      45.610   4.570   9.128  0.00  0.00    +0.000 A 
ATOM     28  O   UNL     1      46.117   5.671   8.942  0.00  0.00    +0.000 OA
ATOM     29  C   UNL     1      44.877   4.193  10.325  0.00  0.00    +0.000 A 
ATOM     30  H   UNL     1      46.176   3.813   7.326  0.00  0.00    +0.000 HD
ENDBRANCH  19  20
BRANCH  19  31
ATOM     31  N   UNL     1      44.631   7.238  10.943  0.00  0.00    +0.000 NA
ATOM     32  H   UNL     1      43.622   7.133  10.857  0.00  0.00    +0.000 HD
ATOM     33  H   UNL     1      45.040   7.015  10.032  0.00  0.00    +0.000 HD
ENDBRANCH  19  31
ENDBRANCH  18  19
ENDBRANCH   1  18
TORSDOF 7
ENDMDL
MODEL 4
REMARK VINA RESULT:    -7.267      2.230      3.010
REMARK INTER + INTRA:         -10.751
REMARK INTER:                  -9.936
REMARK INTRA:                  -0.815
REMARK UNBOUND:                -0.723
REMARK  Name = 
REMARK  7 active torsions:
REMARK  status: ('A' for Active; 'I' for Inactive)
REMARK    1  A    between atoms: N_1  and  C_2
REMARK    2  A    between atoms: C_2  and  C_3
REMARK    3  A    between atoms: C_2  and  C_19
REMARK    4  A    between atoms: C_3  and  C_4
REMARK    5  A    between atoms: C_7  and  S_8
REMARK    6  A    between atoms: S_8  and  N_11
REMARK    7  A    between atoms: N_11  and  C_12
REMARK                            x       y       z     vdW  Elec       q    Type
REMARK                         _______ _______ _______ _____ _____    ______ ____
ROOT
ATOM      1  C   UNL     1      47.233   6.883  13.101  0.00  0.00    +0.000 A 
ATOM      2  C   UNL     1      47.314   5.562  13.568  0.00  0.00    +0.000 A 
ATOM      3  C   UNL     1      46.314   4.634  13.269  0.00  0.00    +0.000 A 
ATOM      4  C   UNL     1      45.205   5.033  12.523  0.00  0.00    +0.000 A 
ATOM      5  C   UNL     1      45.070   6.356  12.105  0.00  0.00    +0.000 A 
ATOM      6  C   UNL     1      46.078   7.275  12.399  0.00  0.00    +0.000 A 
ENDROOT
BRANCH   4   7
ATOM      7  S   UNL     1      43.985   3.845  12.041  0.00  0.00    +0.000 S 
ATOM      8  O   UNL     1      43.711   3.013  13.196  0.00  0.00    +0.000 OA
ATOM      9  O   UNL     1      42.927   4.512  11.315  0.00  0.00    +0.000 OA
BRANCH   7  10
ATOM     10  N   UNL     1      44.821   2.859  10.955  0.00  0.00    +0.000 NA
ATOM     11  H   UNL     1      44.823   1.899  11.299  0.00  0.00    +0.000 HD
BRANCH  10  12
ATOM     12  C   UNL     1      44.578   3.054   9.514  0.00  0.00    +0.000 C 
ATOM     13  C   UNL     1      45.178   1.895   8.716  0.00  0.00    +0.000 C 
ATOM     14  C   UNL     1      46.233   2.530   7.826  0.00  0.00    +0.000 C 
ATOM     15  N   UNL     1      45.771   3.905   7.618  0.00  0.00    +0.000 NA
ATOM     16  C   UNL     1      45.267   4.298   8.942  0.00  0.00    +0.000 C 
ATOM     17  H   UNL     1      44.990   3.896   6.961  0.00  0.00    +0.000 HD
ENDBRANCH  10  12
ENDBRANCH   7  10
ENDBRANCH   4   7
BRANCH   1  18
ATOM     18  C   UNL     1      48.348   7.904  13.263  0.00  0.00    +0.000 C 
BRANCH  18  19
ATOM     19  C   UNL     1      48.604   8.511  14.666  0.00  0.00    +0.000 C 
BRANCH  19  20
ATOM     20  C   UNL     1      49.354   7.577  15.600  0.00  0.00    +0.000 A 
ATOM     21  C   UNL     1      48.711   6.831  16.577  0.00  0.00    +0.000 A 
ATOM     22  S   UNL     1      49.766   5.846  17.486  0.00  0.00    +0.000 S 
ATOM     23  C   UNL     1      51.121   6.378  16.604  0.00  0.00    +0.000 A 
ATOM     24  N   UNL     1      52.367   5.914  16.888  0.00  0.00    +0.000 NA
ATOM     25  C   UNL     1      53.299   6.404  16.140  0.00  0.00    +0.000 A 
ATOM     26  N   UNL     1      53.098   7.308  15.129  0.00  0.00    +0.000 N 
ATOM     27  C   UNL     1      51.850   7.763  14.768  0.00  0.00    +0.000 A 
ATOM     28  O   UNL     1      51.693   8.486  13.791  0.00  0.00    +0.000 OA
ATOM     29  C   UNL     1      50.771   7.281  15.616  0.00  0.00    +0.000 A 
ATOM     30  H   UNL     1      53.869   7.630  14.564  0.00  0.00    +0.000 HD
ENDBRANCH  19  20
BRANCH  19  31
ATOM     31  N   UNL     1      47.392   8.944  15.362  0.00  0.00    +0.000 NA
ATOM     32  H   UNL     1      46.623   9.029  14.701  0.00  0.00    +0.000 HD
ATOM     33  H   UNL     1      47.553   9.871  15.764  0.00  0.00    +0.000 HD
ENDBRANCH  19  31
ENDBRANCH  18  19
ENDBRANCH   1  18
TORSDOF 7
ENDMDL
MODEL 5
REMARK VINA RESULT:    -6.995      2.119      2.669
REMARK INTER + INTRA:         -10.376
REMARK INTER:                  -9.455
REMARK INTRA:                  -0.921
REMARK UNBOUND:                -0.723
REMARK  Name = 
REMARK  7 active torsions:
REMARK  status: ('A' for Active; 'I' for Inactive)
REMARK    1  A    between atoms: N_1  and  C_2
REMARK    2  A    between atoms: C_2  and  C_3
REMARK    3  A    between atoms: C_2  and  C_19
REMARK    4  A    between atoms: C_3  and  C_4
REMARK    5  A    between atoms: C_7  and  S_8
REMARK    6  A    between atoms: S_8  and  N_11
REMARK    7  A    between atoms: N_11  and  C_12
REMARK                            x       y       z     vdW  Elec       q    Type
REMARK                         _______ _______ _______ _____ _____    ______ ____
ROOT
ATOM      1  C   UNL     1      47.511   6.578  13.107  0.00  0.00    +0.000 A 
ATOM      2  C   UNL     1      46.951   7.255  12.013  0.00  0.00    +0.000 A 
ATOM      3  C   UNL     1      45.738   6.840  11.458  0.00  0.00    +0.000 A 
ATOM      4  C   UNL     1      45.092   5.717  11.976  0.00  0.00    +0.000 A 
ATOM      5  C   UNL     1      45.663   4.988  13.019  0.00  0.00    +0.000 A 
ATOM      6  C   UNL     1      46.869   5.417  13.576  0.00  0.00    +0.000 A 
ENDROOT
BRANCH   4   7
ATOM      7  S   UNL     1      43.503   5.243  11.358  0.00  0.00    +0.000 S 
ATOM      8  O   UNL     1      43.079   4.076  12.104  0.00  0.00    +0.000 OA
ATOM      9  O   UNL     1      42.666   6.416  11.238  0.00  0.00    +0.000 OA
BRANCH   7  10
ATOM     10  N   UNL     1      43.850   4.690   9.801  0.00  0.00    +0.000 NA
ATOM     11  H   UNL     1      43.667   5.433   9.127  0.00  0.00    +0.000 HD
BRANCH  10  12
ATOM     12  C   UNL     1      45.074   3.894   9.605  0.00  0.00    +0.000 C 
ATOM     13  C   UNL     1      45.824   4.377   8.362  0.00  0.00    +0.000 C 
ATOM     14  C   UNL     1      45.839   3.185   7.419  0.00  0.00    +0.000 C 
ATOM     15  N   UNL     1      45.772   2.013   8.295  0.00  0.00    +0.000 NA
ATOM     16  C   UNL     1      44.801   2.412   9.325  0.00  0.00    +0.000 C 
ATOM     17  H   UNL     1      46.681   1.878   8.739  0.00  0.00    +0.000 HD
ENDBRANCH  10  12
ENDBRANCH   7  10
ENDBRANCH   4   7
BRANCH   1  18
ATOM     18  C   UNL     1      48.746   7.057  13.853  0.00  0.00    +0.000 C 
BRANCH  18  19
ATOM     19  C   UNL     1      48.564   8.030  15.046  0.00  0.00    +0.000 C 
BRANCH  19  20
ATOM     20  C   UNL     1      48.648   7.347  16.400  0.00  0.00    +0.000 A 
ATOM     21  C   UNL     1      48.895   5.989  16.532  0.00  0.00    +0.000 A 
ATOM     22  S   UNL     1      48.959   5.463  18.155  0.00  0.00    +0.000 S 
ATOM     23  C   UNL     1      48.661   7.034  18.739  0.00  0.00    +0.000 A 
ATOM     24  N   UNL     1      48.584   7.281  20.074  0.00  0.00    +0.000 NA
ATOM     25  C   UNL     1      48.352   8.516  20.373  0.00  0.00    +0.000 A 
ATOM     26  N   UNL     1      48.199   9.527  19.460  0.00  0.00    +0.000 N 
ATOM     27  C   UNL     1      48.325   9.336  18.102  0.00  0.00    +0.000 A 
ATOM     28  O   UNL     1      48.292  10.280  17.320  0.00  0.00    +0.000 OA
ATOM     29  C   UNL     1      48.533   7.952  17.711  0.00  0.00    +0.000 A 
ATOM     30  H   UNL     1      48.048  10.478  19.763  0.00  0.00    +0.000 HD
ENDBRANCH  19  20
BRANCH  19  31
ATOM     31  N   UNL     1      47.313   8.787  15.015  0.00  0.00    +0.000 NA
ATOM     32  H   UNL     1      47.464   9.692  14.574  0.00  0.00    +0.000 HD
ATOM     33  H   UNL     1      47.007   8.963  15.976  0.00  0.00    +0.000 HD
ENDBRANCH  19  31
ENDBRANCH  18  19
ENDBRANCH   1  18
TORSDOF 7
ENDMDL
MODEL 6
REMARK VINA RESULT:    -6.846      2.081      8.968
REMARK INTER + INTRA:         -10.170
REMARK INTER:                  -9.269
REMARK INTRA:                  -0.902
REMARK UNBOUND:                -0.723
REMARK  Name = 
REMARK  7 active torsions:
REMARK  status: ('A' for Active; 'I' for Inactive)
REMARK    1  A    between atoms: N_1  and  C_2
REMARK    2  A    between atoms: C_2  and  C_3
REMARK    3  A    between atoms: C_2  and  C_19
REMARK    4  A    between atoms: C_3  and  C_4
REMARK    5  A    between atoms: C_7  and  S_8
REMARK    6  A    between atoms: S_8  and  N_11
REMARK    7  A    between atoms: N_11  and  C_12
REMARK                            x       y       z     vdW  Elec       q    Type
REMARK                         _______ _______ _______ _____ _____    ______ ____
ROOT
ATOM      1  C   UNL     1      47.259   6.299  13.462  0.00  0.00    +0.000 A 
ATOM      2  C   UNL     1      48.221   7.133  14.050  0.00  0.00    +0.000 A 
ATOM      3  C   UNL     1      48.837   6.779  15.253  0.00  0.00    +0.000 A 
ATOM      4  C   UNL     1      48.468   5.597  15.894  0.00  0.00    +0.000 A 
ATOM      5  C   UNL     1      47.465   4.786  15.364  0.00  0.00    +0.000 A 
ATOM      6  C   UNL     1      46.863   5.140  14.156  0.00  0.00    +0.000 A 
ENDROOT
BRANCH   4   7
ATOM      7  S   UNL     1      49.315   5.079  17.360  0.00  0.00    +0.000 S 
ATOM      8  O   UNL     1      48.484   4.088  18.013  0.00  0.00    +0.000 OA
ATOM      9  O   UNL     1      50.703   4.821  17.045  0.00  0.00    +0.000 OA
BRANCH   7  10
ATOM     10  N   UNL     1      49.250   6.450  18.342  0.00  0.00    +0.000 NA
ATOM     11  H   UNL     1      49.697   7.233  17.865  0.00  0.00    +0.000 HD
BRANCH  10  12
ATOM     12  C   UNL     1      47.992   6.731  19.057  0.00  0.00    +0.000 C 
ATOM     13  C   UNL     1      47.569   8.184  18.829  0.00  0.00    +0.000 C 
ATOM     14  C   UNL     1      47.581   8.822  20.208  0.00  0.00    +0.000 C 
ATOM     15  N   UNL     1      47.320   7.718  21.135  0.00  0.00    +0.000 NA
ATOM     16  C   UNL     1      48.116   6.613  20.580  0.00  0.00    +0.000 C 
ATOM     17  H   UNL     1      46.333   7.467  21.082  0.00  0.00    +0.000 HD
ENDBRANCH  10  12
ENDBRANCH   7  10
ENDBRANCH   4   7
BRANCH   1  18
ATOM     18  C   UNL     1      46.655   6.545  12.088  0.00  0.00    +0.000 C 
BRANCH  18  19
ATOM     19  C   UNL     1      45.117   6.444  11.922  0.00  0.00    +0.000 C 
BRANCH  19  20
ATOM     20  C   UNL     1      44.639   5.046  11.571  0.00  0.00    +0.000 A 
ATOM     21  C   UNL     1      43.824   4.307  12.416  0.00  0.00    +0.000 A 
ATOM     22  S   UNL     1      43.409   2.773  11.792  0.00  0.00    +0.000 S 
ATOM     23  C   UNL     1      44.300   3.045  10.368  0.00  0.00    +0.000 A 
ATOM     24  N   UNL     1      44.365   2.100   9.392  0.00  0.00    +0.000 NA
ATOM     25  C   UNL     1      45.076   2.439   8.369  0.00  0.00    +0.000 A 
ATOM     26  N   UNL     1      45.722   3.642   8.229  0.00  0.00    +0.000 N 
ATOM     27  C   UNL     1      45.638   4.650   9.163  0.00  0.00    +0.000 A 
ATOM     28  O   UNL     1      46.136   5.752   8.957  0.00  0.00    +0.000 OA
ATOM     29  C   UNL     1      44.892   4.296  10.359  0.00  0.00    +0.000 A 
ATOM     30  H   UNL     1      46.239   3.855   7.390  0.00  0.00    +0.000 HD
ENDBRANCH  19  20
BRANCH  19  31
ATOM     31  N   UNL     1      44.561   7.359  10.926  0.00  0.00    +0.000 NA
ATOM     32  H   UNL     1      43.708   7.786  11.282  0.00  0.00    +0.000 HD
ATOM     33  H   UNL     1      44.309   6.826  10.089  0.00  0.00    +0.000 HD
ENDBRANCH  19  31
ENDBRANCH  18  19
ENDBRANCH   1  18
TORSDOF 7
ENDMDL
MODEL 7
REMARK VINA RESULT:    -6.697      2.100      8.607
REMARK INTER + INTRA:          -9.965
REMARK INTER:                  -9.084
REMARK INTRA:                  -0.881
REMARK UNBOUND:                -0.723
REMARK  Name = 
REMARK  7 active torsions:
REMARK  status: ('A' for Active; 'I' for Inactive)
REMARK    1  A    between atoms: N_1  and  C_2
REMARK    2  A    between atoms: C_2  and  C_3
REMARK    3  A    between atoms: C_2  and  C_19
REMARK    4  A    between atoms: C_3  and  C_4
REMARK    5  A    between atoms: C_7  and  S_8
REMARK    6  A    between atoms: S_8  and  N_11
REMARK    7  A    between atoms: N_11  and  C_12
REMARK                            x       y       z     vdW  Elec       q    Type
REMARK                         _______ _______ _______ _____ _____    ______ ____
ROOT
ATOM      1  C   UNL     1      47.983   6.870  12.764  0.00  0.00    +0.000 A 
ATOM      2  C   UNL     1      49.285   7.392  12.724  0.00  0.00    +0.000 A 
ATOM      3  C   UNL     1      50.072   7.443  13.878  0.00  0.00    +0.000 A 
ATOM      4  C   UNL     1      49.545   6.999  15.091  0.00  0.00    +0.000 A 
ATOM      5  C   UNL     1      48.231   6.539  15.168  0.00  0.00    +0.000 A 
ATOM      6  C   UNL     1      47.456   6.481  14.009  0.00  0.00    +0.000 A 
ENDROOT
BRANCH   4   7
ATOM      7  S   UNL     1      50.564   6.953  16.537  0.00  0.00    +0.000 S 
ATOM      8  O   UNL     1      51.558   5.919  16.334  0.00  0.00    +0.000 OA
ATOM      9  O   UNL     1      50.934   8.302  16.906  0.00  0.00    +0.000 OA
BRANCH   7  10
ATOM     10  N   UNL     1      49.518   6.358  17.721  0.00  0.00    +0.000 NA
ATOM     11  H   UNL     1      48.555   6.575  17.466  0.00  0.00    +0.000 HD
BRANCH  10  12
ATOM     12  C   UNL     1      49.780   5.012  18.264  0.00  0.00    +0.000 C 
ATOM     13  C   UNL     1      49.115   3.951  17.384  0.00  0.00    +0.000 C 
ATOM     14  C   UNL     1      48.105   3.263  18.287  0.00  0.00    +0.000 C 
ATOM     15  N   UNL     1      48.650   3.408  19.639  0.00  0.00    +0.000 NA
ATOM     16  C   UNL     1      49.169   4.783  19.651  0.00  0.00    +0.000 C 
ATOM     17  H   UNL     1      49.433   2.763  19.752  0.00  0.00    +0.000 HD
ENDBRANCH  10  12
ENDBRANCH   7  10
ENDBRANCH   4   7
BRANCH   1  18
ATOM     18  C   UNL     1      47.125   6.649  11.528  0.00  0.00    +0.000 C 
BRANCH  18  19
ATOM     19  C   UNL     1      45.583   6.654  11.682  0.00  0.00    +0.000 C 
BRANCH  19  20
ATOM     20  C   UNL     1      44.964   5.269  11.609  0.00  0.00    +0.000 A 
ATOM     21  C   UNL     1      44.265   4.711  12.669  0.00  0.00    +0.000 A 
ATOM     22  S   UNL     1      43.652   3.153  12.337  0.00  0.00    +0.000 S 
ATOM     23  C   UNL     1      44.297   3.170  10.762  0.00  0.00    +0.000 A 
ATOM     24  N   UNL     1      44.132   2.109   9.926  0.00  0.00    +0.000 NA
ATOM     25  C   UNL     1      44.674   2.259   8.764  0.00  0.00    +0.000 A 
ATOM     26  N   UNL     1      45.359   3.375   8.357  0.00  0.00    +0.000 N 
ATOM     27  C   UNL     1      45.503   4.495   9.146  0.00  0.00    +0.000 A 
ATOM     28  O   UNL     1      46.025   5.516   8.713  0.00  0.00    +0.000 OA
ATOM     29  C   UNL     1      44.955   4.355  10.485  0.00  0.00    +0.000 A 
ATOM     30  H   UNL     1      45.735   3.438   7.423  0.00  0.00    +0.000 HD
ENDBRANCH  19  20
BRANCH  19  31
ATOM     31  N   UNL     1      44.886   7.495  10.710  0.00  0.00    +0.000 NA
ATOM     32  H   UNL     1      45.078   8.477  10.898  0.00  0.00    +0.000 HD
ATOM     33  H   UNL     1      43.878   7.356  10.811  0.00  0.00    +0.000 HD
ENDBRANCH  19  31
ENDBRANCH  18  19
ENDBRANCH   1  18
TORSDOF 7
ENDMDL
MODEL 8
REMARK VINA RESULT:    -6.675      3.788      4.668
REMARK INTER + INTRA:          -9.935
REMARK INTER:                  -9.053
REMARK INTRA:                  -0.882
REMARK UNBOUND:                -0.723
REMARK  Name = 
REMARK  7 active torsions:
REMARK  status: ('A' for Active; 'I' for Inactive)
REMARK    1  A    between atoms: N_1  and  C_2
REMARK    2  A    between atoms: C_2  and  C_3
REMARK    3  A    between atoms: C_2  and  C_19
REMARK    4  A    between atoms: C_3  and  C_4
REMARK    5  A    between atoms: C_7  and  S_8
REMARK    6  A    between atoms: S_8  and  N_11
REMARK    7  A    between atoms: N_11  and  C_12
REMARK                            x       y       z     vdW  Elec       q    Type
REMARK                         _______ _______ _______ _____ _____    ______ ____
ROOT
ATOM      1  C   UNL     1      46.779   6.804  13.239  0.00  0.00    +0.000 A 
ATOM      2  C   UNL     1      46.989   5.472  13.627  0.00  0.00    +0.000 A 
ATOM      3  C   UNL     1      46.121   4.460  13.209  0.00  0.00    +0.000 A 
ATOM      4  C   UNL     1      45.015   4.782  12.424  0.00  0.00    +0.000 A 
ATOM      5  C   UNL     1      44.748   6.107  12.082  0.00  0.00    +0.000 A 
ATOM      6  C   UNL     1      45.626   7.111  12.494  0.00  0.00    +0.000 A 
ENDROOT
BRANCH   4   7
ATOM      7  S   UNL     1      43.969   3.499  11.795  0.00  0.00    +0.000 S 
ATOM      8  O   UNL     1      43.710   2.580  12.884  0.00  0.00    +0.000 OA
ATOM      9  O   UNL     1      42.896   4.090  11.026  0.00  0.00    +0.000 OA
BRANCH   7  10
ATOM     10  N   UNL     1      44.981   2.672  10.727  0.00  0.00    +0.000 NA
ATOM     11  H   UNL     1      45.096   1.709  11.045  0.00  0.00    +0.000 HD
BRANCH  10  12
ATOM     12  C   UNL     1      44.783   2.881   9.282  0.00  0.00    +0.000 C 
ATOM     13  C   UNL     1      45.564   1.835   8.485  0.00  0.00    +0.000 C 
ATOM     14  C   UNL     1      46.569   2.628   7.666  0.00  0.00    +0.000 C 
ATOM     15  N   UNL     1      45.943   3.938   7.472  0.00  0.00    +0.000 NA
ATOM     16  C   UNL     1      45.332   4.221   8.778  0.00  0.00    +0.000 C 
ATOM     17  H   UNL     1      45.202   3.852   6.776  0.00  0.00    +0.000 HD
ENDBRANCH  10  12
ENDBRANCH   7  10
ENDBRANCH   4   7
BRANCH   1  18
ATOM     18  C   UNL     1      47.757   7.932  13.532  0.00  0.00    +0.000 C 
BRANCH  18  19
ATOM     19  C   UNL     1      48.949   8.152  12.566  0.00  0.00    +0.000 C 
BRANCH  19  20
ATOM     20  C   UNL     1      50.241   8.518  13.275  0.00  0.00    +0.000 A 
ATOM     21  C   UNL     1      50.274   8.894  14.610  0.00  0.00    +0.000 A 
ATOM     22  S   UNL     1      51.845   9.240  15.181  0.00  0.00    +0.000 S 
ATOM     23  C   UNL     1      52.537   8.896  13.665  0.00  0.00    +0.000 A 
ATOM     24  N   UNL     1      53.879   9.003  13.468  0.00  0.00    +0.000 NA
ATOM     25  C   UNL     1      54.265   8.713  12.271  0.00  0.00    +0.000 A 
ATOM     26  N   UNL     1      53.434   8.315  11.255  0.00  0.00    +0.000 N 
ATOM     27  C   UNL     1      52.079   8.137  11.422  0.00  0.00    +0.000 A 
ATOM     28  O   UNL     1      51.381   7.676  10.525  0.00  0.00    +0.000 OA
ATOM     29  C   UNL     1      51.587   8.503  12.740  0.00  0.00    +0.000 A 
ATOM     30  H   UNL     1      53.805   8.076  10.348  0.00  0.00    +0.000 HD
ENDBRANCH  19  20
BRANCH  19  31
ATOM     31  N   UNL     1      48.710   9.168  11.542  0.00  0.00    +0.000 NA
ATOM     32  H   UNL     1      49.474   9.842  11.534  0.00  0.00    +0.000 HD
ATOM     33  H   UNL     1      47.855   9.680  11.774  0.00  0.00    +0.000 HD
ENDBRANCH  19  31
ENDBRANCH  18  19
ENDBRANCH   1  18
TORSDOF 7
ENDMDL
MODEL 9
REMARK VINA RESULT:    -6.598      1.950      2.465
REMARK INTER + INTRA:          -9.829
REMARK INTER:                  -9.993
REMARK INTRA:                   0.165
REMARK UNBOUND:                -0.723
REMARK  Name = 
REMARK  7 active torsions:
REMARK  status: ('A' for Active; 'I' for Inactive)
REMARK    1  A    between atoms: N_1  and  C_2
REMARK    2  A    between atoms: C_2  and  C_3
REMARK    3  A    between atoms: C_2  and  C_19
REMARK    4  A    between atoms: C_3  and  C_4
REMARK    5  A    between atoms: C_7  and  S_8
REMARK    6  A    between atoms: S_8  and  N_11
REMARK    7  A    between atoms: N_11  and  C_12
REMARK                            x       y       z     vdW  Elec       q    Type
REMARK                         _______ _______ _______ _____ _____    ______ ____
ROOT
ATOM      1  C   UNL     1      46.894   4.629  14.244  0.00  0.00    +0.000 A 
ATOM      2  C   UNL     1      46.539   3.401  13.666  0.00  0.00    +0.000 A 
ATOM      3  C   UNL     1      45.924   3.351  12.412  0.00  0.00    +0.000 A 
ATOM      4  C   UNL     1      45.632   4.538  11.740  0.00  0.00    +0.000 A 
ATOM      5  C   UNL     1      45.914   5.772  12.325  0.00  0.00    +0.000 A 
ATOM      6  C   UNL     1      46.538   5.814  13.573  0.00  0.00    +0.000 A 
ENDROOT
BRANCH   4   7
ATOM      7  S   UNL     1      44.956   4.490  10.105  0.00  0.00    +0.000 S 
ATOM      8  O   UNL     1      43.514   4.419  10.235  0.00  0.00    +0.000 OA
ATOM      9  O   UNL     1      45.598   5.498   9.291  0.00  0.00    +0.000 OA
BRANCH   7  10
ATOM     10  N   UNL     1      45.439   2.975   9.538  0.00  0.00    +0.000 NA
ATOM     11  H   UNL     1      44.918   2.247  10.025  0.00  0.00    +0.000 HD
BRANCH  10  12
ATOM     12  C   UNL     1      45.626   2.807   8.086  0.00  0.00    +0.000 C 
ATOM     13  C   UNL     1      46.309   1.470   7.793  0.00  0.00    +0.000 C 
ATOM     14  C   UNL     1      47.627   1.833   7.129  0.00  0.00    +0.000 C 
ATOM     15  N   UNL     1      47.376   3.122   6.479  0.00  0.00    +0.000 NA
ATOM     16  C   UNL     1      46.565   3.849   7.466  0.00  0.00    +0.000 C 
ATOM     17  H   UNL     1      46.812   2.968   5.643  0.00  0.00    +0.000 HD
ENDBRANCH  10  12
ENDBRANCH   7  10
ENDBRANCH   4   7
BRANCH   1  18
ATOM     18  C   UNL     1      47.693   4.755  15.532  0.00  0.00    +0.000 C 
BRANCH  18  19
ATOM     19  C   UNL     1      46.996   4.419  16.875  0.00  0.00    +0.000 C 
BRANCH  19  20
ATOM     20  C   UNL     1      47.725   4.971  18.088  0.00  0.00    +0.000 A 
ATOM     21  C   UNL     1      47.127   5.857  18.973  0.00  0.00    +0.000 A 
ATOM     22  S   UNL     1      48.144   6.320  20.264  0.00  0.00    +0.000 S 
ATOM     23  C   UNL     1      49.418   5.349  19.688  0.00  0.00    +0.000 A 
ATOM     24  N   UNL     1      50.607   5.293  20.345  0.00  0.00    +0.000 NA
ATOM     25  C   UNL     1      51.482   4.519  19.795  0.00  0.00    +0.000 A 
ATOM     26  N   UNL     1      51.274   3.788  18.654  0.00  0.00    +0.000 N 
ATOM     27  C   UNL     1      50.069   3.767  17.987  0.00  0.00    +0.000 A 
ATOM     28  O   UNL     1      49.881   3.019  17.034  0.00  0.00    +0.000 OA
ATOM     29  C   UNL     1      49.068   4.666  18.537  0.00  0.00    +0.000 A 
ATOM     30  H   UNL     1      51.992   3.179  18.293  0.00  0.00    +0.000 HD
ENDBRANCH  19  20
BRANCH  19  31
ATOM     31  N   UNL     1      46.793   2.988  17.102  0.00  0.00    +0.000 NA
ATOM     32  H   UNL     1      45.840   2.818  17.419  0.00  0.00    +0.000 HD
ATOM     33  H   UNL     1      47.422   2.677  17.847  0.00  0.00    +0.000 HD
ENDBRANCH  19  31
ENDBRANCH  18  19
ENDBRANCH   1  18
TORSDOF 7
ENDMDL
