MODEL 1
REMARK VINA RESULT:    -7.185      0.000      0.000
REMARK INTER + INTRA:          -9.587
REMARK INTER:                  -9.075
REMARK INTRA:                  -0.512
REMARK UNBOUND:                -0.512
REMARK  Name = 
REMARK  5 active torsions:
REMARK  status: ('A' for Active; 'I' for Inactive)
REMARK    1  A    between atoms: N_1  and  C_2
REMARK    2  A    between atoms: C_2  and  C_3
REMARK    3  A    between atoms: C_6  and  C_7
REMARK    4  A    between atoms: C_7  and  O_8
REMARK    5  A    between atoms: O_8  and  C_9
REMARK                            x       y       z     vdW  Elec       q    Type
REMARK                         _______ _______ _______ _____ _____    ______ ____
ROOT
ATOM      1  C   UNL     1      46.651   2.367   7.501  0.00  0.00    +0.000 A 
ATOM      2  C   UNL     1      45.908   1.665   8.452  0.00  0.00    +0.000 A 
ATOM      3  C   UNL     1      45.001   2.339   9.266  0.00  0.00    +0.000 A 
ATOM      4  C   UNL     1      44.846   3.713   9.102  0.00  0.00    +0.000 A 
ATOM      5  N   UNL     1      45.579   4.424   8.207  0.00  0.00    +0.000 NA
ATOM      6  C   UNL     1      46.459   3.742   7.438  0.00  0.00    +0.000 A 
ENDROOT
BRANCH   1   7
ATOM      7  C   UNL     1      47.615   1.671   6.586  0.00  0.00    +0.000 C 
BRANCH   7   8
ATOM      8  N   UNL     1      48.729   2.541   6.223  0.00  0.00    +0.000 NA
ATOM      9  H   UNL     1      48.440   3.513   6.309  0.00  0.00    +0.000 HD
ATOM     10  H   UNL     1      48.959   2.395   5.241  0.00  0.00    +0.000 HD
ENDBRANCH   7   8
ENDBRANCH   1   7
BRANCH   4  11
ATOM     11  C   UNL     1      43.783   4.457   9.878  0.00  0.00    +0.000 C 
BRANCH  11  12
ATOM     12  O   UNL     1      43.958   4.284  11.288  0.00  0.00    +0.000 OA
BRANCH  12  13
ATOM     13  C   UNL     1      44.694   5.315  11.841  0.00  0.00    +0.000 A 
ATOM     14  N   UNL     1      44.327   6.590  11.562  0.00  0.00    +0.000 NA
ATOM     15  C   UNL     1      45.081   7.581  12.092  0.00  0.00    +0.000 A 
ATOM     16  C   UNL     1      46.181   7.357  12.904  0.00  0.00    +0.000 A 
ATOM     17 CL   UNL     1      47.095   8.672  13.520  0.00  0.00    +0.000 Cl
ATOM     18  C   UNL     1      46.530   6.046  13.204  0.00  0.00    +0.000 A 
ATOM     19  C   UNL     1      45.776   5.001  12.668  0.00  0.00    +0.000 A 
ATOM     20 CL   UNL     1      46.218   3.379  13.039  0.00  0.00    +0.000 Cl
ENDBRANCH  12  13
ENDBRANCH  11  12
ENDBRANCH   4  11
TORSDOF 5
ENDMDL
MODEL 2
REMARK VINA RESULT:    -7.053      1.898      2.435
REMARK INTER + INTRA:          -9.421
REMARK INTER:                  -9.013
REMARK INTRA:                  -0.408
REMARK UNBOUND:                -0.512
REMARK  Name = 
REMARK  5 active torsions:
REMARK  status: ('A' for Active; 'I' for Inactive)
REMARK    1  A    between atoms: N_1  and  C_2
REMARK    2  A    between atoms: C_2  and  C_3
REMARK    3  A    between atoms: C_6  and  C_7
REMARK    4  A    between atoms: C_7  and  O_8
REMARK    5  A    between atoms: O_8  and  C_9
REMARK                            x       y       z     vdW  Elec       q    Type
REMARK                         _______ _______ _______ _____ _____    ______ ____
ROOT
ATOM      1  C   UNL     1      46.584   2.683   6.872  0.00  0.00    +0.000 A 
ATOM      2  C   UNL     1      45.957   3.858   7.291  0.00  0.00    +0.000 A 
ATOM      3  C   UNL     1      45.247   3.881   8.489  0.00  0.00    +0.000 A 
ATOM      4  C   UNL     1      45.188   2.721   9.256  0.00  0.00    +0.000 A 
ATOM      5  N   UNL     1      45.761   1.556   8.856  0.00  0.00    +0.000 NA
ATOM      6  C   UNL     1      46.435   1.564   7.682  0.00  0.00    +0.000 A 
ENDROOT
BRANCH   1   7
ATOM      7  C   UNL     1      47.382   2.627   5.603  0.00  0.00    +0.000 C 
BRANCH   7   8
ATOM      8  N   UNL     1      48.548   1.760   5.743  0.00  0.00    +0.000 NA
ATOM      9  H   UNL     1      48.484   0.999   5.070  0.00  0.00    +0.000 HD
ATOM     10  H   UNL     1      48.534   1.329   6.666  0.00  0.00    +0.000 HD
ENDBRANCH   7   8
ENDBRANCH   1   7
BRANCH   4  11
ATOM     11  C   UNL     1      44.535   2.742  10.620  0.00  0.00    +0.000 C 
BRANCH  11  12
ATOM     12  O   UNL     1      44.340   4.084  11.075  0.00  0.00    +0.000 OA
BRANCH  12  13
ATOM     13  C   UNL     1      45.239   4.422  12.069  0.00  0.00    +0.000 A 
ATOM     14  N   UNL     1      45.805   3.424  12.793  0.00  0.00    +0.000 NA
ATOM     15  C   UNL     1      46.659   3.782  13.779  0.00  0.00    +0.000 A 
ATOM     16  C   UNL     1      46.988   5.096  14.069  0.00  0.00    +0.000 A 
ATOM     17 CL   UNL     1      48.067   5.465  15.351  0.00  0.00    +0.000 Cl
ATOM     18  C   UNL     1      46.423   6.108  13.302  0.00  0.00    +0.000 A 
ATOM     19  C   UNL     1      45.533   5.772  12.282  0.00  0.00    +0.000 A 
ATOM     20 CL   UNL     1      44.831   7.031  11.340  0.00  0.00    +0.000 Cl
ENDBRANCH  12  13
ENDBRANCH  11  12
ENDBRANCH   4  11
TORSDOF 5
ENDMDL
MODEL 3
REMARK VINA RESULT:    -6.281      2.732      6.034
REMARK INTER + INTRA:          -8.446
REMARK INTER:                  -8.000
REMARK INTRA:                  -0.446
REMARK UNBOUND:                -0.512
REMARK  Name = 
REMARK  5 active torsions:
REMARK  status: ('A' for Active; 'I' for Inactive)
REMARK    1  A    between atoms: N_1  and  C_2
REMARK    2  A    between atoms: C_2  and  C_3
REMARK    3  A    between atoms: C_6  and  C_7
REMARK    4  A    between atoms: C_7  and  O_8
REMARK    5  A    between atoms: O_8  and  C_9
REMARK                            x       y       z     vdW  Elec       q    Type
REMARK                         _______ _______ _______ _____ _____    ______ ____
ROOT
ATOM      1  C   UNL     1      46.929   4.819  14.386  0.00  0.00    +0.000 A 
ATOM      2  C   UNL     1      45.681   4.372  13.946  0.00  0.00    +0.000 A 
ATOM      3  C   UNL     1      45.158   4.837  12.741  0.00  0.00    +0.000 A 
ATOM      4  C   UNL     1      45.906   5.739  11.989  0.00  0.00    +0.000 A 
ATOM      5  N   UNL     1      47.107   6.214  12.410  0.00  0.00    +0.000 NA
ATOM      6  C   UNL     1      47.583   5.751  13.588  0.00  0.00    +0.000 A 
ENDROOT
BRANCH   1   7
ATOM      7  C   UNL     1      47.539   4.318  15.661  0.00  0.00    +0.000 C 
BRANCH   7   8
ATOM      8  N   UNL     1      47.933   2.917  15.551  0.00  0.00    +0.000 NA
ATOM      9  H   UNL     1      48.597   2.813  14.786  0.00  0.00    +0.000 HD
ATOM     10  H   UNL     1      47.118   2.360  15.301  0.00  0.00    +0.000 HD
ENDBRANCH   7   8
ENDBRANCH   1   7
BRANCH   4  11
ATOM     11  C   UNL     1      45.428   6.168  10.621  0.00  0.00    +0.000 C 
BRANCH  11  12
ATOM     12  O   UNL     1      44.511   5.216  10.074  0.00  0.00    +0.000 OA
BRANCH  12  13
ATOM     13  C   UNL     1      45.151   4.297   9.264  0.00  0.00    +0.000 A 
ATOM     14  N   UNL     1      45.970   4.759   8.287  0.00  0.00    +0.000 NA
ATOM     15  C   UNL     1      46.561   3.840   7.488  0.00  0.00    +0.000 A 
ATOM     16  C   UNL     1      46.384   2.474   7.630  0.00  0.00    +0.000 A 
ATOM     17 CL   UNL     1      47.156   1.376   6.561  0.00  0.00    +0.000 Cl
ATOM     18  C   UNL     1      45.563   2.012   8.653  0.00  0.00    +0.000 A 
ATOM     19  C   UNL     1      44.934   2.934   9.489  0.00  0.00    +0.000 A 
ATOM     20 CL   UNL     1      43.914   2.356  10.750  0.00  0.00    +0.000 Cl
ENDBRANCH  12  13
ENDBRANCH  11  12
ENDBRANCH   4  11
TORSDOF 5
ENDMDL
MODEL 4
REMARK VINA RESULT:    -6.029      2.881      6.188
REMARK INTER + INTRA:          -8.127
REMARK INTER:                  -7.640
REMARK INTRA:                  -0.488
REMARK UNBOUND:                -0.512
REMARK  Name = 
REMARK  5 active torsions:
REMARK  status: ('A' for Active; 'I' for Inactive)
REMARK    1  A    between atoms: N_1  and  C_2
REMARK    2  A    between atoms: C_2  and  C_3
REMARK    3  A    between atoms: C_6  and  C_7
REMARK    4  A    between atoms: C_7  and  O_8
REMARK    5  A    between atoms: O_8  and  C_9
REMARK                            x       y       z     vdW  Elec       q    Type
REMARK                         _______ _______ _______ _____ _____    ______ ____
ROOT
ATOM      1  C   UNL     1      46.811   5.077  13.864  0.00  0.00    +0.000 A 
ATOM      2  C   UNL     1      45.777   5.811  13.278  0.00  0.00    +0.000 A 
ATOM      3  C   UNL     1      44.800   5.163  12.526  0.00  0.00    +0.000 A 
ATOM      4  C   UNL     1      44.871   3.780  12.383  0.00  0.00    +0.000 A 
ATOM      5  N   UNL     1      45.884   3.047  12.915  0.00  0.00    +0.000 NA
ATOM      6  C   UNL     1      46.822   3.707  13.632  0.00  0.00    +0.000 A 
ENDROOT
BRANCH   1   7
ATOM      7  C   UNL     1      47.863   5.736  14.706  0.00  0.00    +0.000 C 
BRANCH   7   8
ATOM      8  N   UNL     1      47.985   5.090  16.010  0.00  0.00    +0.000 NA
ATOM      9  H   UNL     1      47.059   4.842  16.351  0.00  0.00    +0.000 HD
ATOM     10  H   UNL     1      48.368   5.758  16.677  0.00  0.00    +0.000 HD
ENDBRANCH   7   8
ENDBRANCH   1   7
BRANCH   4  11
ATOM     11  C   UNL     1      43.762   3.029  11.682  0.00  0.00    +0.000 C 
BRANCH  11  12
ATOM     12  O   UNL     1      43.560   3.530  10.357  0.00  0.00    +0.000 OA
BRANCH  12  13
ATOM     13  C   UNL     1      44.510   3.046   9.477  0.00  0.00    +0.000 A 
ATOM     14  N   UNL     1      44.519   1.717   9.206  0.00  0.00    +0.000 NA
ATOM     15  C   UNL     1      45.477   1.264   8.365  0.00  0.00    +0.000 A 
ATOM     16  C   UNL     1      46.422   2.081   7.767  0.00  0.00    +0.000 A 
ATOM     17 CL   UNL     1      47.616   1.422   6.726  0.00  0.00    +0.000 Cl
ATOM     18  C   UNL     1      46.385   3.445   8.031  0.00  0.00    +0.000 A 
ATOM     19  C   UNL     1      45.413   3.944   8.900  0.00  0.00    +0.000 A 
ATOM     20 CL   UNL     1      45.376   5.633   9.228  0.00  0.00    +0.000 Cl
ENDBRANCH  12  13
ENDBRANCH  11  12
ENDBRANCH   4  11
TORSDOF 5
ENDMDL
MODEL 5
REMARK VINA RESULT:    -5.655      4.414      5.769
REMARK INTER + INTRA:          -7.655
REMARK INTER:                  -7.349
REMARK INTRA:                  -0.306
REMARK UNBOUND:                -0.512
REMARK  Name = 
REMARK  5 active torsions:
REMARK  status: ('A' for Active; 'I' for Inactive)
REMARK    1  A    between atoms: N_1  and  C_2
REMARK    2  A    between atoms: C_2  and  C_3
REMARK    3  A    between atoms: C_6  and  C_7
REMARK    4  A    between atoms: C_7  and  O_8
REMARK    5  A    between atoms: O_8  and  C_9
REMARK                            x       y       z     vdW  Elec       q    Type
REMARK                         _______ _______ _______ _____ _____    ______ ____
ROOT
ATOM      1  C   UNL     1      44.951   4.359  10.974  0.00  0.00    +0.000 A 
ATOM      2  C   UNL     1      45.547   5.595  11.233  0.00  0.00    +0.000 A 
ATOM      3  C   UNL     1      46.223   5.807  12.432  0.00  0.00    +0.000 A 
ATOM      4  C   UNL     1      46.300   4.764  13.351  0.00  0.00    +0.000 A 
ATOM      5  N   UNL     1      45.702   3.563  13.138  0.00  0.00    +0.000 NA
ATOM      6  C   UNL     1      45.044   3.392  11.968  0.00  0.00    +0.000 A 
ENDROOT
BRANCH   1   7
ATOM      7  C   UNL     1      44.241   4.084   9.681  0.00  0.00    +0.000 C 
BRANCH   7   8
ATOM      8  N   UNL     1      45.033   4.518   8.534  0.00  0.00    +0.000 NA
ATOM      9  H   UNL     1      45.275   3.709   7.966  0.00  0.00    +0.000 HD
ATOM     10  H   UNL     1      45.913   4.911   8.865  0.00  0.00    +0.000 HD
ENDBRANCH   7   8
ENDBRANCH   1   7
BRANCH   4  11
ATOM     11  C   UNL     1      47.130   4.915  14.606  0.00  0.00    +0.000 C 
BRANCH  11  12
ATOM     12  O   UNL     1      47.137   3.704  15.367  0.00  0.00    +0.000 OA
BRANCH  12  13
ATOM     13  C   UNL     1      47.575   3.916  16.660  0.00  0.00    +0.000 A 
ATOM     14  N   UNL     1      47.017   4.926  17.373  0.00  0.00    +0.000 NA
ATOM     15  C   UNL     1      47.484   5.131  18.626  0.00  0.00    +0.000 A 
ATOM     16  C   UNL     1      48.478   4.362  19.210  0.00  0.00    +0.000 A 
ATOM     17 CL   UNL     1      49.027   4.703  20.799  0.00  0.00    +0.000 Cl
ATOM     18  C   UNL     1      49.023   3.313  18.479  0.00  0.00    +0.000 A 
ATOM     19  C   UNL     1      48.567   3.079  17.181  0.00  0.00    +0.000 A 
ATOM     20 CL   UNL     1      49.251   1.781  16.279  0.00  0.00    +0.000 Cl
ENDBRANCH  12  13
ENDBRANCH  11  12
ENDBRANCH   4  11
TORSDOF 5
ENDMDL
MODEL 6
REMARK VINA RESULT:    -5.653      4.642      7.870
REMARK INTER + INTRA:          -7.652
REMARK INTER:                  -7.305
REMARK INTRA:                  -0.347
REMARK UNBOUND:                -0.512
REMARK  Name = 
REMARK  5 active torsions:
REMARK  status: ('A' for Active; 'I' for Inactive)
REMARK    1  A    between atoms: N_1  and  C_2
REMARK    2  A    between atoms: C_2  and  C_3
REMARK    3  A    between atoms: C_6  and  C_7
REMARK    4  A    between atoms: C_7  and  O_8
REMARK    5  A    between atoms: O_8  and  C_9
REMARK                            x       y       z     vdW  Elec       q    Type
REMARK                         _______ _______ _______ _____ _____    ______ ____
ROOT
ATOM      1  C   UNL     1      48.410   4.582  18.441  0.00  0.00    +0.000 A 
ATOM      2  C   UNL     1      48.573   5.548  17.446  0.00  0.00    +0.000 A 
ATOM      3  C   UNL     1      48.186   5.274  16.137  0.00  0.00    +0.000 A 
ATOM      4  C   UNL     1      47.628   4.031  15.848  0.00  0.00    +0.000 A 
ATOM      5  N   UNL     1      47.488   3.063  16.790  0.00  0.00    +0.000 NA
ATOM      6  C   UNL     1      47.882   3.356  18.051  0.00  0.00    +0.000 A 
ENDROOT
BRANCH   1   7
ATOM      7  C   UNL     1      48.786   4.851  19.868  0.00  0.00    +0.000 C 
BRANCH   7   8
ATOM      8  N   UNL     1      48.368   3.761  20.745  0.00  0.00    +0.000 NA
ATOM      9  H   UNL     1      49.192   3.290  21.113  0.00  0.00    +0.000 HD
ATOM     10  H   UNL     1      47.860   3.068  20.198  0.00  0.00    +0.000 HD
ENDBRANCH   7   8
ENDBRANCH   1   7
BRANCH   4  11
ATOM     11  C   UNL     1      47.082   3.744  14.468  0.00  0.00    +0.000 C 
BRANCH  11  12
ATOM     12  O   UNL     1      45.846   4.431  14.251  0.00  0.00    +0.000 OA
BRANCH  12  13
ATOM     13  C   UNL     1      45.468   4.393  12.922  0.00  0.00    +0.000 A 
ATOM     14  N   UNL     1      44.854   3.276  12.458  0.00  0.00    +0.000 NA
ATOM     15  C   UNL     1      44.520   3.253  11.147  0.00  0.00    +0.000 A 
ATOM     16  C   UNL     1      44.758   4.304  10.276  0.00  0.00    +0.000 A 
ATOM     17 CL   UNL     1      44.320   4.185   8.621  0.00  0.00    +0.000 Cl
ATOM     18  C   UNL     1      45.362   5.454  10.771  0.00  0.00    +0.000 A 
ATOM     19  C   UNL     1      45.725   5.507  12.117  0.00  0.00    +0.000 A 
ATOM     20 CL   UNL     1      46.479   6.932  12.722  0.00  0.00    +0.000 Cl
ENDBRANCH  12  13
ENDBRANCH  11  12
ENDBRANCH   4  11
TORSDOF 5
ENDMDL
MODEL 7
REMARK VINA RESULT:    -5.507      2.497      6.312
REMARK INTER + INTRA:          -7.468
REMARK INTER:                  -7.340
REMARK INTRA:                  -0.128
REMARK UNBOUND:                -0.512
REMARK  Name = 
REMARK  5 active torsions:
REMARK  status: ('A' for Active; 'I' for Inactive)
REMARK    1  A    between atoms: N_1  and  C_2
REMARK    2  A    between atoms: C_2  and  C_3
REMARK    3  A    between atoms: C_6  and  C_7
REMARK    4  A    between atoms: C_7  and  O_8
REMARK    5  A    between atoms: O_8  and  C_9
REMARK                            x       y       z     vdW  Elec       q    Type
REMARK                         _______ _______ _______ _____ _____    ______ ____
ROOT
ATOM      1  C   UNL     1      46.895   8.746  12.085  0.00  0.00    +0.000 A 
ATOM      2  C   UNL     1      47.547   7.534  11.846  0.00  0.00    +0.000 A 
ATOM      3  C   UNL     1      46.811   6.357  11.726  0.00  0.00    +0.000 A 
ATOM      4  C   UNL     1      45.424   6.419  11.837  0.00  0.00    +0.000 A 
ATOM      5  N   UNL     1      44.769   7.579  12.100  0.00  0.00    +0.000 NA
ATOM      6  C   UNL     1      45.512   8.703  12.222  0.00  0.00    +0.000 A 
ENDROOT
BRANCH   1   7
ATOM      7  C   UNL     1      47.650  10.037  12.190  0.00  0.00    +0.000 C 
BRANCH   7   8
ATOM      8  N   UNL     1      46.764  11.149  12.521  0.00  0.00    +0.000 NA
ATOM      9  H   UNL     1      45.807  10.809  12.586  0.00  0.00    +0.000 HD
ATOM     10  H   UNL     1      46.778  11.825  11.759  0.00  0.00    +0.000 HD
ENDBRANCH   7   8
ENDBRANCH   1   7
BRANCH   4  11
ATOM     11  C   UNL     1      44.585   5.187  11.587  0.00  0.00    +0.000 C 
BRANCH  11  12
ATOM     12  O   UNL     1      44.122   5.146  10.234  0.00  0.00    +0.000 OA
BRANCH  12  13
ATOM     13  C   UNL     1      44.819   4.218   9.483  0.00  0.00    +0.000 A 
ATOM     14  N   UNL     1      45.680   4.669   8.537  0.00  0.00    +0.000 NA
ATOM     15  C   UNL     1      46.327   3.741   7.796  0.00  0.00    +0.000 A 
ATOM     16  C   UNL     1      46.167   2.375   7.966  0.00  0.00    +0.000 A 
ATOM     17 CL   UNL     1      47.013   1.265   6.969  0.00  0.00    +0.000 Cl
ATOM     18  C   UNL     1      45.302   1.926   8.957  0.00  0.00    +0.000 A 
ATOM     19  C   UNL     1      44.614   2.858   9.735  0.00  0.00    +0.000 A 
ATOM     20 CL   UNL     1      43.540   2.294  10.957  0.00  0.00    +0.000 Cl
ENDBRANCH  12  13
ENDBRANCH  11  12
ENDBRANCH   4  11
TORSDOF 5
ENDMDL
MODEL 8
REMARK VINA RESULT:    -5.463      4.487      6.093
REMARK INTER + INTRA:          -7.413
REMARK INTER:                  -7.071
REMARK INTRA:                  -0.341
REMARK UNBOUND:                -0.512
REMARK  Name = 
REMARK  5 active torsions:
REMARK  status: ('A' for Active; 'I' for Inactive)
REMARK    1  A    between atoms: N_1  and  C_2
REMARK    2  A    between atoms: C_2  and  C_3
REMARK    3  A    between atoms: C_6  and  C_7
REMARK    4  A    between atoms: C_7  and  O_8
REMARK    5  A    between atoms: O_8  and  C_9
REMARK                            x       y       z     vdW  Elec       q    Type
REMARK                         _______ _______ _______ _____ _____    ______ ____
ROOT
ATOM      1  C   UNL     1      44.980   4.045  11.146  0.00  0.00    +0.000 A 
ATOM      2  C   UNL     1      45.396   5.366  11.327  0.00  0.00    +0.000 A 
ATOM      3  C   UNL     1      46.080   5.730  12.484  0.00  0.00    +0.000 A 
ATOM      4  C   UNL     1      46.347   4.754  13.441  0.00  0.00    +0.000 A 
ATOM      5  N   UNL     1      45.926   3.470  13.304  0.00  0.00    +0.000 NA
ATOM      6  C   UNL     1      45.255   3.150  12.173  0.00  0.00    +0.000 A 
ENDROOT
BRANCH   1   7
ATOM      7  C   UNL     1      44.269   3.609   9.900  0.00  0.00    +0.000 C 
BRANCH   7   8
ATOM      8  N   UNL     1      44.136   2.156   9.840  0.00  0.00    +0.000 NA
ATOM      9  H   UNL     1      45.001   1.726  10.162  0.00  0.00    +0.000 HD
ATOM     10  H   UNL     1      44.018   1.872   8.870  0.00  0.00    +0.000 HD
ENDBRANCH   7   8
ENDBRANCH   1   7
BRANCH   4  11
ATOM     11  C   UNL     1      47.194   5.084  14.648  0.00  0.00    +0.000 C 
BRANCH  11  12
ATOM     12  O   UNL     1      46.888   4.217  15.744  0.00  0.00    +0.000 OA
BRANCH  12  13
ATOM     13  C   UNL     1      48.022   3.606  16.245  0.00  0.00    +0.000 A 
ATOM     14  N   UNL     1      48.387   2.404  15.732  0.00  0.00    +0.000 NA
ATOM     15  C   UNL     1      49.484   1.813  16.260  0.00  0.00    +0.000 A 
ATOM     16  C   UNL     1      50.246   2.376  17.271  0.00  0.00    +0.000 A 
ATOM     17 CL   UNL     1      51.613   1.550  17.898  0.00  0.00    +0.000 Cl
ATOM     18  C   UNL     1      49.877   3.620  17.768  0.00  0.00    +0.000 A 
ATOM     19  C   UNL     1      48.747   4.253  17.250  0.00  0.00    +0.000 A 
ATOM     20 CL   UNL     1      48.292   5.792  17.875  0.00  0.00    +0.000 Cl
ENDBRANCH  12  13
ENDBRANCH  11  12
ENDBRANCH   4  11
TORSDOF 5
ENDMDL
MODEL 9
REMARK VINA RESULT:    -5.403      4.231      5.655
REMARK INTER + INTRA:          -7.336
REMARK INTER:                  -7.036
REMARK INTRA:                  -0.300
REMARK UNBOUND:                -0.512
REMARK  Name = 
REMARK  5 active torsions:
REMARK  status: ('A' for Active; 'I' for Inactive)
REMARK    1  A    between atoms: N_1  and  C_2
REMARK    2  A    between atoms: C_2  and  C_3
REMARK    3  A    between atoms: C_6  and  C_7
REMARK    4  A    between atoms: C_7  and  O_8
REMARK    5  A    between atoms: O_8  and  C_9
REMARK                            x       y       z     vdW  Elec       q    Type
REMARK                         _______ _______ _______ _____ _____    ______ ____
ROOT
ATOM      1  C   UNL     1      44.925   4.099  11.076  0.00  0.00    +0.000 A 
ATOM      2  C   UNL     1      45.414   5.406  11.027  0.00  0.00    +0.000 A 
ATOM      3  C   UNL     1      46.161   5.912  12.088  0.00  0.00    +0.000 A 
ATOM      4  C   UNL     1      46.416   5.089  13.181  0.00  0.00    +0.000 A 
ATOM      5  N   UNL     1      45.925   3.825  13.268  0.00  0.00    +0.000 NA
ATOM      6  C   UNL     1      45.195   3.366  12.226  0.00  0.00    +0.000 A 
ENDROOT
BRANCH   1   7
ATOM      7  C   UNL     1      44.143   3.509   9.940  0.00  0.00    +0.000 C 
BRANCH   7   8
ATOM      8  N   UNL     1      44.124   4.401   8.785  0.00  0.00    +0.000 NA
ATOM      9  H   UNL     1      43.849   3.874   7.958  0.00  0.00    +0.000 HD
ATOM     10  H   UNL     1      45.068   4.739   8.609  0.00  0.00    +0.000 HD
ENDBRANCH   7   8
ENDBRANCH   1   7
BRANCH   4  11
ATOM     11  C   UNL     1      47.327   5.560  14.292  0.00  0.00    +0.000 C 
BRANCH  11  12
ATOM     12  O   UNL     1      47.773   4.461  15.093  0.00  0.00    +0.000 OA
BRANCH  12  13
ATOM     13  C   UNL     1      48.402   4.891  16.246  0.00  0.00    +0.000 A 
ATOM     14  N   UNL     1      49.206   5.981  16.174  0.00  0.00    +0.000 NA
ATOM     15  C   UNL     1      49.833   6.364  17.310  0.00  0.00    +0.000 A 
ATOM     16  C   UNL     1      49.682   5.716  18.525  0.00  0.00    +0.000 A 
ATOM     17 CL   UNL     1      50.530   6.255  19.915  0.00  0.00    +0.000 Cl
ATOM     18  C   UNL     1      48.833   4.617  18.592  0.00  0.00    +0.000 A 
ATOM     19  C   UNL     1      48.177   4.192  17.436  0.00  0.00    +0.000 A 
ATOM     20 CL   UNL     1      47.132   2.827  17.525  0.00  0.00    +0.000 Cl
ENDBRANCH  12  13
ENDBRANCH  11  12
ENDBRANCH   4  11
TORSDOF 5
ENDMDL
