MODEL 1
REMARK VINA RESULT:    -5.760      0.000      0.000
REMARK INTER + INTRA:          -7.064
REMARK INTER:                  -6.770
REMARK INTRA:                  -0.294
REMARK UNBOUND:                -0.294
REMARK  Name = 
REMARK  4 active torsions:
REMARK  status: ('A' for Active; 'I' for Inactive)
REMARK    1  A    between atoms: C_1  and  S_2
REMARK    2  A    between atoms: S_2  and  C_5
REMARK    3  A    between atoms: C_9  and  C_10
REMARK    4  A    between atoms: C_11  and  C_12
REMARK                            x       y       z     vdW  Elec       q    Type
REMARK                         _______ _______ _______ _____ _____    ______ ____
ROOT
ATOM      1  C   UNL     1      45.064   4.649  11.768  0.00  0.00    +0.000 A 
ATOM      2  C   UNL     1      45.394   5.581  10.808  0.00  0.00    +0.000 A 
ATOM      3  N   UNL     1      46.404   6.463  11.010  0.00  0.00    +0.000 NA
ATOM      4  C   UNL     1      47.043   6.352  12.203  0.00  0.00    +0.000 A 
ATOM      5  C   UNL     1      46.696   5.409  13.172  0.00  0.00    +0.000 A 
ATOM      6  N   UNL     1      45.688   4.531  12.967  0.00  0.00    +0.000 NA
ENDROOT
BRANCH   1   8
ATOM      7  C   UNL     1      44.275   2.608  10.013  0.00  0.00    +0.000 C 
ATOM      8  S   UNL     1      43.769   3.495  11.465  0.00  0.00    +0.000 S 
ATOM      9  O   UNL     1      42.585   4.263  11.127  0.00  0.00    +0.000 OA
ATOM     10  O   UNL     1      43.760   2.561  12.576  0.00  0.00    +0.000 OA
ENDBRANCH   1   8
BRANCH   5  11
ATOM     11  C   UNL     1      47.414   5.332  14.448  0.00  0.00    +0.000 C 
ATOM     12  C   UNL     1      47.153   4.418  15.396  0.00  0.00    +0.000 C 
BRANCH  12  13
ATOM     13  C   UNL     1      47.884   4.335  16.667  0.00  0.00    +0.000 A 
ATOM     14  C   UNL     1      47.820   3.225  17.512  0.00  0.00    +0.000 A 
ATOM     15  C   UNL     1      48.549   3.210  18.699  0.00  0.00    +0.000 A 
ATOM     16  C   UNL     1      49.340   4.307  18.999  0.00  0.00    +0.000 A 
ATOM     17  N   UNL     1      49.448   5.390  18.202  0.00  0.00    +0.000 NA
ATOM     18  C   UNL     1      48.724   5.376  17.058  0.00  0.00    +0.000 A 
ENDBRANCH  12  13
ENDBRANCH   5  11
TORSDOF 3
ENDMDL
MODEL 2
REMARK VINA RESULT:    -5.740      3.056      5.436
REMARK INTER + INTRA:          -7.040
REMARK INTER:                  -6.765
REMARK INTRA:                  -0.276
REMARK UNBOUND:                -0.294
REMARK  Name = 
REMARK  4 active torsions:
REMARK  status: ('A' for Active; 'I' for Inactive)
REMARK    1  A    between atoms: C_1  and  S_2
REMARK    2  A    between atoms: S_2  and  C_5
REMARK    3  A    between atoms: C_9  and  C_10
REMARK    4  A    between atoms: C_11  and  C_12
REMARK                            x       y       z     vdW  Elec       q    Type
REMARK                         _______ _______ _______ _____ _____    ______ ____
ROOT
ATOM      1  C   UNL     1      45.132   4.205  11.771  0.00  0.00    +0.000 A 
ATOM      2  C   UNL     1      45.454   3.474  12.895  0.00  0.00    +0.000 A 
ATOM      3  N   UNL     1      46.370   3.929  13.784  0.00  0.00    +0.000 NA
ATOM      4  C   UNL     1      46.928   5.129  13.482  0.00  0.00    +0.000 A 
ATOM      5  C   UNL     1      46.601   5.859  12.337  0.00  0.00    +0.000 A 
ATOM      6  N   UNL     1      45.685   5.402  11.452  0.00  0.00    +0.000 NA
ENDROOT
BRANCH   1   8
ATOM      7  C   UNL     1      44.803   2.567   9.518  0.00  0.00    +0.000 C 
ATOM      8  S   UNL     1      43.914   3.605  10.650  0.00  0.00    +0.000 S 
ATOM      9  O   UNL     1      43.419   4.750   9.909  0.00  0.00    +0.000 OA
ATOM     10  O   UNL     1      43.011   2.762  11.412  0.00  0.00    +0.000 OA
ENDBRANCH   1   8
BRANCH   5  11
ATOM     11  C   UNL     1      47.235   7.150  12.052  0.00  0.00    +0.000 C 
ATOM     12  C   UNL     1      48.563   7.326  11.968  0.00  0.00    +0.000 C 
BRANCH  12  13
ATOM     13  C   UNL     1      49.193   8.618  11.668  0.00  0.00    +0.000 A 
ATOM     14  C   UNL     1      48.486   9.822  11.645  0.00  0.00    +0.000 A 
ATOM     15  C   UNL     1      49.148  11.015  11.363  0.00  0.00    +0.000 A 
ATOM     16  C   UNL     1      50.513  10.968  11.129  0.00  0.00    +0.000 A 
ATOM     17  N   UNL     1      51.238   9.832  11.162  0.00  0.00    +0.000 NA
ATOM     18  C   UNL     1      50.564   8.690  11.435  0.00  0.00    +0.000 A 
ENDBRANCH  12  13
ENDBRANCH   5  11
TORSDOF 3
ENDMDL
MODEL 3
REMARK VINA RESULT:    -5.256      3.921      7.013
REMARK INTER + INTRA:          -6.472
REMARK INTER:                  -6.159
REMARK INTRA:                  -0.313
REMARK UNBOUND:                -0.294
REMARK  Name = 
REMARK  4 active torsions:
REMARK  status: ('A' for Active; 'I' for Inactive)
REMARK    1  A    between atoms: C_1  and  S_2
REMARK    2  A    between atoms: S_2  and  C_5
REMARK    3  A    between atoms: C_9  and  C_10
REMARK    4  A    between atoms: C_11  and  C_12
REMARK                            x       y       z     vdW  Elec       q    Type
REMARK                         _______ _______ _______ _____ _____    ______ ____
ROOT
ATOM      1  C   UNL     1      48.615   5.918  16.120  0.00  0.00    +0.000 A 
ATOM      2  C   UNL     1      49.045   7.220  16.261  0.00  0.00    +0.000 A 
ATOM      3  N   UNL     1      48.839   8.133  15.281  0.00  0.00    +0.000 NA
ATOM      4  C   UNL     1      48.193   7.669  14.180  0.00  0.00    +0.000 A 
ATOM      5  C   UNL     1      47.767   6.346  14.044  0.00  0.00    +0.000 A 
ATOM      6  N   UNL     1      47.974   5.438  15.025  0.00  0.00    +0.000 NA
ENDROOT
BRANCH   1   8
ATOM      7  C   UNL     1      47.408   3.750  17.429  0.00  0.00    +0.000 C 
ATOM      8  S   UNL     1      48.867   4.762  17.424  0.00  0.00    +0.000 S 
ATOM      9  O   UNL     1      48.888   5.518  18.663  0.00  0.00    +0.000 OA
ATOM     10  O   UNL     1      49.988   3.924  17.042  0.00  0.00    +0.000 OA
ENDBRANCH   1   8
BRANCH   5  11
ATOM     11  C   UNL     1      47.076   5.891  12.833  0.00  0.00    +0.000 C 
ATOM     12  C   UNL     1      46.120   4.948  12.830  0.00  0.00    +0.000 C 
BRANCH  12  13
ATOM     13  C   UNL     1      45.421   4.506  11.617  0.00  0.00    +0.000 A 
ATOM     14  C   UNL     1      45.603   5.109  10.371  0.00  0.00    +0.000 A 
ATOM     15  C   UNL     1      44.914   4.633   9.257  0.00  0.00    +0.000 A 
ATOM     16  C   UNL     1      44.072   3.545   9.423  0.00  0.00    +0.000 A 
ATOM     17  N   UNL     1      43.883   2.919  10.602  0.00  0.00    +0.000 NA
ATOM     18  C   UNL     1      44.562   3.410  11.665  0.00  0.00    +0.000 A 
ENDBRANCH  12  13
ENDBRANCH   5  11
TORSDOF 3
ENDMDL
MODEL 4
REMARK VINA RESULT:    -5.159      4.136      7.485
REMARK INTER + INTRA:          -6.358
REMARK INTER:                  -6.096
REMARK INTRA:                  -0.262
REMARK UNBOUND:                -0.294
REMARK  Name = 
REMARK  4 active torsions:
REMARK  status: ('A' for Active; 'I' for Inactive)
REMARK    1  A    between atoms: C_1  and  S_2
REMARK    2  A    between atoms: S_2  and  C_5
REMARK    3  A    between atoms: C_9  and  C_10
REMARK    4  A    between atoms: C_11  and  C_12
REMARK                            x       y       z     vdW  Elec       q    Type
REMARK                         _______ _______ _______ _____ _____    ______ ____
ROOT
ATOM      1  C   UNL     1      48.852   5.671  16.652  0.00  0.00    +0.000 A 
ATOM      2  C   UNL     1      48.525   4.950  17.781  0.00  0.00    +0.000 A 
ATOM      3  N   UNL     1      47.612   3.949  17.729  0.00  0.00    +0.000 NA
ATOM      4  C   UNL     1      47.063   3.725  16.507  0.00  0.00    +0.000 A 
ATOM      5  C   UNL     1      47.396   4.465  15.372  0.00  0.00    +0.000 A 
ATOM      6  N   UNL     1      48.308   5.463  15.427  0.00  0.00    +0.000 NA
ENDROOT
BRANCH   1   8
ATOM      7  C   UNL     1      51.001   6.583  18.207  0.00  0.00    +0.000 C 
ATOM      8  S   UNL     1      50.066   6.943  16.742  0.00  0.00    +0.000 S 
ATOM      9  O   UNL     1      49.358   8.191  16.962  0.00  0.00    +0.000 OA
ATOM     10  O   UNL     1      50.946   6.776  15.601  0.00  0.00    +0.000 OA
ENDBRANCH   1   8
BRANCH   5  11
ATOM     11  C   UNL     1      46.772   4.188  14.074  0.00  0.00    +0.000 C 
ATOM     12  C   UNL     1      45.710   4.858  13.599  0.00  0.00    +0.000 C 
BRANCH  12  13
ATOM     13  C   UNL     1      45.097   4.586  12.293  0.00  0.00    +0.000 A 
ATOM     14  C   UNL     1      45.527   5.191  11.110  0.00  0.00    +0.000 A 
ATOM     15  C   UNL     1      44.907   4.879   9.902  0.00  0.00    +0.000 A 
ATOM     16  C   UNL     1      43.879   3.951   9.912  0.00  0.00    +0.000 A 
ATOM     17  N   UNL     1      43.446   3.328  11.027  0.00  0.00    +0.000 NA
ATOM     18  C   UNL     1      44.066   3.655  12.185  0.00  0.00    +0.000 A 
ENDBRANCH  12  13
ENDBRANCH   5  11
TORSDOF 3
ENDMDL
MODEL 5
REMARK VINA RESULT:    -5.003      3.944      4.898
REMARK INTER + INTRA:          -6.174
REMARK INTER:                  -5.916
REMARK INTRA:                  -0.258
REMARK UNBOUND:                -0.294
REMARK  Name = 
REMARK  4 active torsions:
REMARK  status: ('A' for Active; 'I' for Inactive)
REMARK    1  A    between atoms: C_1  and  S_2
REMARK    2  A    between atoms: S_2  and  C_5
REMARK    3  A    between atoms: C_9  and  C_10
REMARK    4  A    between atoms: C_11  and  C_12
REMARK                            x       y       z     vdW  Elec       q    Type
REMARK                         _______ _______ _______ _____ _____    ______ ____
ROOT
ATOM      1  C   UNL     1      45.095   5.273  11.949  0.00  0.00    +0.000 A 
ATOM      2  C   UNL     1      44.167   6.262  11.698  0.00  0.00    +0.000 A 
ATOM      3  N   UNL     1      44.528   7.567  11.671  0.00  0.00    +0.000 NA
ATOM      4  C   UNL     1      45.844   7.812  11.906  0.00  0.00    +0.000 A 
ATOM      5  C   UNL     1      46.775   6.805  12.166  0.00  0.00    +0.000 A 
ATOM      6  N   UNL     1      46.410   5.502  12.192  0.00  0.00    +0.000 NA
ENDROOT
BRANCH   1   8
ATOM      7  C   UNL     1      44.850   3.037  10.274  0.00  0.00    +0.000 C 
ATOM      8  S   UNL     1      44.603   3.583  11.945  0.00  0.00    +0.000 S 
ATOM      9  O   UNL     1      43.178   3.554  12.216  0.00  0.00    +0.000 OA
ATOM     10  O   UNL     1      45.537   2.864  12.791  0.00  0.00    +0.000 OA
ENDBRANCH   1   8
BRANCH   5  11
ATOM     11  C   UNL     1      48.184   7.120  12.418  0.00  0.00    +0.000 C 
ATOM     12  C   UNL     1      49.023   7.588  11.480  0.00  0.00    +0.000 C 
BRANCH  12  13
ATOM     13  C   UNL     1      50.430   7.915  11.741  0.00  0.00    +0.000 A 
ATOM     14  C   UNL     1      51.428   7.817  10.768  0.00  0.00    +0.000 A 
ATOM     15  C   UNL     1      52.743   8.154  11.082  0.00  0.00    +0.000 A 
ATOM     16  C   UNL     1      53.018   8.600  12.364  0.00  0.00    +0.000 A 
ATOM     17  N   UNL     1      52.084   8.730  13.327  0.00  0.00    +0.000 NA
ATOM     18  C   UNL     1      50.817   8.391  12.992  0.00  0.00    +0.000 A 
ENDBRANCH  12  13
ENDBRANCH   5  11
TORSDOF 3
ENDMDL
MODEL 6
REMARK VINA RESULT:    -4.939      4.229      5.155
REMARK INTER + INTRA:          -6.099
REMARK INTER:                  -5.808
REMARK INTRA:                  -0.290
REMARK UNBOUND:                -0.294
REMARK  Name = 
REMARK  4 active torsions:
REMARK  status: ('A' for Active; 'I' for Inactive)
REMARK    1  A    between atoms: C_1  and  S_2
REMARK    2  A    between atoms: S_2  and  C_5
REMARK    3  A    between atoms: C_9  and  C_10
REMARK    4  A    between atoms: C_11  and  C_12
REMARK                            x       y       z     vdW  Elec       q    Type
REMARK                         _______ _______ _______ _____ _____    ______ ____
ROOT
ATOM      1  C   UNL     1      44.547   3.517  10.649  0.00  0.00    +0.000 A 
ATOM      2  C   UNL     1      43.835   2.886  11.646  0.00  0.00    +0.000 A 
ATOM      3  N   UNL     1      43.792   3.394  12.902  0.00  0.00    +0.000 NA
ATOM      4  C   UNL     1      44.491   4.543  13.088  0.00  0.00    +0.000 A 
ATOM      5  C   UNL     1      45.215   5.172  12.074  0.00  0.00    +0.000 A 
ATOM      6  N   UNL     1      45.255   4.661  10.821  0.00  0.00    +0.000 NA
ENDROOT
BRANCH   1   8
ATOM      7  C   UNL     1      46.266   2.521   8.669  0.00  0.00    +0.000 C 
ATOM      8  S   UNL     1      44.558   2.851   9.019  0.00  0.00    +0.000 S 
ATOM      9  O   UNL     1      44.117   3.907   8.126  0.00  0.00    +0.000 OA
ATOM     10  O   UNL     1      43.860   1.580   9.072  0.00  0.00    +0.000 OA
ENDBRANCH   1   8
BRANCH   5  11
ATOM     11  C   UNL     1      45.958   6.410  12.325  0.00  0.00    +0.000 C 
ATOM     12  C   UNL     1      47.065   6.765  11.653  0.00  0.00    +0.000 C 
BRANCH  12  13
ATOM     13  C   UNL     1      47.797   8.014  11.899  0.00  0.00    +0.000 A 
ATOM     14  C   UNL     1      49.156   8.169  11.615  0.00  0.00    +0.000 A 
ATOM     15  C   UNL     1      49.787   9.386  11.864  0.00  0.00    +0.000 A 
ATOM     16  C   UNL     1      49.028  10.425  12.377  0.00  0.00    +0.000 A 
ATOM     17  N   UNL     1      47.710  10.327  12.647  0.00  0.00    +0.000 NA
ATOM     18  C   UNL     1      47.128   9.130  12.398  0.00  0.00    +0.000 A 
ENDBRANCH  12  13
ENDBRANCH   5  11
TORSDOF 3
ENDMDL
MODEL 7
REMARK VINA RESULT:    -4.835      4.974      7.186
REMARK INTER + INTRA:          -5.977
REMARK INTER:                  -5.713
REMARK INTRA:                  -0.265
REMARK UNBOUND:                -0.294
REMARK  Name = 
REMARK  4 active torsions:
REMARK  status: ('A' for Active; 'I' for Inactive)
REMARK    1  A    between atoms: C_1  and  S_2
REMARK    2  A    between atoms: S_2  and  C_5
REMARK    3  A    between atoms: C_9  and  C_10
REMARK    4  A    between atoms: C_11  and  C_12
REMARK                            x       y       z     vdW  Elec       q    Type
REMARK                         _______ _______ _______ _____ _____    ______ ____
ROOT
ATOM      1  C   UNL     1      50.188   7.691  14.411  0.00  0.00    +0.000 A 
ATOM      2  C   UNL     1      50.575   8.524  13.383  0.00  0.00    +0.000 A 
ATOM      3  N   UNL     1      49.945   8.490  12.184  0.00  0.00    +0.000 NA
ATOM      4  C   UNL     1      48.931   7.592  12.084  0.00  0.00    +0.000 A 
ATOM      5  C   UNL     1      48.551   6.748  13.129  0.00  0.00    +0.000 A 
ATOM      6  N   UNL     1      49.182   6.785  14.325  0.00  0.00    +0.000 NA
ENDROOT
BRANCH   1   8
ATOM      7  C   UNL     1      49.767   8.364  17.101  0.00  0.00    +0.000 C 
ATOM      8  S   UNL     1      51.003   7.780  15.969  0.00  0.00    +0.000 S 
ATOM      9  O   UNL     1      52.024   8.805  15.857  0.00  0.00    +0.000 OA
ATOM     10  O   UNL     1      51.348   6.423  16.350  0.00  0.00    +0.000 OA
ENDBRANCH   1   8
BRANCH   5  11
ATOM     11  C   UNL     1      47.452   5.791  12.971  0.00  0.00    +0.000 C 
ATOM     12  C   UNL     1      46.415   5.977  12.138  0.00  0.00    +0.000 C 
BRANCH  12  13
ATOM     13  C   UNL     1      45.324   5.009  11.973  0.00  0.00    +0.000 A 
ATOM     14  C   UNL     1      44.862   4.588  10.724  0.00  0.00    +0.000 A 
ATOM     15  C   UNL     1      43.828   3.658  10.640  0.00  0.00    +0.000 A 
ATOM     16  C   UNL     1      43.296   3.159  11.818  0.00  0.00    +0.000 A 
ATOM     17  N   UNL     1      43.726   3.521  13.044  0.00  0.00    +0.000 NA
ATOM     18  C   UNL     1      44.728   4.429  13.092  0.00  0.00    +0.000 A 
ENDBRANCH  12  13
ENDBRANCH   5  11
TORSDOF 3
ENDMDL
MODEL 8
REMARK VINA RESULT:    -4.794      3.140      4.102
REMARK INTER + INTRA:          -5.928
REMARK INTER:                  -5.662
REMARK INTRA:                  -0.266
REMARK UNBOUND:                -0.294
REMARK  Name = 
REMARK  4 active torsions:
REMARK  status: ('A' for Active; 'I' for Inactive)
REMARK    1  A    between atoms: C_1  and  S_2
REMARK    2  A    between atoms: S_2  and  C_5
REMARK    3  A    between atoms: C_9  and  C_10
REMARK    4  A    between atoms: C_11  and  C_12
REMARK                            x       y       z     vdW  Elec       q    Type
REMARK                         _______ _______ _______ _____ _____    ______ ____
ROOT
ATOM      1  C   UNL     1      44.996   4.170  10.577  0.00  0.00    +0.000 A 
ATOM      2  C   UNL     1      44.251   3.262  11.299  0.00  0.00    +0.000 A 
ATOM      3  N   UNL     1      44.141   3.362  12.646  0.00  0.00    +0.000 NA
ATOM      4  C   UNL     1      44.809   4.403  13.208  0.00  0.00    +0.000 A 
ATOM      5  C   UNL     1      45.566   5.314  12.469  0.00  0.00    +0.000 A 
ATOM      6  N   UNL     1      45.673   5.211  11.124  0.00  0.00    +0.000 NA
ENDROOT
BRANCH   1   8
ATOM      7  C   UNL     1      45.620   2.366   8.522  0.00  0.00    +0.000 C 
ATOM      8  S   UNL     1      45.093   4.034   8.825  0.00  0.00    +0.000 S 
ATOM      9  O   UNL     1      46.154   4.922   8.388  0.00  0.00    +0.000 OA
ATOM     10  O   UNL     1      43.743   4.175   8.309  0.00  0.00    +0.000 OA
ENDBRANCH   1   8
BRANCH   5  11
ATOM     11  C   UNL     1      46.273   6.420  13.122  0.00  0.00    +0.000 C 
ATOM     12  C   UNL     1      47.599   6.436  13.333  0.00  0.00    +0.000 C 
BRANCH  12  13
ATOM     13  C   UNL     1      48.305   7.553  13.975  0.00  0.00    +0.000 A 
ATOM     14  C   UNL     1      48.221   8.870  13.518  0.00  0.00    +0.000 A 
ATOM     15  C   UNL     1      48.909   9.884  14.182  0.00  0.00    +0.000 A 
ATOM     16  C   UNL     1      49.651   9.548  15.302  0.00  0.00    +0.000 A 
ATOM     17  N   UNL     1      49.742   8.295  15.791  0.00  0.00    +0.000 NA
ATOM     18  C   UNL     1      49.066   7.332  15.121  0.00  0.00    +0.000 A 
ENDBRANCH  12  13
ENDBRANCH   5  11
TORSDOF 3
ENDMDL
MODEL 9
REMARK VINA RESULT:    -4.705      4.651      7.127
REMARK INTER + INTRA:          -5.824
REMARK INTER:                  -5.543
REMARK INTRA:                  -0.282
REMARK UNBOUND:                -0.294
REMARK  Name = 
REMARK  4 active torsions:
REMARK  status: ('A' for Active; 'I' for Inactive)
REMARK    1  A    between atoms: C_1  and  S_2
REMARK    2  A    between atoms: S_2  and  C_5
REMARK    3  A    between atoms: C_9  and  C_10
REMARK    4  A    between atoms: C_11  and  C_12
REMARK                            x       y       z     vdW  Elec       q    Type
REMARK                         _______ _______ _______ _____ _____    ______ ____
ROOT
ATOM      1  C   UNL     1      50.244   7.936  13.045  0.00  0.00    +0.000 A 
ATOM      2  C   UNL     1      50.492   8.305  14.350  0.00  0.00    +0.000 A 
ATOM      3  N   UNL     1      49.730   7.832  15.366  0.00  0.00    +0.000 NA
ATOM      4  C   UNL     1      48.730   6.989  14.999  0.00  0.00    +0.000 A 
ATOM      5  C   UNL     1      48.482   6.626  13.674  0.00  0.00    +0.000 A 
ATOM      6  N   UNL     1      49.246   7.100  12.663  0.00  0.00    +0.000 NA
ENDROOT
BRANCH   1   8
ATOM      7  C   UNL     1      50.480  10.025  11.189  0.00  0.00    +0.000 C 
ATOM      8  S   UNL     1      51.272   8.539  11.750  0.00  0.00    +0.000 S 
ATOM      9  O   UNL     1      51.211   7.569  10.672  0.00  0.00    +0.000 OA
ATOM     10  O   UNL     1      52.541   8.910  12.347  0.00  0.00    +0.000 OA
ENDBRANCH   1   8
BRANCH   5  11
ATOM     11  C   UNL     1      47.387   5.715  13.328  0.00  0.00    +0.000 C 
ATOM     12  C   UNL     1      46.505   5.950  12.343  0.00  0.00    +0.000 C 
BRANCH  12  13
ATOM     13  C   UNL     1      45.418   5.028  11.991  0.00  0.00    +0.000 A 
ATOM     14  C   UNL     1      44.861   4.961  10.712  0.00  0.00    +0.000 A 
ATOM     15  C   UNL     1      43.837   4.055  10.444  0.00  0.00    +0.000 A 
ATOM     16  C   UNL     1      43.413   3.222  11.467  0.00  0.00    +0.000 A 
ATOM     17  N   UNL     1      43.937   3.237  12.709  0.00  0.00    +0.000 NA
ATOM     18  C   UNL     1      44.926   4.133  12.939  0.00  0.00    +0.000 A 
ENDBRANCH  12  13
ENDBRANCH   5  11
TORSDOF 3
ENDMDL
