MODEL 1
REMARK VINA RESULT:    -8.737      0.000      0.000
REMARK INTER + INTRA:         -14.668
REMARK INTER:                 -13.335
REMARK INTRA:                  -1.334
REMARK UNBOUND:                -1.334
REMARK  Name = 
REMARK  11 active torsions:
REMARK  status: ('A' for Active; 'I' for Inactive)
REMARK    1  A    between atoms: C_1  and  C_2
REMARK    2  A    between atoms: C_2  and  O_3
REMARK    3  A    between atoms: C_5  and  O_6
REMARK    4  A    between atoms: O_6  and  C_7
REMARK    5  A    between atoms: C_9  and  C_10
REMARK    6  A    between atoms: C_15  and  C_16
REMARK    7  A    between atoms: C_16  and  C_19
REMARK    8  A    between atoms: C_19  and  N_20
REMARK    9  A    between atoms: N_20  and  C_21
REMARK   10  A    between atoms: C_24  and  S_25
REMARK   11  A    between atoms: S_25  and  N_26
REMARK                            x       y       z     vdW  Elec       q    Type
REMARK                         _______ _______ _______ _____ _____    ______ ____
ROOT
ATOM      1  C   UNL     1      47.005   4.721  14.169  0.00  0.00    +0.000 A 
ATOM      2  C   UNL     1      47.558   5.899  13.683  0.00  0.00    +0.000 A 
ATOM      3  C   UNL     1      46.775   6.798  12.942  0.00  0.00    +0.000 A 
ATOM      4  C   UNL     1      45.423   6.486  12.688  0.00  0.00    +0.000 A 
ATOM      5  C   UNL     1      44.859   5.281  13.141  0.00  0.00    +0.000 A 
ATOM      6  C   UNL     1      45.675   4.418  13.895  0.00  0.00    +0.000 A 
ENDROOT
BRANCH   3   7
ATOM      7  C   UNL     1      47.375   8.076  12.404  0.00  0.00    +0.000 C 
ATOM      8  F   UNL     1      48.018   8.819  13.346  0.00  0.00    +0.000 F 
ATOM      9  F   UNL     1      48.292   7.843  11.425  0.00  0.00    +0.000 F 
ATOM     10  F   UNL     1      46.440   8.897  11.854  0.00  0.00    +0.000 F 
ENDBRANCH   3   7
BRANCH   5  11
ATOM     11  C   UNL     1      43.414   4.933  12.780  0.00  0.00    +0.000 C 
ATOM     12  F   UNL     1      42.824   4.198  13.768  0.00  0.00    +0.000 F 
ATOM     13  F   UNL     1      42.651   6.061  12.661  0.00  0.00    +0.000 F 
BRANCH  11  14
ATOM     14  C   UNL     1      43.304   4.144  11.446  0.00  0.00    +0.000 C 
BRANCH  14  15
ATOM     15  N   UNL     1      43.725   4.851  10.218  0.00  0.00    +0.000 N 
ATOM     16  H   UNL     1      44.052   5.798  10.421  0.00  0.00    +0.000 HD
BRANCH  15  17
ATOM     17  C   UNL     1      44.603   4.141   9.374  0.00  0.00    +0.000 A 
ATOM     18  C   UNL     1      44.521   2.751   9.184  0.00  0.00    +0.000 A 
ATOM     19  C   UNL     1      45.351   2.100   8.274  0.00  0.00    +0.000 A 
ATOM     20  C   UNL     1      46.235   2.882   7.555  0.00  0.00    +0.000 A 
ATOM     21  N   UNL     1      46.359   4.233   7.663  0.00  0.00    +0.000 NA
ATOM     22  C   UNL     1      45.518   4.817   8.554  0.00  0.00    +0.000 A 
BRANCH  20  23
ATOM     23  S   UNL     1      47.275   2.113   6.324  0.00  0.00    +0.000 S 
ATOM     24  O   UNL     1      47.349   0.704   6.642  0.00  0.00    +0.000 OA
ATOM     25  O   UNL     1      46.863   2.604   5.029  0.00  0.00    +0.000 OA
BRANCH  23  26
ATOM     26  N   UNL     1      48.796   2.781   6.645  0.00  0.00    +0.000 NA
ATOM     27  H   UNL     1      48.803   3.762   6.366  0.00  0.00    +0.000 HD
ATOM     28  H   UNL     1      49.503   2.249   6.136  0.00  0.00    +0.000 HD
ENDBRANCH  23  26
ENDBRANCH  20  23
ENDBRANCH  15  17
ENDBRANCH  14  15
ENDBRANCH  11  14
ENDBRANCH   5  11
BRANCH   1  29
ATOM     29  O   UNL     1      47.836   3.883  14.872  0.00  0.00    +0.000 OA
BRANCH  29  33
ATOM     30  C   UNL     1      49.377   4.288  19.083  0.00  0.00    +0.000 C 
ATOM     31  C   UNL     1      49.033   4.243  17.604  0.00  0.00    +0.000 C 
ATOM     32  C   UNL     1      47.608   4.748  17.262  0.00  0.00    +0.000 C 
ATOM     33  C   UNL     1      47.496   3.579  16.250  0.00  0.00    +0.000 C 
ATOM     34  C   UNL     1      48.591   2.858  17.067  0.00  0.00    +0.000 C 
BRANCH  31  35
ATOM     35  O   UNL     1      50.106   4.853  16.854  0.00  0.00    +0.000 OA
ATOM     36  H   UNL     1      50.635   5.346  17.504  0.00  0.00    +0.000 HD
ENDBRANCH  31  35
ENDBRANCH  29  33
ENDBRANCH   1  29
TORSDOF 10
ENDMDL
MODEL 2
REMARK VINA RESULT:    -8.012      2.613      4.267
REMARK INTER + INTRA:         -13.561
REMARK INTER:                 -12.221
REMARK INTRA:                  -1.340
REMARK UNBOUND:                -1.334
REMARK  Name = 
REMARK  11 active torsions:
REMARK  status: ('A' for Active; 'I' for Inactive)
REMARK    1  A    between atoms: C_1  and  C_2
REMARK    2  A    between atoms: C_2  and  O_3
REMARK    3  A    between atoms: C_5  and  O_6
REMARK    4  A    between atoms: O_6  and  C_7
REMARK    5  A    between atoms: C_9  and  C_10
REMARK    6  A    between atoms: C_15  and  C_16
REMARK    7  A    between atoms: C_16  and  C_19
REMARK    8  A    between atoms: C_19  and  N_20
REMARK    9  A    between atoms: N_20  and  C_21
REMARK   10  A    between atoms: C_24  and  S_25
REMARK   11  A    between atoms: S_25  and  N_26
REMARK                            x       y       z     vdW  Elec       q    Type
REMARK                         _______ _______ _______ _____ _____    ______ ____
ROOT
ATOM      1  C   UNL     1      47.929   6.683  13.980  0.00  0.00    +0.000 A 
ATOM      2  C   UNL     1      48.265   5.839  15.032  0.00  0.00    +0.000 A 
ATOM      3  C   UNL     1      47.474   4.715  15.319  0.00  0.00    +0.000 A 
ATOM      4  C   UNL     1      46.331   4.458  14.535  0.00  0.00    +0.000 A 
ATOM      5  C   UNL     1      45.958   5.323  13.491  0.00  0.00    +0.000 A 
ATOM      6  C   UNL     1      46.788   6.427  13.227  0.00  0.00    +0.000 A 
ENDROOT
BRANCH   3   7
ATOM      7  C   UNL     1      47.831   3.800  16.467  0.00  0.00    +0.000 C 
ATOM      8  F   UNL     1      48.860   4.256  17.233  0.00  0.00    +0.000 F 
ATOM      9  F   UNL     1      46.786   3.613  17.321  0.00  0.00    +0.000 F 
ATOM     10  F   UNL     1      48.198   2.559  16.047  0.00  0.00    +0.000 F 
ENDBRANCH   3   7
BRANCH   5  11
ATOM     11  C   UNL     1      44.668   5.064  12.711  0.00  0.00    +0.000 C 
ATOM     12  F   UNL     1      44.458   3.726  12.538  0.00  0.00    +0.000 F 
ATOM     13  F   UNL     1      43.577   5.518  13.400  0.00  0.00    +0.000 F 
BRANCH  11  14
ATOM     14  C   UNL     1      44.664   5.749  11.316  0.00  0.00    +0.000 C 
BRANCH  14  15
ATOM     15  N   UNL     1      43.965   5.037  10.227  0.00  0.00    +0.000 N 
ATOM     16  H   UNL     1      43.327   5.655   9.719  0.00  0.00    +0.000 HD
BRANCH  15  17
ATOM     17  C   UNL     1      44.784   4.276   9.368  0.00  0.00    +0.000 A 
ATOM     18  C   UNL     1      44.655   2.885   9.225  0.00  0.00    +0.000 A 
ATOM     19  C   UNL     1      45.426   2.182   8.302  0.00  0.00    +0.000 A 
ATOM     20  C   UNL     1      46.300   2.916   7.522  0.00  0.00    +0.000 A 
ATOM     21  N   UNL     1      46.467   4.265   7.583  0.00  0.00    +0.000 NA
ATOM     22  C   UNL     1      45.682   4.900   8.490  0.00  0.00    +0.000 A 
BRANCH  20  23
ATOM     23  S   UNL     1      47.263   2.079   6.272  0.00  0.00    +0.000 S 
ATOM     24  O   UNL     1      47.277   0.673   6.609  0.00  0.00    +0.000 OA
ATOM     25  O   UNL     1      46.838   2.573   4.983  0.00  0.00    +0.000 OA
BRANCH  23  26
ATOM     26  N   UNL     1      48.824   2.675   6.540  0.00  0.00    +0.000 NA
ATOM     27  H   UNL     1      49.509   2.016   6.166  0.00  0.00    +0.000 HD
ATOM     28  H   UNL     1      48.956   2.812   7.543  0.00  0.00    +0.000 HD
ENDBRANCH  23  26
ENDBRANCH  20  23
ENDBRANCH  15  17
ENDBRANCH  14  15
ENDBRANCH  11  14
ENDBRANCH   5  11
BRANCH   1  29
ATOM     29  O   UNL     1      48.740   7.771  13.768  0.00  0.00    +0.000 OA
BRANCH  29  33
ATOM     30  C   UNL     1      51.863   8.879  10.719  0.00  0.00    +0.000 C 
ATOM     31  C   UNL     1      50.968   8.465  11.875  0.00  0.00    +0.000 C 
ATOM     32  C   UNL     1      49.852   7.459  11.493  0.00  0.00    +0.000 C 
ATOM     33  C   UNL     1      48.892   8.259  12.410  0.00  0.00    +0.000 C 
ATOM     34  C   UNL     1      49.839   9.466  12.232  0.00  0.00    +0.000 C 
BRANCH  31  35
ATOM     35  O   UNL     1      51.795   8.082  12.995  0.00  0.00    +0.000 OA
ATOM     36  H   UNL     1      52.675   7.905  12.624  0.00  0.00    +0.000 HD
ENDBRANCH  31  35
ENDBRANCH  29  33
ENDBRANCH   1  29
TORSDOF 10
ENDMDL
MODEL 3
REMARK VINA RESULT:    -7.339      4.407      6.951
REMARK INTER + INTRA:         -12.534
REMARK INTER:                 -10.456
REMARK INTRA:                  -2.078
REMARK UNBOUND:                -1.334
REMARK  Name = 
REMARK  11 active torsions:
REMARK  status: ('A' for Active; 'I' for Inactive)
REMARK    1  A    between atoms: C_1  and  C_2
REMARK    2  A    between atoms: C_2  and  O_3
REMARK    3  A    between atoms: C_5  and  O_6
REMARK    4  A    between atoms: O_6  and  C_7
REMARK    5  A    between atoms: C_9  and  C_10
REMARK    6  A    between atoms: C_15  and  C_16
REMARK    7  A    between atoms: C_16  and  C_19
REMARK    8  A    between atoms: C_19  and  N_20
REMARK    9  A    between atoms: N_20  and  C_21
REMARK   10  A    between atoms: C_24  and  S_25
REMARK   11  A    between atoms: S_25  and  N_26
REMARK                            x       y       z     vdW  Elec       q    Type
REMARK                         _______ _______ _______ _____ _____    ______ ____
ROOT
ATOM      1  C   UNL     1      45.926   4.547  13.630  0.00  0.00    +0.000 A 
ATOM      2  C   UNL     1      45.406   3.808  12.574  0.00  0.00    +0.000 A 
ATOM      3  C   UNL     1      45.031   4.443  11.380  0.00  0.00    +0.000 A 
ATOM      4  C   UNL     1      45.178   5.841  11.267  0.00  0.00    +0.000 A 
ATOM      5  C   UNL     1      45.667   6.607  12.339  0.00  0.00    +0.000 A 
ATOM      6  C   UNL     1      46.047   5.928  13.511  0.00  0.00    +0.000 A 
ENDROOT
BRANCH   3   7
ATOM      7  C   UNL     1      44.458   3.644  10.233  0.00  0.00    +0.000 C 
ATOM      8  F   UNL     1      43.965   4.411   9.222  0.00  0.00    +0.000 F 
ATOM      9  F   UNL     1      45.384   2.825   9.661  0.00  0.00    +0.000 F 
ATOM     10  F   UNL     1      43.434   2.836  10.623  0.00  0.00    +0.000 F 
ENDBRANCH   3   7
BRANCH   5  11
ATOM     11  C   UNL     1      45.738   8.131  12.217  0.00  0.00    +0.000 C 
ATOM     12  F   UNL     1      45.114   8.563  11.083  0.00  0.00    +0.000 F 
ATOM     13  F   UNL     1      45.077   8.738  13.250  0.00  0.00    +0.000 F 
BRANCH  11  14
ATOM     14  C   UNL     1      47.198   8.663  12.212  0.00  0.00    +0.000 C 
BRANCH  14  15
ATOM     15  N   UNL     1      47.605   9.501  13.359  0.00  0.00    +0.000 N 
ATOM     16  H   UNL     1      46.814  10.019  13.749  0.00  0.00    +0.000 HD
BRANCH  15  17
ATOM     17  C   UNL     1      48.372   8.854  14.348  0.00  0.00    +0.000 A 
ATOM     18  C   UNL     1      48.293   9.181  15.712  0.00  0.00    +0.000 A 
ATOM     19  C   UNL     1      49.003   8.458  16.667  0.00  0.00    +0.000 A 
ATOM     20  C   UNL     1      49.765   7.396  16.217  0.00  0.00    +0.000 A 
ATOM     21  N   UNL     1      49.876   7.001  14.920  0.00  0.00    +0.000 NA
ATOM     22  C   UNL     1      49.153   7.732  14.033  0.00  0.00    +0.000 A 
BRANCH  20  23
ATOM     23  S   UNL     1      50.641   6.389  17.404  0.00  0.00    +0.000 S 
ATOM     24  O   UNL     1      49.944   6.506  18.665  0.00  0.00    +0.000 OA
ATOM     25  O   UNL     1      50.926   5.118  16.779  0.00  0.00    +0.000 OA
BRANCH  23  26
ATOM     26  N   UNL     1      52.117   7.200  17.568  0.00  0.00    +0.000 NA
ATOM     27  H   UNL     1      52.589   6.880  18.414  0.00  0.00    +0.000 HD
ATOM     28  H   UNL     1      51.937   8.205  17.605  0.00  0.00    +0.000 HD
ENDBRANCH  23  26
ENDBRANCH  20  23
ENDBRANCH  15  17
ENDBRANCH  14  15
ENDBRANCH  11  14
ENDBRANCH   5  11
BRANCH   1  29
ATOM     29  O   UNL     1      46.256   3.860  14.772  0.00  0.00    +0.000 OA
BRANCH  29  33
ATOM     30  C   UNL     1      48.491   3.284  18.637  0.00  0.00    +0.000 C 
ATOM     31  C   UNL     1      47.584   3.370  17.422  0.00  0.00    +0.000 C 
ATOM     32  C   UNL     1      48.273   3.007  16.081  0.00  0.00    +0.000 C 
ATOM     33  C   UNL     1      47.507   4.187  15.431  0.00  0.00    +0.000 C 
ATOM     34  C   UNL     1      47.381   4.795  16.846  0.00  0.00    +0.000 C 
BRANCH  31  35
ATOM     35  O   UNL     1      46.356   2.665  17.701  0.00  0.00    +0.000 OA
ATOM     36  H   UNL     1      46.425   1.818  17.229  0.00  0.00    +0.000 HD
ENDBRANCH  31  35
ENDBRANCH  29  33
ENDBRANCH   1  29
TORSDOF 10
ENDMDL
MODEL 4
REMARK VINA RESULT:    -6.953      3.266      5.389
REMARK INTER + INTRA:         -11.945
REMARK INTER:                 -11.186
REMARK INTRA:                  -0.759
REMARK UNBOUND:                -1.334
REMARK  Name = 
REMARK  11 active torsions:
REMARK  status: ('A' for Active; 'I' for Inactive)
REMARK    1  A    between atoms: C_1  and  C_2
REMARK    2  A    between atoms: C_2  and  O_3
REMARK    3  A    between atoms: C_5  and  O_6
REMARK    4  A    between atoms: O_6  and  C_7
REMARK    5  A    between atoms: C_9  and  C_10
REMARK    6  A    between atoms: C_15  and  C_16
REMARK    7  A    between atoms: C_16  and  C_19
REMARK    8  A    between atoms: C_19  and  N_20
REMARK    9  A    between atoms: N_20  and  C_21
REMARK   10  A    between atoms: C_24  and  S_25
REMARK   11  A    between atoms: S_25  and  N_26
REMARK                            x       y       z     vdW  Elec       q    Type
REMARK                         _______ _______ _______ _____ _____    ______ ____
ROOT
ATOM      1  C   UNL     1      45.196   8.518  12.080  0.00  0.00    +0.000 A 
ATOM      2  C   UNL     1      46.413   8.240  12.690  0.00  0.00    +0.000 A 
ATOM      3  C   UNL     1      46.707   6.938  13.125  0.00  0.00    +0.000 A 
ATOM      4  C   UNL     1      45.750   5.918  12.945  0.00  0.00    +0.000 A 
ATOM      5  C   UNL     1      44.500   6.192  12.363  0.00  0.00    +0.000 A 
ATOM      6  C   UNL     1      44.254   7.506  11.926  0.00  0.00    +0.000 A 
ENDROOT
BRANCH   3   7
ATOM      7  C   UNL     1      48.026   6.633  13.797  0.00  0.00    +0.000 C 
ATOM      8  F   UNL     1      47.957   5.626  14.709  0.00  0.00    +0.000 F 
ATOM      9  F   UNL     1      48.985   6.262  12.904  0.00  0.00    +0.000 F 
ATOM     10  F   UNL     1      48.530   7.708  14.463  0.00  0.00    +0.000 F 
ENDBRANCH   3   7
BRANCH   5  11
ATOM     11  C   UNL     1      43.450   5.084  12.255  0.00  0.00    +0.000 C 
ATOM     12  F   UNL     1      42.728   4.977  13.409  0.00  0.00    +0.000 F 
ATOM     13  F   UNL     1      42.536   5.366  11.278  0.00  0.00    +0.000 F 
BRANCH  11  14
ATOM     14  C   UNL     1      44.074   3.697  11.933  0.00  0.00    +0.000 C 
BRANCH  14  15
ATOM     15  N   UNL     1      43.587   3.015  10.717  0.00  0.00    +0.000 N 
ATOM     16  H   UNL     1      42.733   3.447  10.357  0.00  0.00    +0.000 HD
BRANCH  15  17
ATOM     17  C   UNL     1      44.550   2.794   9.712  0.00  0.00    +0.000 A 
ATOM     18  C   UNL     1      44.956   1.510   9.312  0.00  0.00    +0.000 A 
ATOM     19  C   UNL     1      45.845   1.333   8.255  0.00  0.00    +0.000 A 
ATOM     20  C   UNL     1      46.289   2.471   7.607  0.00  0.00    +0.000 A 
ATOM     21  N   UNL     1      45.927   3.746   7.917  0.00  0.00    +0.000 NA
ATOM     22  C   UNL     1      45.048   3.858   8.946  0.00  0.00    +0.000 A 
BRANCH  20  23
ATOM     23  S   UNL     1      47.376   2.303   6.200  0.00  0.00    +0.000 S 
ATOM     24  O   UNL     1      47.723   0.904   6.089  0.00  0.00    +0.000 OA
ATOM     25  O   UNL     1      46.805   3.059   5.109  0.00  0.00    +0.000 OA
BRANCH  23  26
ATOM     26  N   UNL     1      48.767   3.128   6.699  0.00  0.00    +0.000 NA
ATOM     27  H   UNL     1      49.141   3.669   5.918  0.00  0.00    +0.000 HD
ATOM     28  H   UNL     1      49.449   2.448   7.035  0.00  0.00    +0.000 HD
ENDBRANCH  23  26
ENDBRANCH  20  23
ENDBRANCH  15  17
ENDBRANCH  14  15
ENDBRANCH  11  14
ENDBRANCH   5  11
BRANCH   1  29
ATOM     29  O   UNL     1      44.972   9.817  11.695  0.00  0.00    +0.000 OA
BRANCH  29  33
ATOM     30  C   UNL     1      41.097  11.487  10.124  0.00  0.00    +0.000 C 
ATOM     31  C   UNL     1      42.331  10.969  10.842  0.00  0.00    +0.000 C 
ATOM     32  C   UNL     1      43.674  11.477  10.257  0.00  0.00    +0.000 C 
ATOM     33  C   UNL     1      44.241  10.050  10.463  0.00  0.00    +0.000 C 
ATOM     34  C   UNL     1      42.783   9.542  10.441  0.00  0.00    +0.000 C 
BRANCH  31  35
ATOM     35  O   UNL     1      42.160  11.157  12.264  0.00  0.00    +0.000 OA
ATOM     36  H   UNL     1      41.467  10.529  12.531  0.00  0.00    +0.000 HD
ENDBRANCH  31  35
ENDBRANCH  29  33
ENDBRANCH   1  29
TORSDOF 10
ENDMDL
MODEL 5
REMARK VINA RESULT:    -6.917      4.615      7.495
REMARK INTER + INTRA:         -11.890
REMARK INTER:                 -10.174
REMARK INTRA:                  -1.716
REMARK UNBOUND:                -1.334
REMARK  Name = 
REMARK  11 active torsions:
REMARK  status: ('A' for Active; 'I' for Inactive)
REMARK    1  A    between atoms: C_1  and  C_2
REMARK    2  A    between atoms: C_2  and  O_3
REMARK    3  A    between atoms: C_5  and  O_6
REMARK    4  A    between atoms: O_6  and  C_7
REMARK    5  A    between atoms: C_9  and  C_10
REMARK    6  A    between atoms: C_15  and  C_16
REMARK    7  A    between atoms: C_16  and  C_19
REMARK    8  A    between atoms: C_19  and  N_20
REMARK    9  A    between atoms: N_20  and  C_21
REMARK   10  A    between atoms: C_24  and  S_25
REMARK   11  A    between atoms: S_25  and  N_26
REMARK                            x       y       z     vdW  Elec       q    Type
REMARK                         _______ _______ _______ _____ _____    ______ ____
ROOT
ATOM      1  C   UNL     1      47.135   4.619  14.964  0.00  0.00    +0.000 A 
ATOM      2  C   UNL     1      47.472   3.823  16.052  0.00  0.00    +0.000 A 
ATOM      3  C   UNL     1      48.452   4.245  16.964  0.00  0.00    +0.000 A 
ATOM      4  C   UNL     1      49.098   5.482  16.757  0.00  0.00    +0.000 A 
ATOM      5  C   UNL     1      48.794   6.281  15.642  0.00  0.00    +0.000 A 
ATOM      6  C   UNL     1      47.793   5.828  14.764  0.00  0.00    +0.000 A 
ENDROOT
BRANCH   3   7
ATOM      7  C   UNL     1      48.828   3.378  18.143  0.00  0.00    +0.000 C 
ATOM      8  F   UNL     1      47.786   2.667  18.655  0.00  0.00    +0.000 F 
ATOM      9  F   UNL     1      49.783   2.461  17.826  0.00  0.00    +0.000 F 
ATOM     10  F   UNL     1      49.332   4.102  19.179  0.00  0.00    +0.000 F 
ENDBRANCH   3   7
BRANCH   5  11
ATOM     11  C   UNL     1      49.569   7.578  15.400  0.00  0.00    +0.000 C 
ATOM     12  F   UNL     1      50.314   7.917  16.493  0.00  0.00    +0.000 F 
ATOM     13  F   UNL     1      50.467   7.431  14.379  0.00  0.00    +0.000 F 
BRANCH  11  14
ATOM     14  C   UNL     1      48.640   8.772  15.045  0.00  0.00    +0.000 C 
BRANCH  14  15
ATOM     15  N   UNL     1      48.741   9.309  13.672  0.00  0.00    +0.000 N 
ATOM     16  H   UNL     1      49.447   8.813  13.123  0.00  0.00    +0.000 HD
BRANCH  15  17
ATOM     17  C   UNL     1      47.521   9.459  12.982  0.00  0.00    +0.000 A 
ATOM     18  C   UNL     1      46.405   8.640  13.220  0.00  0.00    +0.000 A 
ATOM     19  C   UNL     1      45.190   8.877  12.581  0.00  0.00    +0.000 A 
ATOM     20  C   UNL     1      45.129   9.961  11.724  0.00  0.00    +0.000 A 
ATOM     21  N   UNL     1      46.156  10.814  11.459  0.00  0.00    +0.000 NA
ATOM     22  C   UNL     1      47.311  10.544  12.119  0.00  0.00    +0.000 A 
BRANCH  20  23
ATOM     23  S   UNL     1      43.579  10.357  10.930  0.00  0.00    +0.000 S 
ATOM     24  O   UNL     1      42.800  11.134  11.869  0.00  0.00    +0.000 OA
ATOM     25  O   UNL     1      43.872  10.809   9.590  0.00  0.00    +0.000 OA
BRANCH  23  26
ATOM     26  N   UNL     1      42.832   8.844  10.790  0.00  0.00    +0.000 NA
ATOM     27  H   UNL     1      43.068   8.272  11.601  0.00  0.00    +0.000 HD
ATOM     28  H   UNL     1      43.146   8.402   9.925  0.00  0.00    +0.000 HD
ENDBRANCH  23  26
ENDBRANCH  20  23
ENDBRANCH  15  17
ENDBRANCH  14  15
ENDBRANCH  11  14
ENDBRANCH   5  11
BRANCH   1  29
ATOM     29  O   UNL     1      46.179   4.134  14.106  0.00  0.00    +0.000 OA
BRANCH  29  33
ATOM     30  C   UNL     1      43.702   4.511  10.365  0.00  0.00    +0.000 C 
ATOM     31  C   UNL     1      44.569   4.187  11.570  0.00  0.00    +0.000 C 
ATOM     32  C   UNL     1      43.972   4.635  12.929  0.00  0.00    +0.000 C 
ATOM     33  C   UNL     1      45.395   5.087  13.344  0.00  0.00    +0.000 C 
ATOM     34  C   UNL     1      45.729   5.179  11.838  0.00  0.00    +0.000 C 
BRANCH  31  35
ATOM     35  O   UNL     1      44.978   2.804  11.496  0.00  0.00    +0.000 OA
ATOM     36  H   UNL     1      45.453   2.626  12.325  0.00  0.00    +0.000 HD
ENDBRANCH  31  35
ENDBRANCH  29  33
ENDBRANCH   1  29
TORSDOF 10
ENDMDL
MODEL 6
REMARK VINA RESULT:    -6.508      4.218      6.640
REMARK INTER + INTRA:         -11.266
REMARK INTER:                  -9.557
REMARK INTRA:                  -1.708
REMARK UNBOUND:                -1.334
REMARK  Name = 
REMARK  11 active torsions:
REMARK  status: ('A' for Active; 'I' for Inactive)
REMARK    1  A    between atoms: C_1  and  C_2
REMARK    2  A    between atoms: C_2  and  O_3
REMARK    3  A    between atoms: C_5  and  O_6
REMARK    4  A    between atoms: O_6  and  C_7
REMARK    5  A    between atoms: C_9  and  C_10
REMARK    6  A    between atoms: C_15  and  C_16
REMARK    7  A    between atoms: C_16  and  C_19
REMARK    8  A    between atoms: C_19  and  N_20
REMARK    9  A    between atoms: N_20  and  C_21
REMARK   10  A    between atoms: C_24  and  S_25
REMARK   11  A    between atoms: S_25  and  N_26
REMARK                            x       y       z     vdW  Elec       q    Type
REMARK                         _______ _______ _______ _____ _____    ______ ____
ROOT
ATOM      1  C   UNL     1      50.567   5.069  18.627  0.00  0.00    +0.000 A 
ATOM      2  C   UNL     1      49.821   3.965  18.233  0.00  0.00    +0.000 A 
ATOM      3  C   UNL     1      48.983   4.039  17.109  0.00  0.00    +0.000 A 
ATOM      4  C   UNL     1      48.901   5.250  16.390  0.00  0.00    +0.000 A 
ATOM      5  C   UNL     1      49.621   6.386  16.797  0.00  0.00    +0.000 A 
ATOM      6  C   UNL     1      50.462   6.262  17.919  0.00  0.00    +0.000 A 
ENDROOT
BRANCH   3   7
ATOM      7  C   UNL     1      48.163   2.844  16.682  0.00  0.00    +0.000 C 
ATOM      8  F   UNL     1      47.491   3.029  15.513  0.00  0.00    +0.000 F 
ATOM      9  F   UNL     1      48.928   1.733  16.500  0.00  0.00    +0.000 F 
ATOM     10  F   UNL     1      47.222   2.504  17.605  0.00  0.00    +0.000 F 
ENDBRANCH   3   7
BRANCH   5  11
ATOM     11  C   UNL     1      49.449   7.708  16.047  0.00  0.00    +0.000 C 
ATOM     12  F   UNL     1      48.255   8.295  16.354  0.00  0.00    +0.000 F 
ATOM     13  F   UNL     1      50.406   8.612  16.418  0.00  0.00    +0.000 F 
BRANCH  11  14
ATOM     14  C   UNL     1      49.533   7.536  14.505  0.00  0.00    +0.000 C 
BRANCH  14  15
ATOM     15  N   UNL     1      48.440   8.132  13.708  0.00  0.00    +0.000 N 
ATOM     16  H   UNL     1      48.800   8.684  12.927  0.00  0.00    +0.000 HD
BRANCH  15  17
ATOM     17  C   UNL     1      47.412   7.249  13.324  0.00  0.00    +0.000 A 
ATOM     18  C   UNL     1      47.559   5.852  13.343  0.00  0.00    +0.000 A 
ATOM     19  C   UNL     1      46.490   5.012  13.040  0.00  0.00    +0.000 A 
ATOM     20  C   UNL     1      45.281   5.612  12.743  0.00  0.00    +0.000 A 
ATOM     21  N   UNL     1      45.051   6.953  12.725  0.00  0.00    +0.000 NA
ATOM     22  C   UNL     1      46.123   7.723  13.041  0.00  0.00    +0.000 A 
BRANCH  20  23
ATOM     23  S   UNL     1      43.857   4.585  12.415  0.00  0.00    +0.000 S 
ATOM     24  O   UNL     1      43.491   4.787  11.030  0.00  0.00    +0.000 OA
ATOM     25  O   UNL     1      44.115   3.279  12.976  0.00  0.00    +0.000 OA
BRANCH  23  26
ATOM     26  N   UNL     1      42.651   5.302  13.362  0.00  0.00    +0.000 NA
ATOM     27  H   UNL     1      42.985   5.399  14.321  0.00  0.00    +0.000 HD
ATOM     28  H   UNL     1      41.813   4.720  13.322  0.00  0.00    +0.000 HD
ENDBRANCH  23  26
ENDBRANCH  20  23
ENDBRANCH  15  17
ENDBRANCH  14  15
ENDBRANCH  11  14
ENDBRANCH   5  11
BRANCH   1  29
ATOM     29  O   UNL     1      51.352   4.927  19.745  0.00  0.00    +0.000 OA
BRANCH  29  33
ATOM     30  C   UNL     1      55.018   2.524  18.716  0.00  0.00    +0.000 C 
ATOM     31  C   UNL     1      53.676   3.158  19.039  0.00  0.00    +0.000 C 
ATOM     32  C   UNL     1      53.391   4.479  18.279  0.00  0.00    +0.000 C 
ATOM     33  C   UNL     1      52.790   5.041  19.592  0.00  0.00    +0.000 C 
ATOM     34  C   UNL     1      53.632   3.988  20.347  0.00  0.00    +0.000 C 
BRANCH  31  35
ATOM     35  O   UNL     1      52.645   2.150  18.943  0.00  0.00    +0.000 OA
ATOM     36  H   UNL     1      51.810   2.637  18.847  0.00  0.00    +0.000 HD
ENDBRANCH  31  35
ENDBRANCH  29  33
ENDBRANCH   1  29
TORSDOF 10
ENDMDL
MODEL 7
REMARK VINA RESULT:    -6.333      3.462      5.559
REMARK INTER + INTRA:         -10.999
REMARK INTER:                  -9.578
REMARK INTRA:                  -1.421
REMARK UNBOUND:                -1.334
REMARK  Name = 
REMARK  11 active torsions:
REMARK  status: ('A' for Active; 'I' for Inactive)
REMARK    1  A    between atoms: C_1  and  C_2
REMARK    2  A    between atoms: C_2  and  O_3
REMARK    3  A    between atoms: C_5  and  O_6
REMARK    4  A    between atoms: O_6  and  C_7
REMARK    5  A    between atoms: C_9  and  C_10
REMARK    6  A    between atoms: C_15  and  C_16
REMARK    7  A    between atoms: C_16  and  C_19
REMARK    8  A    between atoms: C_19  and  N_20
REMARK    9  A    between atoms: N_20  and  C_21
REMARK   10  A    between atoms: C_24  and  S_25
REMARK   11  A    between atoms: S_25  and  N_26
REMARK                            x       y       z     vdW  Elec       q    Type
REMARK                         _______ _______ _______ _____ _____    ______ ____
ROOT
ATOM      1  C   UNL     1      48.659   5.873  16.685  0.00  0.00    +0.000 A 
ATOM      2  C   UNL     1      48.456   6.644  17.824  0.00  0.00    +0.000 A 
ATOM      3  C   UNL     1      48.377   8.043  17.729  0.00  0.00    +0.000 A 
ATOM      4  C   UNL     1      48.515   8.657  16.467  0.00  0.00    +0.000 A 
ATOM      5  C   UNL     1      48.757   7.893  15.312  0.00  0.00    +0.000 A 
ATOM      6  C   UNL     1      48.811   6.494  15.450  0.00  0.00    +0.000 A 
ENDROOT
BRANCH   3   7
ATOM      7  C   UNL     1      48.166   8.885  18.966  0.00  0.00    +0.000 C 
ATOM      8  F   UNL     1      47.745  10.152  18.701  0.00  0.00    +0.000 F 
ATOM      9  F   UNL     1      47.233   8.350  19.801  0.00  0.00    +0.000 F 
ATOM     10  F   UNL     1      49.301   9.015  19.705  0.00  0.00    +0.000 F 
ENDBRANCH   3   7
BRANCH   5  11
ATOM     11  C   UNL     1      48.984   8.592  13.970  0.00  0.00    +0.000 C 
ATOM     12  F   UNL     1      48.004   9.511  13.722  0.00  0.00    +0.000 F 
ATOM     13  F   UNL     1      50.154   9.300  13.976  0.00  0.00    +0.000 F 
BRANCH  11  14
ATOM     14  C   UNL     1      49.040   7.596  12.778  0.00  0.00    +0.000 C 
BRANCH  14  15
ATOM     15  N   UNL     1      47.955   7.691  11.780  0.00  0.00    +0.000 N 
ATOM     16  H   UNL     1      48.318   7.885  10.844  0.00  0.00    +0.000 HD
BRANCH  15  17
ATOM     17  C   UNL     1      47.018   6.638  11.793  0.00  0.00    +0.000 A 
ATOM     18  C   UNL     1      46.750   5.869  12.938  0.00  0.00    +0.000 A 
ATOM     19  C   UNL     1      45.754   4.896  12.933  0.00  0.00    +0.000 A 
ATOM     20  C   UNL     1      45.031   4.738  11.764  0.00  0.00    +0.000 A 
ATOM     21  N   UNL     1      45.213   5.457  10.623  0.00  0.00    +0.000 NA
ATOM     22  C   UNL     1      46.187   6.400  10.688  0.00  0.00    +0.000 A 
BRANCH  20  23
ATOM     23  S   UNL     1      43.695   3.554  11.721  0.00  0.00    +0.000 S 
ATOM     24  O   UNL     1      43.738   2.904  10.430  0.00  0.00    +0.000 OA
ATOM     25  O   UNL     1      43.709   2.825  12.968  0.00  0.00    +0.000 OA
BRANCH  23  26
ATOM     26  N   UNL     1      42.319   4.540  11.740  0.00  0.00    +0.000 NA
ATOM     27  H   UNL     1      42.543   5.445  11.324  0.00  0.00    +0.000 HD
ATOM     28  H   UNL     1      42.006   4.648  12.706  0.00  0.00    +0.000 HD
ENDBRANCH  23  26
ENDBRANCH  20  23
ENDBRANCH  15  17
ENDBRANCH  14  15
ENDBRANCH  11  14
ENDBRANCH   5  11
BRANCH   1  29
ATOM     29  O   UNL     1      48.741   4.514  16.857  0.00  0.00    +0.000 OA
BRANCH  29  33
ATOM     30  C   UNL     1      51.508   1.067  17.714  0.00  0.00    +0.000 C 
ATOM     31  C   UNL     1      50.531   2.132  17.249  0.00  0.00    +0.000 C 
ATOM     32  C   UNL     1      51.064   3.584  17.357  0.00  0.00    +0.000 C 
ATOM     33  C   UNL     1      49.660   4.004  17.859  0.00  0.00    +0.000 C 
ATOM     34  C   UNL     1      49.445   2.533  18.280  0.00  0.00    +0.000 C 
BRANCH  31  35
ATOM     35  O   UNL     1      50.008   1.756  15.956  0.00  0.00    +0.000 OA
ATOM     36  H   UNL     1      50.607   1.068  15.620  0.00  0.00    +0.000 HD
ENDBRANCH  31  35
ENDBRANCH  29  33
ENDBRANCH   1  29
TORSDOF 10
ENDMDL
MODEL 8
REMARK VINA RESULT:    -6.088      5.281      8.438
REMARK INTER + INTRA:         -10.625
REMARK INTER:                  -9.517
REMARK INTRA:                  -1.109
REMARK UNBOUND:                -1.334
REMARK  Name = 
REMARK  11 active torsions:
REMARK  status: ('A' for Active; 'I' for Inactive)
REMARK    1  A    between atoms: C_1  and  C_2
REMARK    2  A    between atoms: C_2  and  O_3
REMARK    3  A    between atoms: C_5  and  O_6
REMARK    4  A    between atoms: O_6  and  C_7
REMARK    5  A    between atoms: C_9  and  C_10
REMARK    6  A    between atoms: C_15  and  C_16
REMARK    7  A    between atoms: C_16  and  C_19
REMARK    8  A    between atoms: C_19  and  N_20
REMARK    9  A    between atoms: N_20  and  C_21
REMARK   10  A    between atoms: C_24  and  S_25
REMARK   11  A    between atoms: S_25  and  N_26
REMARK                            x       y       z     vdW  Elec       q    Type
REMARK                         _______ _______ _______ _____ _____    ______ ____
ROOT
ATOM      1  C   UNL     1      47.548   6.740  12.694  0.00  0.00    +0.000 A 
ATOM      2  C   UNL     1      46.530   6.265  11.876  0.00  0.00    +0.000 A 
ATOM      3  C   UNL     1      45.755   5.164  12.275  0.00  0.00    +0.000 A 
ATOM      4  C   UNL     1      46.028   4.541  13.511  0.00  0.00    +0.000 A 
ATOM      5  C   UNL     1      47.078   4.987  14.331  0.00  0.00    +0.000 A 
ATOM      6  C   UNL     1      47.818   6.103  13.901  0.00  0.00    +0.000 A 
ENDROOT
BRANCH   3   7
ATOM      7  C   UNL     1      44.653   4.639  11.386  0.00  0.00    +0.000 C 
ATOM      8  F   UNL     1      44.926   4.740  10.056  0.00  0.00    +0.000 F 
ATOM      9  F   UNL     1      44.390   3.323  11.613  0.00  0.00    +0.000 F 
ATOM     10  F   UNL     1      43.475   5.295  11.576  0.00  0.00    +0.000 F 
ENDBRANCH   3   7
BRANCH   5  11
ATOM     11  C   UNL     1      47.404   4.240  15.626  0.00  0.00    +0.000 C 
ATOM     12  F   UNL     1      46.325   4.212  16.462  0.00  0.00    +0.000 F 
ATOM     13  F   UNL     1      47.706   2.930  15.376  0.00  0.00    +0.000 F 
BRANCH  11  14
ATOM     14  C   UNL     1      48.604   4.864  16.391  0.00  0.00    +0.000 C 
BRANCH  14  15
ATOM     15  N   UNL     1      48.961   4.248  17.686  0.00  0.00    +0.000 N 
ATOM     16  H   UNL     1      48.164   3.767  18.108  0.00  0.00    +0.000 HD
BRANCH  15  17
ATOM     17  C   UNL     1      50.133   3.467  17.690  0.00  0.00    +0.000 A 
ATOM     18  C   UNL     1      51.367   3.943  18.164  0.00  0.00    +0.000 A 
ATOM     19  C   UNL     1      52.482   3.111  18.232  0.00  0.00    +0.000 A 
ATOM     20  C   UNL     1      52.313   1.797  17.836  0.00  0.00    +0.000 A 
ATOM     21  N   UNL     1      51.148   1.253  17.388  0.00  0.00    +0.000 NA
ATOM     22  C   UNL     1      50.092   2.105  17.355  0.00  0.00    +0.000 A 
BRANCH  20  23
ATOM     23  S   UNL     1      53.688   0.665  17.967  0.00  0.00    +0.000 S 
ATOM     24  O   UNL     1      54.224   0.482  16.636  0.00  0.00    +0.000 OA
ATOM     25  O   UNL     1      54.497   1.082  19.089  0.00  0.00    +0.000 OA
BRANCH  23  26
ATOM     26  N   UNL     1      52.938  -0.786  18.411  0.00  0.00    +0.000 NA
ATOM     27  H   UNL     1      53.587  -1.561  18.272  0.00  0.00    +0.000 HD
ATOM     28  H   UNL     1      52.096  -0.907  17.846  0.00  0.00    +0.000 HD
ENDBRANCH  23  26
ENDBRANCH  20  23
ENDBRANCH  15  17
ENDBRANCH  14  15
ENDBRANCH  11  14
ENDBRANCH   5  11
BRANCH   1  29
ATOM     29  O   UNL     1      48.274   7.810  12.230  0.00  0.00    +0.000 OA
BRANCH  29  33
ATOM     30  C   UNL     1      51.951  10.338  11.629  0.00  0.00    +0.000 C 
ATOM     31  C   UNL     1      50.613   9.624  11.713  0.00  0.00    +0.000 C 
ATOM     32  C   UNL     1      50.191   9.220  13.150  0.00  0.00    +0.000 C 
ATOM     33  C   UNL     1      49.684   7.877  12.565  0.00  0.00    +0.000 C 
ATOM     34  C   UNL     1      50.645   8.111  11.378  0.00  0.00    +0.000 C 
BRANCH  31  35
ATOM     35  O   UNL     1      49.632  10.374  10.965  0.00  0.00    +0.000 OA
ATOM     36  H   UNL     1      49.991  10.453  10.065  0.00  0.00    +0.000 HD
ENDBRANCH  31  35
ENDBRANCH  29  33
ENDBRANCH   1  29
TORSDOF 10
ENDMDL
