MODEL 1
REMARK VINA RESULT:    -6.956      0.000      0.000
REMARK INTER + INTRA:         -11.288
REMARK INTER:                  -9.802
REMARK INTRA:                  -1.486
REMARK UNBOUND:                -1.486
REMARK  Name = 
REMARK  7 active torsions:
REMARK  status: ('A' for Active; 'I' for Inactive)
REMARK    1  A    between atoms: C_2  and  C_3
REMARK    2  A    between atoms: C_6  and  C_7
REMARK    3  A    between atoms: N_9  and  C_10
REMARK    4  A    between atoms: C_10  and  C_11
REMARK    5  A    between atoms: C_14  and  C_15
REMARK    6  A    between atoms: C_15  and  N_16
REMARK    7  A    between atoms: C_17  and  C_19
REMARK                            x       y       z     vdW  Elec       q    Type
REMARK                         _______ _______ _______ _____ _____    ______ ____
ROOT
ATOM      1  C   UNL     1      48.011   8.463  14.976  0.00  0.00    +0.000 C 
ATOM      2  C   UNL     1      48.273   9.542  13.908  0.00  0.00    +0.000 C 
ATOM      3  C   UNL     1      49.282   9.112  12.841  0.00  0.00    +0.000 C 
ATOM      4  C   UNL     1      48.930   7.773  12.172  0.00  0.00    +0.000 C 
ATOM      5  C   UNL     1      48.736   6.707  13.263  0.00  0.00    +0.000 C 
ATOM      6  C   UNL     1      47.688   7.118  14.300  0.00  0.00    +0.000 C 
ENDROOT
BRANCH   1   7
ATOM      7  C   UNL     1      49.168   8.317  15.988  0.00  0.00    +0.000 C 
BRANCH   7  10
ATOM      8  C   UNL     1      49.484   6.115  17.101  0.00  0.00    +0.000 C 
ATOM      9  O   UNL     1      50.272   5.689  16.265  0.00  0.00    +0.000 OA
ATOM     10  N   UNL     1      48.881   7.353  17.033  0.00  0.00    +0.000 N 
ATOM     11  H   UNL     1      48.353   7.646  17.851  0.00  0.00    +0.000 HD
BRANCH   8  15
ATOM     12  C   UNL     1      47.473   3.596  17.585  0.00  0.00    +0.000 C 
ATOM     13  C   UNL     1      48.753   2.959  18.099  0.00  0.00    +0.000 C 
ATOM     14  O   UNL     1      49.686   4.016  18.388  0.00  0.00    +0.000 OA
ATOM     15  C   UNL     1      49.001   5.276  18.303  0.00  0.00    +0.000 C 
ATOM     16  C   UNL     1      47.512   4.958  18.246  0.00  0.00    +0.000 C 
BRANCH  12  18
ATOM     17  N   UNL     1      47.471   3.701  14.956  0.00  0.00    +0.000 NA
ATOM     18  C   UNL     1      47.485   3.674  16.115  0.00  0.00    +0.000 C 
ENDBRANCH  12  18
ENDBRANCH   8  15
ENDBRANCH   7  10
ENDBRANCH   1   7
BRANCH   4  19
ATOM     19  C   UNL     1      47.698   7.856  11.247  0.00  0.00    +0.000 C 
BRANCH  19  20
ATOM     20  N   UNL     1      46.909   6.641  11.248  0.00  0.00    +0.000 N 
ATOM     21  C   UNL     1      45.541   6.641  11.353  0.00  0.00    +0.000 C 
ATOM     22  O   UNL     1      44.897   7.676  11.503  0.00  0.00    +0.000 OA
ATOM     23  H   UNL     1      47.410   5.756  11.258  0.00  0.00    +0.000 HD
BRANCH  21  24
ATOM     24  C   UNL     1      44.866   5.342  11.216  0.00  0.00    +0.000 A 
ATOM     25  C   UNL     1      44.042   4.894  12.239  0.00  0.00    +0.000 A 
ATOM     26  S   UNL     1      43.348   3.365  11.945  0.00  0.00    +0.000 S 
ATOM     27  C   UNL     1      44.150   3.230  10.452  0.00  0.00    +0.000 A 
ATOM     28  N   UNL     1      44.023   2.110   9.693  0.00  0.00    +0.000 NA
ATOM     29  C   UNL     1      44.715   2.121   8.601  0.00  0.00    +0.000 A 
ATOM     30  N   UNL     1      45.506   3.164   8.194  0.00  0.00    +0.000 N 
ATOM     31  C   UNL     1      45.595   4.348   8.885  0.00  0.00    +0.000 A 
ATOM     32  O   UNL     1      46.188   5.316   8.420  0.00  0.00    +0.000 OA
ATOM     33  C   UNL     1      44.897   4.358  10.159  0.00  0.00    +0.000 A 
ATOM     34  H   UNL     1      45.988   3.127   7.309  0.00  0.00    +0.000 HD
ENDBRANCH  21  24
ENDBRANCH  19  20
ENDBRANCH   4  19
TORSDOF 7
ENDMDL
MODEL 2
REMARK VINA RESULT:    -6.495      1.621      2.444
REMARK INTER + INTRA:         -10.639
REMARK INTER:                  -9.128
REMARK INTRA:                  -1.511
REMARK UNBOUND:                -1.486
REMARK  Name = 
REMARK  7 active torsions:
REMARK  status: ('A' for Active; 'I' for Inactive)
REMARK    1  A    between atoms: C_2  and  C_3
REMARK    2  A    between atoms: C_6  and  C_7
REMARK    3  A    between atoms: N_9  and  C_10
REMARK    4  A    between atoms: C_10  and  C_11
REMARK    5  A    between atoms: C_14  and  C_15
REMARK    6  A    between atoms: C_15  and  N_16
REMARK    7  A    between atoms: C_17  and  C_19
REMARK                            x       y       z     vdW  Elec       q    Type
REMARK                         _______ _______ _______ _____ _____    ______ ____
ROOT
ATOM      1  C   UNL     1      50.209   7.491  14.680  0.00  0.00    +0.000 C 
ATOM      2  C   UNL     1      49.019   6.611  14.253  0.00  0.00    +0.000 C 
ATOM      3  C   UNL     1      47.663   7.306  14.399  0.00  0.00    +0.000 C 
ATOM      4  C   UNL     1      47.598   8.671  13.692  0.00  0.00    +0.000 C 
ATOM      5  C   UNL     1      48.764   9.543  14.187  0.00  0.00    +0.000 C 
ATOM      6  C   UNL     1      50.123   8.866  13.993  0.00  0.00    +0.000 C 
ENDROOT
BRANCH   1   7
ATOM      7  C   UNL     1      50.338   7.638  16.211  0.00  0.00    +0.000 C 
BRANCH   7  10
ATOM      8  C   UNL     1      49.494   5.850  17.721  0.00  0.00    +0.000 C 
ATOM      9  O   UNL     1      48.460   6.440  18.012  0.00  0.00    +0.000 OA
ATOM     10  N   UNL     1      50.466   6.362  16.889  0.00  0.00    +0.000 N 
ATOM     11  H   UNL     1      51.212   5.726  16.618  0.00  0.00    +0.000 HD
BRANCH   8  15
ATOM     12  C   UNL     1      48.428   2.778  17.509  0.00  0.00    +0.000 C 
ATOM     13  C   UNL     1      49.840   2.558  16.996  0.00  0.00    +0.000 C 
ATOM     14  O   UNL     1      50.638   3.684  17.402  0.00  0.00    +0.000 OA
ATOM     15  C   UNL     1      49.877   4.482  18.324  0.00  0.00    +0.000 C 
ATOM     16  C   UNL     1      48.667   3.649  18.725  0.00  0.00    +0.000 C 
BRANCH  12  18
ATOM     17  N   UNL     1      46.914   3.952  15.706  0.00  0.00    +0.000 NA
ATOM     18  C   UNL     1      47.600   3.439  16.488  0.00  0.00    +0.000 C 
ENDBRANCH  12  18
ENDBRANCH   8  15
ENDBRANCH   7  10
ENDBRANCH   1   7
BRANCH   4  19
ATOM     19  C   UNL     1      47.595   8.564  12.154  0.00  0.00    +0.000 C 
BRANCH  19  20
ATOM     20  N   UNL     1      47.064   7.303  11.677  0.00  0.00    +0.000 N 
ATOM     21  C   UNL     1      45.743   7.127  11.350  0.00  0.00    +0.000 C 
ATOM     22  O   UNL     1      44.911   8.021  11.488  0.00  0.00    +0.000 OA
ATOM     23  H   UNL     1      47.689   6.502  11.673  0.00  0.00    +0.000 HD
BRANCH  21  24
ATOM     24  C   UNL     1      45.372   5.831  10.764  0.00  0.00    +0.000 A 
ATOM     25  C   UNL     1      45.658   5.584   9.429  0.00  0.00    +0.000 A 
ATOM     26  S   UNL     1      45.149   4.049   8.888  0.00  0.00    +0.000 S 
ATOM     27  C   UNL     1      44.497   3.670  10.412  0.00  0.00    +0.000 A 
ATOM     28  N   UNL     1      43.854   2.492  10.621  0.00  0.00    +0.000 NA
ATOM     29  C   UNL     1      43.373   2.346  11.812  0.00  0.00    +0.000 A 
ATOM     30  N   UNL     1      43.498   3.269  12.817  0.00  0.00    +0.000 N 
ATOM     31  C   UNL     1      44.213   4.434  12.677  0.00  0.00    +0.000 A 
ATOM     32  O   UNL     1      44.436   5.167  13.636  0.00  0.00    +0.000 OA
ATOM     33  C   UNL     1      44.709   4.681  11.334  0.00  0.00    +0.000 A 
ATOM     34  H   UNL     1      43.136   3.077  13.738  0.00  0.00    +0.000 HD
ENDBRANCH  21  24
ENDBRANCH  19  20
ENDBRANCH   4  19
TORSDOF 7
ENDMDL
MODEL 3
REMARK VINA RESULT:    -6.028      4.921      7.436
REMARK INTER + INTRA:          -9.980
REMARK INTER:                  -9.075
REMARK INTRA:                  -0.905
REMARK UNBOUND:                -1.486
REMARK  Name = 
REMARK  7 active torsions:
REMARK  status: ('A' for Active; 'I' for Inactive)
REMARK    1  A    between atoms: C_2  and  C_3
REMARK    2  A    between atoms: C_6  and  C_7
REMARK    3  A    between atoms: N_9  and  C_10
REMARK    4  A    between atoms: C_10  and  C_11
REMARK    5  A    between atoms: C_14  and  C_15
REMARK    6  A    between atoms: C_15  and  N_16
REMARK    7  A    between atoms: C_17  and  C_19
REMARK                            x       y       z     vdW  Elec       q    Type
REMARK                         _______ _______ _______ _____ _____    ______ ____
ROOT
ATOM      1  C   UNL     1      48.335   7.063  12.863  0.00  0.00    +0.000 C 
ATOM      2  C   UNL     1      48.822   7.539  11.482  0.00  0.00    +0.000 C 
ATOM      3  C   UNL     1      49.341   8.980  11.481  0.00  0.00    +0.000 C 
ATOM      4  C   UNL     1      50.420   9.240  12.546  0.00  0.00    +0.000 C 
ATOM      5  C   UNL     1      49.877   8.810  13.920  0.00  0.00    +0.000 C 
ATOM      6  C   UNL     1      49.406   7.354  13.931  0.00  0.00    +0.000 C 
ENDROOT
BRANCH   1   7
ATOM      7  C   UNL     1      46.969   7.661  13.265  0.00  0.00    +0.000 C 
BRANCH   7  10
ATOM      8  C   UNL     1      44.898   6.649  12.329  0.00  0.00    +0.000 C 
ATOM      9  O   UNL     1      44.773   7.478  11.436  0.00  0.00    +0.000 OA
ATOM     10  N   UNL     1      45.905   6.675  13.271  0.00  0.00    +0.000 N 
ATOM     11  H   UNL     1      45.982   5.862  13.876  0.00  0.00    +0.000 HD
BRANCH   8  15
ATOM     12  C   UNL     1      43.746   4.113  10.637  0.00  0.00    +0.000 C 
ATOM     13  C   UNL     1      44.352   3.346  11.800  0.00  0.00    +0.000 C 
ATOM     14  O   UNL     1      44.540   4.269  12.887  0.00  0.00    +0.000 OA
ATOM     15  C   UNL     1      43.887   5.507  12.562  0.00  0.00    +0.000 C 
ATOM     16  C   UNL     1      43.011   5.230  11.347  0.00  0.00    +0.000 C 
BRANCH  12  18
ATOM     17  N   UNL     1      45.637   4.953   9.013  0.00  0.00    +0.000 NA
ATOM     18  C   UNL     1      44.798   4.605   9.733  0.00  0.00    +0.000 C 
ENDBRANCH  12  18
ENDBRANCH   8  15
ENDBRANCH   7  10
ENDBRANCH   1   7
BRANCH   4  19
ATOM     19  C   UNL     1      51.765   8.551  12.237  0.00  0.00    +0.000 C 
BRANCH  19  20
ATOM     20  N   UNL     1      51.940   8.262  10.828  0.00  0.00    +0.000 N 
ATOM     21  C   UNL     1      53.090   8.565  10.144  0.00  0.00    +0.000 C 
ATOM     22  O   UNL     1      54.032   9.146  10.675  0.00  0.00    +0.000 OA
ATOM     23  H   UNL     1      51.137   7.901  10.320  0.00  0.00    +0.000 HD
BRANCH  21  24
ATOM     24  C   UNL     1      53.173   8.103   8.751  0.00  0.00    +0.000 A 
ATOM     25  C   UNL     1      52.948   9.007   7.722  0.00  0.00    +0.000 A 
ATOM     26  S   UNL     1      53.056   8.320   6.165  0.00  0.00    +0.000 S 
ATOM     27  C   UNL     1      53.375   6.779   6.810  0.00  0.00    +0.000 A 
ATOM     28  N   UNL     1      53.527   5.702   5.996  0.00  0.00    +0.000 NA
ATOM     29  C   UNL     1      53.727   4.585   6.616  0.00  0.00    +0.000 A 
ATOM     30  N   UNL     1      53.808   4.458   7.978  0.00  0.00    +0.000 N 
ATOM     31  C   UNL     1      53.748   5.531   8.834  0.00  0.00    +0.000 A 
ATOM     32  O   UNL     1      53.976   5.406  10.033  0.00  0.00    +0.000 OA
ATOM     33  C   UNL     1      53.448   6.799   8.192  0.00  0.00    +0.000 A 
ATOM     34  H   UNL     1      54.008   3.564   8.398  0.00  0.00    +0.000 HD
ENDBRANCH  21  24
ENDBRANCH  19  20
ENDBRANCH   4  19
TORSDOF 7
ENDMDL
MODEL 4
REMARK VINA RESULT:    -5.713      2.970      7.765
REMARK INTER + INTRA:          -9.537
REMARK INTER:                  -8.337
REMARK INTRA:                  -1.200
REMARK UNBOUND:                -1.486
REMARK  Name = 
REMARK  7 active torsions:
REMARK  status: ('A' for Active; 'I' for Inactive)
REMARK    1  A    between atoms: C_2  and  C_3
REMARK    2  A    between atoms: C_6  and  C_7
REMARK    3  A    between atoms: N_9  and  C_10
REMARK    4  A    between atoms: C_10  and  C_11
REMARK    5  A    between atoms: C_14  and  C_15
REMARK    6  A    between atoms: C_15  and  N_16
REMARK    7  A    between atoms: C_17  and  C_19
REMARK                            x       y       z     vdW  Elec       q    Type
REMARK                         _______ _______ _______ _____ _____    ______ ____
ROOT
ATOM      1  C   UNL     1      47.593   7.132  12.487  0.00  0.00    +0.000 C 
ATOM      2  C   UNL     1      48.867   7.534  11.720  0.00  0.00    +0.000 C 
ATOM      3  C   UNL     1      49.428   8.895  12.140  0.00  0.00    +0.000 C 
ATOM      4  C   UNL     1      49.657   9.019  13.655  0.00  0.00    +0.000 C 
ATOM      5  C   UNL     1      48.350   8.670  14.387  0.00  0.00    +0.000 C 
ATOM      6  C   UNL     1      47.819   7.287  14.003  0.00  0.00    +0.000 C 
ENDROOT
BRANCH   1   7
ATOM      7  C   UNL     1      46.338   7.903  12.027  0.00  0.00    +0.000 C 
BRANCH   7  10
ATOM      8  C   UNL     1      45.041   6.073  10.951  0.00  0.00    +0.000 C 
ATOM      9  O   UNL     1      45.870   5.862  10.073  0.00  0.00    +0.000 OA
ATOM     10  N   UNL     1      45.168   7.053  11.912  0.00  0.00    +0.000 N 
ATOM     11  H   UNL     1      44.483   7.043  12.663  0.00  0.00    +0.000 HD
BRANCH   8  15
ATOM     12  C   UNL     1      43.959   3.304  12.285  0.00  0.00    +0.000 C 
ATOM     13  C   UNL     1      43.061   4.275  13.033  0.00  0.00    +0.000 C 
ATOM     14  O   UNL     1      43.051   5.516  12.305  0.00  0.00    +0.000 OA
ATOM     15  C   UNL     1      43.700   5.315  11.038  0.00  0.00    +0.000 C 
ATOM     16  C   UNL     1      43.854   3.810  10.862  0.00  0.00    +0.000 C 
BRANCH  12  18
ATOM     17  N   UNL     1      46.414   3.356  13.229  0.00  0.00    +0.000 NA
ATOM     18  C   UNL     1      45.333   3.356  12.810  0.00  0.00    +0.000 C 
ENDBRANCH  12  18
ENDBRANCH   8  15
ENDBRANCH   7  10
ENDBRANCH   1   7
BRANCH   4  19
ATOM     19  C   UNL     1      50.831   8.161  14.170  0.00  0.00    +0.000 C 
BRANCH  19  20
ATOM     20  N   UNL     1      50.603   7.633  15.500  0.00  0.00    +0.000 N 
ATOM     21  C   UNL     1      51.583   7.010  16.232  0.00  0.00    +0.000 C 
ATOM     22  O   UNL     1      52.710   6.818  15.783  0.00  0.00    +0.000 OA
ATOM     23  H   UNL     1      49.651   7.653  15.856  0.00  0.00    +0.000 HD
BRANCH  21  24
ATOM     24  C   UNL     1      51.242   6.635  17.611  0.00  0.00    +0.000 A 
ATOM     25  C   UNL     1      51.964   7.185  18.661  0.00  0.00    +0.000 A 
ATOM     26  S   UNL     1      51.467   6.638  20.199  0.00  0.00    +0.000 S 
ATOM     27  C   UNL     1      50.289   5.621  19.514  0.00  0.00    +0.000 A 
ATOM     28  N   UNL     1      49.524   4.817  20.298  0.00  0.00    +0.000 NA
ATOM     29  C   UNL     1      48.695   4.066  19.649  0.00  0.00    +0.000 A 
ATOM     30  N   UNL     1      48.552   4.066  18.286  0.00  0.00    +0.000 N 
ATOM     31  C   UNL     1      49.242   4.923  17.463  0.00  0.00    +0.000 A 
ATOM     32  O   UNL     1      48.983   5.006  16.266  0.00  0.00    +0.000 OA
ATOM     33  C   UNL     1      50.242   5.734  18.136  0.00  0.00    +0.000 A 
ATOM     34  H   UNL     1      47.857   3.486  17.843  0.00  0.00    +0.000 HD
ENDBRANCH  21  24
ENDBRANCH  19  20
ENDBRANCH   4  19
TORSDOF 7
ENDMDL
MODEL 5
REMARK VINA RESULT:    -5.645      1.525      2.123
REMARK INTER + INTRA:          -9.441
REMARK INTER:                  -8.179
REMARK INTRA:                  -1.262
REMARK UNBOUND:                -1.486
REMARK  Name = 
REMARK  7 active torsions:
REMARK  status: ('A' for Active; 'I' for Inactive)
REMARK    1  A    between atoms: C_2  and  C_3
REMARK    2  A    between atoms: C_6  and  C_7
REMARK    3  A    between atoms: N_9  and  C_10
REMARK    4  A    between atoms: C_10  and  C_11
REMARK    5  A    between atoms: C_14  and  C_15
REMARK    6  A    between atoms: C_15  and  N_16
REMARK    7  A    between atoms: C_17  and  C_19
REMARK                            x       y       z     vdW  Elec       q    Type
REMARK                         _______ _______ _______ _____ _____    ______ ____
ROOT
ATOM      1  C   UNL     1      49.442   8.936  14.847  0.00  0.00    +0.000 C 
ATOM      2  C   UNL     1      49.472   9.860  13.615  0.00  0.00    +0.000 C 
ATOM      3  C   UNL     1      49.978   9.168  12.346  0.00  0.00    +0.000 C 
ATOM      4  C   UNL     1      49.226   7.867  12.019  0.00  0.00    +0.000 C 
ATOM      5  C   UNL     1      49.269   6.945  13.249  0.00  0.00    +0.000 C 
ATOM      6  C   UNL     1      48.715   7.623  14.505  0.00  0.00    +0.000 C 
ENDROOT
BRANCH   1   7
ATOM      7  C   UNL     1      50.843   8.663  15.435  0.00  0.00    +0.000 C 
BRANCH   7  10
ATOM      8  C   UNL     1      50.772   7.863  17.790  0.00  0.00    +0.000 C 
ATOM      9  O   UNL     1      50.770   8.986  18.280  0.00  0.00    +0.000 OA
ATOM     10  N   UNL     1      50.837   7.612  16.436  0.00  0.00    +0.000 N 
ATOM     11  H   UNL     1      50.697   6.648  16.146  0.00  0.00    +0.000 HD
BRANCH   8  15
ATOM     12  C   UNL     1      48.731   6.329  19.815  0.00  0.00    +0.000 C 
ATOM     13  C   UNL     1      48.880   5.230  18.777  0.00  0.00    +0.000 C 
ATOM     14  O   UNL     1      50.066   5.507  18.009  0.00  0.00    +0.000 OA
ATOM     15  C   UNL     1      50.788   6.576  18.641  0.00  0.00    +0.000 C 
ATOM     16  C   UNL     1      50.167   6.766  20.019  0.00  0.00    +0.000 C 
BRANCH  12  18
ATOM     17  N   UNL     1      47.193   8.279  18.947  0.00  0.00    +0.000 NA
ATOM     18  C   UNL     1      47.871   7.411  19.308  0.00  0.00    +0.000 C 
ENDBRANCH  12  18
ENDBRANCH   8  15
ENDBRANCH   7  10
ENDBRANCH   1   7
BRANCH   4  19
ATOM     19  C   UNL     1      47.777   8.100  11.546  0.00  0.00    +0.000 C 
BRANCH  19  20
ATOM     20  N   UNL     1      46.964   6.901  11.609  0.00  0.00    +0.000 N 
ATOM     21  C   UNL     1      45.594   6.934  11.677  0.00  0.00    +0.000 C 
ATOM     22  O   UNL     1      44.968   7.989  11.738  0.00  0.00    +0.000 OA
ATOM     23  H   UNL     1      47.447   6.011  11.693  0.00  0.00    +0.000 HD
BRANCH  21  24
ATOM     24  C   UNL     1      44.897   5.642  11.610  0.00  0.00    +0.000 A 
ATOM     25  C   UNL     1      44.119   5.234  12.686  0.00  0.00    +0.000 A 
ATOM     26  S   UNL     1      43.393   3.707  12.471  0.00  0.00    +0.000 S 
ATOM     27  C   UNL     1      44.118   3.518  10.944  0.00  0.00    +0.000 A 
ATOM     28  N   UNL     1      43.940   2.379  10.226  0.00  0.00    +0.000 NA
ATOM     29  C   UNL     1      44.577   2.349   9.101  0.00  0.00    +0.000 A 
ATOM     30  N   UNL     1      45.360   3.369   8.626  0.00  0.00    +0.000 N 
ATOM     31  C   UNL     1      45.498   4.571   9.277  0.00  0.00    +0.000 A 
ATOM     32  O   UNL     1      46.079   5.517   8.756  0.00  0.00    +0.000 OA
ATOM     33  C   UNL     1      44.864   4.627  10.583  0.00  0.00    +0.000 A 
ATOM     34  H   UNL     1      45.797   3.300   7.720  0.00  0.00    +0.000 HD
ENDBRANCH  21  24
ENDBRANCH  19  20
ENDBRANCH   4  19
TORSDOF 7
ENDMDL
MODEL 6
REMARK VINA RESULT:    -5.610      4.725      7.535
REMARK INTER + INTRA:          -9.392
REMARK INTER:                  -8.083
REMARK INTRA:                  -1.308
REMARK UNBOUND:                -1.486
REMARK  Name = 
REMARK  7 active torsions:
REMARK  status: ('A' for Active; 'I' for Inactive)
REMARK    1  A    between atoms: C_2  and  C_3
REMARK    2  A    between atoms: C_6  and  C_7
REMARK    3  A    between atoms: N_9  and  C_10
REMARK    4  A    between atoms: C_10  and  C_11
REMARK    5  A    between atoms: C_14  and  C_15
REMARK    6  A    between atoms: C_15  and  N_16
REMARK    7  A    between atoms: C_17  and  C_19
REMARK                            x       y       z     vdW  Elec       q    Type
REMARK                         _______ _______ _______ _____ _____    ______ ____
ROOT
ATOM      1  C   UNL     1      47.967   6.624  12.526  0.00  0.00    +0.000 C 
ATOM      2  C   UNL     1      47.061   7.633  11.796  0.00  0.00    +0.000 C 
ATOM      3  C   UNL     1      47.029   9.014  12.457  0.00  0.00    +0.000 C 
ATOM      4  C   UNL     1      48.426   9.616  12.681  0.00  0.00    +0.000 C 
ATOM      5  C   UNL     1      49.283   8.607  13.464  0.00  0.00    +0.000 C 
ATOM      6  C   UNL     1      49.355   7.243  12.774  0.00  0.00    +0.000 C 
ENDROOT
BRANCH   1   7
ATOM      7  C   UNL     1      47.350   6.091  13.837  0.00  0.00    +0.000 C 
BRANCH   7  10
ATOM      8  C   UNL     1      45.594   4.373  13.447  0.00  0.00    +0.000 C 
ATOM      9  O   UNL     1      46.385   3.450  13.294  0.00  0.00    +0.000 OA
ATOM     10  N   UNL     1      45.968   5.679  13.681  0.00  0.00    +0.000 N 
ATOM     11  H   UNL     1      45.224   6.328  13.923  0.00  0.00    +0.000 HD
BRANCH   8  15
ATOM     12  C   UNL     1      43.370   4.669  11.083  0.00  0.00    +0.000 C 
ATOM     13  C   UNL     1      43.159   3.199  11.402  0.00  0.00    +0.000 C 
ATOM     14  O   UNL     1      43.721   2.945  12.703  0.00  0.00    +0.000 OA
ATOM     15  C   UNL     1      44.067   4.201  13.311  0.00  0.00    +0.000 C 
ATOM     16  C   UNL     1      43.417   5.288  12.464  0.00  0.00    +0.000 C 
BRANCH  12  18
ATOM     17  N   UNL     1      45.580   5.036   9.702  0.00  0.00    +0.000 NA
ATOM     18  C   UNL     1      44.618   4.863  10.327  0.00  0.00    +0.000 C 
ENDBRANCH  12  18
ENDBRANCH   8  15
ENDBRANCH   7  10
ENDBRANCH   1   7
BRANCH   4  19
ATOM     19  C   UNL     1      49.124  10.045  11.374  0.00  0.00    +0.000 C 
BRANCH  19  20
ATOM     20  N   UNL     1      50.513   9.635  11.316  0.00  0.00    +0.000 N 
ATOM     21  C   UNL     1      51.446  10.277  10.542  0.00  0.00    +0.000 C 
ATOM     22  O   UNL     1      51.151  11.216   9.807  0.00  0.00    +0.000 OA
ATOM     23  H   UNL     1      50.771   8.783  11.806  0.00  0.00    +0.000 HD
BRANCH  21  24
ATOM     24  C   UNL     1      52.840   9.829  10.676  0.00  0.00    +0.000 A 
ATOM     25  C   UNL     1      53.825  10.758  10.979  0.00  0.00    +0.000 A 
ATOM     26  S   UNL     1      55.392  10.093  11.081  0.00  0.00    +0.000 S 
ATOM     27  C   UNL     1      54.815   8.542  10.691  0.00  0.00    +0.000 A 
ATOM     28  N   UNL     1      55.670   7.493  10.563  0.00  0.00    +0.000 NA
ATOM     29  C   UNL     1      55.106   6.379  10.226  0.00  0.00    +0.000 A 
ATOM     30  N   UNL     1      53.760   6.220  10.027  0.00  0.00    +0.000 N 
ATOM     31  C   UNL     1      52.850   7.230  10.230  0.00  0.00    +0.000 A 
ATOM     32  O   UNL     1      51.642   7.019  10.192  0.00  0.00    +0.000 OA
ATOM     33  C   UNL     1      53.440   8.522  10.535  0.00  0.00    +0.000 A 
ATOM     34  H   UNL     1      53.377   5.314   9.806  0.00  0.00    +0.000 HD
ENDBRANCH  21  24
ENDBRANCH  19  20
ENDBRANCH   4  19
TORSDOF 7
ENDMDL
MODEL 7
REMARK VINA RESULT:    -5.591      1.673      2.456
REMARK INTER + INTRA:          -9.365
REMARK INTER:                  -8.128
REMARK INTRA:                  -1.237
REMARK UNBOUND:                -1.486
REMARK  Name = 
REMARK  7 active torsions:
REMARK  status: ('A' for Active; 'I' for Inactive)
REMARK    1  A    between atoms: C_2  and  C_3
REMARK    2  A    between atoms: C_6  and  C_7
REMARK    3  A    between atoms: N_9  and  C_10
REMARK    4  A    between atoms: C_10  and  C_11
REMARK    5  A    between atoms: C_14  and  C_15
REMARK    6  A    between atoms: C_15  and  N_16
REMARK    7  A    between atoms: C_17  and  C_19
REMARK                            x       y       z     vdW  Elec       q    Type
REMARK                         _______ _______ _______ _____ _____    ______ ____
ROOT
ATOM      1  C   UNL     1      48.767   8.996  15.012  0.00  0.00    +0.000 C 
ATOM      2  C   UNL     1      49.105   9.831  13.762  0.00  0.00    +0.000 C 
ATOM      3  C   UNL     1      49.910   9.060  12.712  0.00  0.00    +0.000 C 
ATOM      4  C   UNL     1      49.261   7.727  12.303  0.00  0.00    +0.000 C 
ATOM      5  C   UNL     1      48.994   6.895  13.569  0.00  0.00    +0.000 C 
ATOM      6  C   UNL     1      48.146   7.650  14.595  0.00  0.00    +0.000 C 
ENDROOT
BRANCH   1   7
ATOM      7  C   UNL     1      49.977   8.787  15.948  0.00  0.00    +0.000 C 
BRANCH   7  10
ATOM      8  C   UNL     1      50.916   6.584  16.620  0.00  0.00    +0.000 C 
ATOM      9  O   UNL     1      51.919   6.682  15.922  0.00  0.00    +0.000 OA
ATOM     10  N   UNL     1      49.917   7.531  16.672  0.00  0.00    +0.000 N 
ATOM     11  H   UNL     1      49.204   7.401  17.386  0.00  0.00    +0.000 HD
BRANCH   8  15
ATOM     12  C   UNL     1      51.629   5.515  19.615  0.00  0.00    +0.000 C 
ATOM     13  C   UNL     1      50.116   5.555  19.749  0.00  0.00    +0.000 C 
ATOM     14  O   UNL     1      49.557   5.582  18.423  0.00  0.00    +0.000 OA
ATOM     15  C   UNL     1      50.606   5.336  17.472  0.00  0.00    +0.000 C 
ATOM     16  C   UNL     1      51.808   4.845  18.269  0.00  0.00    +0.000 C 
BRANCH  12  18
ATOM     17  N   UNL     1      52.672   7.930  19.683  0.00  0.00    +0.000 NA
ATOM     18  C   UNL     1      52.191   6.875  19.655  0.00  0.00    +0.000 C 
ENDBRANCH  12  18
ENDBRANCH   8  15
ENDBRANCH   7  10
ENDBRANCH   1   7
BRANCH   4  19
ATOM     19  C   UNL     1      47.975   7.903  11.469  0.00  0.00    +0.000 C 
BRANCH  19  20
ATOM     20  N   UNL     1      47.132   6.724  11.478  0.00  0.00    +0.000 N 
ATOM     21  C   UNL     1      45.787   6.772  11.745  0.00  0.00    +0.000 C 
ATOM     22  O   UNL     1      45.218   7.819  12.043  0.00  0.00    +0.000 OA
ATOM     23  H   UNL     1      47.587   5.822  11.366  0.00  0.00    +0.000 HD
BRANCH  21  24
ATOM     24  C   UNL     1      45.037   5.517  11.597  0.00  0.00    +0.000 A 
ATOM     25  C   UNL     1      44.252   5.068  12.650  0.00  0.00    +0.000 A 
ATOM     26  S   UNL     1      43.461   3.590  12.338  0.00  0.00    +0.000 S 
ATOM     27  C   UNL     1      44.167   3.477  10.795  0.00  0.00    +0.000 A 
ATOM     28  N   UNL     1      43.937   2.399  10.002  0.00  0.00    +0.000 NA
ATOM     29  C   UNL     1      44.564   2.421   8.872  0.00  0.00    +0.000 A 
ATOM     30  N   UNL     1      45.384   3.438   8.459  0.00  0.00    +0.000 N 
ATOM     31  C   UNL     1      45.577   4.585   9.190  0.00  0.00    +0.000 A 
ATOM     32  O   UNL     1      46.192   5.541   8.729  0.00  0.00    +0.000 OA
ATOM     33  C   UNL     1      44.955   4.577  10.503  0.00  0.00    +0.000 A 
ATOM     34  H   UNL     1      45.812   3.414   7.547  0.00  0.00    +0.000 HD
ENDBRANCH  21  24
ENDBRANCH  19  20
ENDBRANCH   4  19
TORSDOF 7
ENDMDL
MODEL 8
REMARK VINA RESULT:    -5.362      4.303      6.607
REMARK INTER + INTRA:          -9.041
REMARK INTER:                  -8.220
REMARK INTRA:                  -0.822
REMARK UNBOUND:                -1.486
REMARK  Name = 
REMARK  7 active torsions:
REMARK  status: ('A' for Active; 'I' for Inactive)
REMARK    1  A    between atoms: C_2  and  C_3
REMARK    2  A    between atoms: C_6  and  C_7
REMARK    3  A    between atoms: N_9  and  C_10
REMARK    4  A    between atoms: C_10  and  C_11
REMARK    5  A    between atoms: C_14  and  C_15
REMARK    6  A    between atoms: C_15  and  N_16
REMARK    7  A    between atoms: C_17  and  C_19
REMARK                            x       y       z     vdW  Elec       q    Type
REMARK                         _______ _______ _______ _____ _____    ______ ____
ROOT
ATOM      1  C   UNL     1      51.525   8.543  12.293  0.00  0.00    +0.000 C 
ATOM      2  C   UNL     1      51.430   8.720  13.820  0.00  0.00    +0.000 C 
ATOM      3  C   UNL     1      50.341   9.705  14.253  0.00  0.00    +0.000 C 
ATOM      4  C   UNL     1      48.957   9.382  13.666  0.00  0.00    +0.000 C 
ATOM      5  C   UNL     1      49.078   9.273  12.137  0.00  0.00    +0.000 C 
ATOM      6  C   UNL     1      50.132   8.250  11.707  0.00  0.00    +0.000 C 
ENDROOT
BRANCH   1   7
ATOM      7  C   UNL     1      52.189   9.743  11.583  0.00  0.00    +0.000 C 
BRANCH   7  10
ATOM      8  C   UNL     1      53.792   9.018   9.824  0.00  0.00    +0.000 C 
ATOM      9  O   UNL     1      54.736   8.884  10.595  0.00  0.00    +0.000 OA
ATOM     10  N   UNL     1      52.542   9.455  10.205  0.00  0.00    +0.000 N 
ATOM     11  H   UNL     1      51.807   9.397   9.504  0.00  0.00    +0.000 HD
BRANCH   8  15
ATOM     12  C   UNL     1      54.158   6.473   7.823  0.00  0.00    +0.000 C 
ATOM     13  C   UNL     1      52.829   6.983   7.291  0.00  0.00    +0.000 C 
ATOM     14  O   UNL     1      52.674   8.345   7.727  0.00  0.00    +0.000 OA
ATOM     15  C   UNL     1      53.913   8.792   8.303  0.00  0.00    +0.000 C 
ATOM     16  C   UNL     1      54.962   7.750   7.937  0.00  0.00    +0.000 C 
BRANCH  12  18
ATOM     17  N   UNL     1      53.869   5.272  10.146  0.00  0.00    +0.000 NA
ATOM     18  C   UNL     1      53.975   5.795   9.116  0.00  0.00    +0.000 C 
ENDBRANCH  12  18
ENDBRANCH   8  15
ENDBRANCH   7  10
ENDBRANCH   1   7
BRANCH   4  19
ATOM     19  C   UNL     1      48.317   8.114  14.267  0.00  0.00    +0.000 C 
BRANCH  19  20
ATOM     20  N   UNL     1      47.161   7.658  13.522  0.00  0.00    +0.000 N 
ATOM     21  C   UNL     1      47.087   6.412  12.952  0.00  0.00    +0.000 C 
ATOM     22  O   UNL     1      48.022   5.616  12.996  0.00  0.00    +0.000 OA
ATOM     23  H   UNL     1      46.419   8.330  13.349  0.00  0.00    +0.000 HD
BRANCH  21  24
ATOM     24  C   UNL     1      45.806   6.042  12.333  0.00  0.00    +0.000 A 
ATOM     25  C   UNL     1      45.042   7.024  11.718  0.00  0.00    +0.000 A 
ATOM     26  S   UNL     1      43.575   6.447  11.067  0.00  0.00    +0.000 S 
ATOM     27  C   UNL     1      43.893   4.868  11.612  0.00  0.00    +0.000 A 
ATOM     28  N   UNL     1      42.991   3.871  11.419  0.00  0.00    +0.000 NA
ATOM     29  C   UNL     1      43.339   2.729  11.915  0.00  0.00    +0.000 A 
ATOM     30  N   UNL     1      44.520   2.495  12.570  0.00  0.00    +0.000 N 
ATOM     31  C   UNL     1      45.497   3.451  12.712  0.00  0.00    +0.000 A 
ATOM     32  O   UNL     1      46.602   3.172  13.165  0.00  0.00    +0.000 OA
ATOM     33  C   UNL     1      45.123   4.772  12.238  0.00  0.00    +0.000 A 
ATOM     34  H   UNL     1      44.751   1.570  12.898  0.00  0.00    +0.000 HD
ENDBRANCH  21  24
ENDBRANCH  19  20
ENDBRANCH   4  19
TORSDOF 7
ENDMDL
MODEL 9
REMARK VINA RESULT:    -5.230      2.633      3.517
REMARK INTER + INTRA:          -8.856
REMARK INTER:                  -7.049
REMARK INTRA:                  -1.807
REMARK UNBOUND:                -1.486
REMARK  Name = 
REMARK  7 active torsions:
REMARK  status: ('A' for Active; 'I' for Inactive)
REMARK    1  A    between atoms: C_2  and  C_3
REMARK    2  A    between atoms: C_6  and  C_7
REMARK    3  A    between atoms: N_9  and  C_10
REMARK    4  A    between atoms: C_10  and  C_11
REMARK    5  A    between atoms: C_14  and  C_15
REMARK    6  A    between atoms: C_15  and  N_16
REMARK    7  A    between atoms: C_17  and  C_19
REMARK                            x       y       z     vdW  Elec       q    Type
REMARK                         _______ _______ _______ _____ _____    ______ ____
ROOT
ATOM      1  C   UNL     1      50.608   8.047  16.117  0.00  0.00    +0.000 C 
ATOM      2  C   UNL     1      49.086   8.036  15.881  0.00  0.00    +0.000 C 
ATOM      3  C   UNL     1      48.404   9.361  16.233  0.00  0.00    +0.000 C 
ATOM      4  C   UNL     1      49.042  10.578  15.542  0.00  0.00    +0.000 C 
ATOM      5  C   UNL     1      50.549  10.591  15.849  0.00  0.00    +0.000 C 
ATOM      6  C   UNL     1      51.237   9.284  15.449  0.00  0.00    +0.000 C 
ENDROOT
BRANCH   1   7
ATOM      7  C   UNL     1      50.992   7.962  17.610  0.00  0.00    +0.000 C 
BRANCH   7  10
ATOM      8  C   UNL     1      49.850   6.142  18.863  0.00  0.00    +0.000 C 
ATOM      9  O   UNL     1      48.889   6.829  19.189  0.00  0.00    +0.000 OA
ATOM     10  N   UNL     1      50.920   6.611  18.132  0.00  0.00    +0.000 N 
ATOM     11  H   UNL     1      51.589   5.916  17.810  0.00  0.00    +0.000 HD
BRANCH   8  15
ATOM     12  C   UNL     1      48.526   3.262  18.111  0.00  0.00    +0.000 C 
ATOM     13  C   UNL     1      49.963   2.951  17.729  0.00  0.00    +0.000 C 
ATOM     14  O   UNL     1      50.809   3.920  18.373  0.00  0.00    +0.000 OA
ATOM     15  C   UNL     1      50.022   4.675  19.308  0.00  0.00    +0.000 C 
ATOM     16  C   UNL     1      48.696   3.938  19.455  0.00  0.00    +0.000 C 
BRANCH  12  18
ATOM     17  N   UNL     1      47.379   4.792  16.303  0.00  0.00    +0.000 NA
ATOM     18  C   UNL     1      47.898   4.135  17.107  0.00  0.00    +0.000 C 
ENDBRANCH  12  18
ENDBRANCH   8  15
ENDBRANCH   7  10
ENDBRANCH   1   7
BRANCH   4  19
ATOM     19  C   UNL     1      48.782  10.627  14.023  0.00  0.00    +0.000 C 
BRANCH  19  20
ATOM     20  N   UNL     1      47.679   9.781  13.613  0.00  0.00    +0.000 N 
ATOM     21  C   UNL     1      47.717   9.005  12.481  0.00  0.00    +0.000 C 
ATOM     22  O   UNL     1      48.676   9.015  11.714  0.00  0.00    +0.000 OA
ATOM     23  H   UNL     1      46.817   9.842  14.147  0.00  0.00    +0.000 HD
BRANCH  21  24
ATOM     24  C   UNL     1      46.577   8.105  12.256  0.00  0.00    +0.000 A 
ATOM     25  C   UNL     1      45.401   8.620  11.729  0.00  0.00    +0.000 A 
ATOM     26  S   UNL     1      44.163   7.461  11.547  0.00  0.00    +0.000 S 
ATOM     27  C   UNL     1      45.143   6.234  12.198  0.00  0.00    +0.000 A 
ATOM     28  N   UNL     1      44.661   4.976  12.369  0.00  0.00    +0.000 NA
ATOM     29  C   UNL     1      45.497   4.149  12.909  0.00  0.00    +0.000 A 
ATOM     30  N   UNL     1      46.779   4.470  13.272  0.00  0.00    +0.000 N 
ATOM     31  C   UNL     1      47.336   5.704  13.038  0.00  0.00    +0.000 A 
ATOM     32  O   UNL     1      48.528   5.914  13.233  0.00  0.00    +0.000 OA
ATOM     33  C   UNL     1      46.414   6.691  12.503  0.00  0.00    +0.000 A 
ATOM     34  H   UNL     1      47.395   3.768  13.650  0.00  0.00    +0.000 HD
ENDBRANCH  21  24
ENDBRANCH  19  20
ENDBRANCH   4  19
TORSDOF 7
ENDMDL
