MODEL 1
REMARK VINA RESULT:    -8.481      0.000      0.000
REMARK INTER + INTRA:         -12.986
REMARK INTER:                 -11.951
REMARK INTRA:                  -1.035
REMARK UNBOUND:                -1.035
REMARK  Name = 
REMARK  7 active torsions:
REMARK  status: ('A' for Active; 'I' for Inactive)
REMARK    1  A    between atoms: C_2  and  C_3
REMARK    2  A    between atoms: C_2  and  C_25
REMARK    3  A    between atoms: C_3  and  N_4
REMARK    4  A    between atoms: N_4  and  C_5
REMARK    5  A    between atoms: C_8  and  C_9
REMARK    6  A    between atoms: C_9  and  N_10
REMARK    7  A    between atoms: C_11  and  C_13
REMARK                            x       y       z     vdW  Elec       q    Type
REMARK                         _______ _______ _______ _____ _____    ______ ____
ROOT
ATOM      1  C   UNL     1      44.675   5.822  11.090  0.00  0.00    +0.000 A 
ATOM      2  C   UNL     1      44.395   7.172  11.311  0.00  0.00    +0.000 A 
ATOM      3  C   UNL     1      45.226   7.953  12.116  0.00  0.00    +0.000 A 
ATOM      4  C   UNL     1      46.345   7.365  12.693  0.00  0.00    +0.000 A 
ATOM      5  N   UNL     1      46.670   6.066  12.479  0.00  0.00    +0.000 NA
ATOM      6  C   UNL     1      45.829   5.338  11.701  0.00  0.00    +0.000 A 
ENDROOT
BRANCH   1   7
ATOM      7  N   UNL     1      43.777   5.069  10.350  0.00  0.00    +0.000 N 
ATOM      8  H   UNL     1      42.808   5.389  10.401  0.00  0.00    +0.000 HD
BRANCH   7   9
ATOM      9  C   UNL     1      44.135   4.472   9.060  0.00  0.00    +0.000 C 
BRANCH   9  11
ATOM     10  O   UNL     1      43.949   2.262  10.048  0.00  0.00    +0.000 OA
ATOM     11  C   UNL     1      44.519   3.009   9.251  0.00  0.00    +0.000 C 
BRANCH  11  12
ATOM     12  C   UNL     1      45.603   2.488   8.373  0.00  0.00    +0.000 A 
ATOM     13  C   UNL     1      46.281   3.357   7.526  0.00  0.00    +0.000 A 
ATOM     14  C   UNL     1      47.299   2.842   6.729  0.00  0.00    +0.000 A 
ATOM     15  C   UNL     1      47.600   1.486   6.799  0.00  0.00    +0.000 A 
ATOM     16  C   UNL     1      46.871   0.694   7.672  0.00  0.00    +0.000 A 
ATOM     17  N   UNL     1      45.882   1.162   8.467  0.00  0.00    +0.000 NA
ENDBRANCH  11  12
ENDBRANCH   9  11
ENDBRANCH   7   9
ENDBRANCH   1   7
BRANCH   4  18
ATOM     18  C   UNL     1      47.263   8.169  13.578  0.00  0.00    +0.000 C 
BRANCH  18  19
ATOM     19  N   UNL     1      47.660   7.438  14.758  0.00  0.00    +0.000 N 
ATOM     20  C   UNL     1      48.889   6.849  14.883  0.00  0.00    +0.000 C 
ATOM     21  O   UNL     1      49.737   6.913  13.995  0.00  0.00    +0.000 OA
ATOM     22  H   UNL     1      46.907   7.176  15.385  0.00  0.00    +0.000 HD
BRANCH  20  23
ATOM     23  C   UNL     1      49.174   6.199  16.168  0.00  0.00    +0.000 A 
ATOM     24  C   UNL     1      50.182   6.701  16.981  0.00  0.00    +0.000 A 
ATOM     25  S   UNL     1      50.351   5.868  18.459  0.00  0.00    +0.000 S 
ATOM     26  C   UNL     1      49.115   4.774  18.046  0.00  0.00    +0.000 A 
ATOM     27  N   UNL     1      48.768   3.763  18.889  0.00  0.00    +0.000 NA
ATOM     28  C   UNL     1      47.840   2.990  18.435  0.00  0.00    +0.000 A 
ATOM     29  N   UNL     1      47.222   3.136  17.221  0.00  0.00    +0.000 N 
ATOM     30  C   UNL     1      47.501   4.175  16.362  0.00  0.00    +0.000 A 
ATOM     31  O   UNL     1      46.863   4.331  15.330  0.00  0.00    +0.000 OA
ATOM     32  C   UNL     1      48.563   5.055  16.807  0.00  0.00    +0.000 A 
ATOM     33  H   UNL     1      46.486   2.509  16.934  0.00  0.00    +0.000 HD
ENDBRANCH  20  23
ENDBRANCH  18  19
ENDBRANCH   4  18
TORSDOF 7
ENDMDL
MODEL 2
REMARK VINA RESULT:    -8.244      1.683      1.957
REMARK INTER + INTRA:         -12.653
REMARK INTER:                 -11.778
REMARK INTRA:                  -0.875
REMARK UNBOUND:                -1.035
REMARK  Name = 
REMARK  7 active torsions:
REMARK  status: ('A' for Active; 'I' for Inactive)
REMARK    1  A    between atoms: C_2  and  C_3
REMARK    2  A    between atoms: C_2  and  C_25
REMARK    3  A    between atoms: C_3  and  N_4
REMARK    4  A    between atoms: N_4  and  C_5
REMARK    5  A    between atoms: C_8  and  C_9
REMARK    6  A    between atoms: C_9  and  N_10
REMARK    7  A    between atoms: C_11  and  C_13
REMARK                            x       y       z     vdW  Elec       q    Type
REMARK                         _______ _______ _______ _____ _____    ______ ____
ROOT
ATOM      1  C   UNL     1      45.241   5.176  11.625  0.00  0.00    +0.000 A 
ATOM      2  C   UNL     1      45.909   6.315  11.173  0.00  0.00    +0.000 A 
ATOM      3  C   UNL     1      47.000   6.832  11.873  0.00  0.00    +0.000 A 
ATOM      4  C   UNL     1      47.416   6.188  13.033  0.00  0.00    +0.000 A 
ATOM      5  N   UNL     1      46.816   5.063  13.491  0.00  0.00    +0.000 NA
ATOM      6  C   UNL     1      45.750   4.600  12.787  0.00  0.00    +0.000 A 
ENDROOT
BRANCH   1   7
ATOM      7  N   UNL     1      44.114   4.749  10.940  0.00  0.00    +0.000 N 
ATOM      8  H   UNL     1      43.248   5.220  11.208  0.00  0.00    +0.000 HD
BRANCH   7   9
ATOM      9  C   UNL     1      44.161   4.355   9.529  0.00  0.00    +0.000 C 
BRANCH   9  11
ATOM     10  O   UNL     1      43.964   1.996  10.073  0.00  0.00    +0.000 OA
ATOM     11  C   UNL     1      44.517   2.877   9.412  0.00  0.00    +0.000 C 
BRANCH  11  12
ATOM     12  C   UNL     1      45.550   2.522   8.399  0.00  0.00    +0.000 A 
ATOM     13  C   UNL     1      45.987   3.483   7.494  0.00  0.00    +0.000 A 
ATOM     14  C   UNL     1      46.963   3.124   6.570  0.00  0.00    +0.000 A 
ATOM     15  C   UNL     1      47.464   1.827   6.577  0.00  0.00    +0.000 A 
ATOM     16  C   UNL     1      46.970   0.935   7.515  0.00  0.00    +0.000 A 
ATOM     17  N   UNL     1      46.028   1.251   8.432  0.00  0.00    +0.000 NA
ENDBRANCH  11  12
ENDBRANCH   9  11
ENDBRANCH   7   9
ENDBRANCH   1   7
BRANCH   4  18
ATOM     18  C   UNL     1      48.583   6.719  13.826  0.00  0.00    +0.000 C 
BRANCH  18  19
ATOM     19  N   UNL     1      48.274   6.845  15.231  0.00  0.00    +0.000 N 
ATOM     20  C   UNL     1      49.187   6.583  16.216  0.00  0.00    +0.000 C 
ATOM     21  O   UNL     1      50.335   6.226  15.962  0.00  0.00    +0.000 OA
ATOM     22  H   UNL     1      47.286   6.903  15.458  0.00  0.00    +0.000 HD
BRANCH  20  23
ATOM     23  C   UNL     1      48.747   6.822  17.595  0.00  0.00    +0.000 A 
ATOM     24  C   UNL     1      48.364   8.100  17.980  0.00  0.00    +0.000 A 
ATOM     25  S   UNL     1      47.831   8.199  19.597  0.00  0.00    +0.000 S 
ATOM     26  C   UNL     1      48.139   6.547  19.857  0.00  0.00    +0.000 A 
ATOM     27  N   UNL     1      47.915   5.978  21.074  0.00  0.00    +0.000 NA
ATOM     28  C   UNL     1      48.224   4.727  21.139  0.00  0.00    +0.000 A 
ATOM     29  N   UNL     1      48.727   3.989  20.100  0.00  0.00    +0.000 N 
ATOM     30  C   UNL     1      48.915   4.507  18.839  0.00  0.00    +0.000 A 
ATOM     31  O   UNL     1      49.275   3.796  17.911  0.00  0.00    +0.000 OA
ATOM     32  C   UNL     1      48.618   5.920  18.718  0.00  0.00    +0.000 A 
ATOM     33  H   UNL     1      48.927   3.006  20.210  0.00  0.00    +0.000 HD
ENDBRANCH  20  23
ENDBRANCH  18  19
ENDBRANCH   4  18
TORSDOF 7
ENDMDL
MODEL 3
REMARK VINA RESULT:    -8.026      2.331      2.916
REMARK INTER + INTRA:         -12.345
REMARK INTER:                 -11.279
REMARK INTRA:                  -1.066
REMARK UNBOUND:                -1.035
REMARK  Name = 
REMARK  7 active torsions:
REMARK  status: ('A' for Active; 'I' for Inactive)
REMARK    1  A    between atoms: C_2  and  C_3
REMARK    2  A    between atoms: C_2  and  C_25
REMARK    3  A    between atoms: C_3  and  N_4
REMARK    4  A    between atoms: N_4  and  C_5
REMARK    5  A    between atoms: C_8  and  C_9
REMARK    6  A    between atoms: C_9  and  N_10
REMARK    7  A    between atoms: C_11  and  C_13
REMARK                            x       y       z     vdW  Elec       q    Type
REMARK                         _______ _______ _______ _____ _____    ______ ____
ROOT
ATOM      1  C   UNL     1      45.182   5.336  11.755  0.00  0.00    +0.000 A 
ATOM      2  C   UNL     1      45.948   6.430  11.349  0.00  0.00    +0.000 A 
ATOM      3  C   UNL     1      47.041   6.859  12.103  0.00  0.00    +0.000 A 
ATOM      4  C   UNL     1      47.360   6.173  13.269  0.00  0.00    +0.000 A 
ATOM      5  N   UNL     1      46.662   5.087  13.684  0.00  0.00    +0.000 NA
ATOM      6  C   UNL     1      45.598   4.711  12.929  0.00  0.00    +0.000 A 
ENDROOT
BRANCH   1   7
ATOM      7  N   UNL     1      44.058   4.999  11.016  0.00  0.00    +0.000 N 
ATOM      8  H   UNL     1      43.229   5.560  11.221  0.00  0.00    +0.000 HD
BRANCH   7   9
ATOM      9  C   UNL     1      44.145   4.559   9.621  0.00  0.00    +0.000 C 
BRANCH   9  11
ATOM     10  O   UNL     1      43.894   2.234  10.277  0.00  0.00    +0.000 OA
ATOM     11  C   UNL     1      44.456   3.067   9.563  0.00  0.00    +0.000 C 
BRANCH  11  12
ATOM     12  C   UNL     1      45.452   2.636   8.544  0.00  0.00    +0.000 A 
ATOM     13  C   UNL     1      45.923   3.552   7.610  0.00  0.00    +0.000 A 
ATOM     14  C   UNL     1      46.865   3.122   6.680  0.00  0.00    +0.000 A 
ATOM     15  C   UNL     1      47.298   1.801   6.710  0.00  0.00    +0.000 A 
ATOM     16  C   UNL     1      46.774   0.957   7.676  0.00  0.00    +0.000 A 
ATOM     17  N   UNL     1      45.864   1.343   8.599  0.00  0.00    +0.000 NA
ENDBRANCH  11  12
ENDBRANCH   9  11
ENDBRANCH   7   9
ENDBRANCH   1   7
BRANCH   4  18
ATOM     18  C   UNL     1      48.526   6.609  14.120  0.00  0.00    +0.000 C 
BRANCH  18  19
ATOM     19  N   UNL     1      48.179   6.689  15.519  0.00  0.00    +0.000 N 
ATOM     20  C   UNL     1      49.021   6.274  16.515  0.00  0.00    +0.000 C 
ATOM     21  O   UNL     1      50.134   5.810  16.276  0.00  0.00    +0.000 OA
ATOM     22  H   UNL     1      47.195   6.840  15.719  0.00  0.00    +0.000 HD
BRANCH  20  23
ATOM     23  C   UNL     1      48.559   6.481  17.891  0.00  0.00    +0.000 A 
ATOM     24  C   UNL     1      48.527   5.409  18.773  0.00  0.00    +0.000 A 
ATOM     25  S   UNL     1      48.017   5.827  20.345  0.00  0.00    +0.000 S 
ATOM     26  C   UNL     1      47.772   7.449  19.893  0.00  0.00    +0.000 A 
ATOM     27  N   UNL     1      47.304   8.360  20.790  0.00  0.00    +0.000 NA
ATOM     28  C   UNL     1      47.133   9.543  20.303  0.00  0.00    +0.000 A 
ATOM     29  N   UNL     1      47.394   9.902  19.007  0.00  0.00    +0.000 N 
ATOM     30  C   UNL     1      47.921   9.030  18.082  0.00  0.00    +0.000 A 
ATOM     31  O   UNL     1      48.232   9.408  16.962  0.00  0.00    +0.000 OA
ATOM     32  C   UNL     1      48.099   7.675  18.566  0.00  0.00    +0.000 A 
ATOM     33  H   UNL     1      47.260  10.852  18.695  0.00  0.00    +0.000 HD
ENDBRANCH  20  23
ENDBRANCH  18  19
ENDBRANCH   4  18
TORSDOF 7
ENDMDL
MODEL 4
REMARK VINA RESULT:    -7.994      2.679      3.255
REMARK INTER + INTRA:         -12.300
REMARK INTER:                 -11.178
REMARK INTRA:                  -1.122
REMARK UNBOUND:                -1.035
REMARK  Name = 
REMARK  7 active torsions:
REMARK  status: ('A' for Active; 'I' for Inactive)
REMARK    1  A    between atoms: C_2  and  C_3
REMARK    2  A    between atoms: C_2  and  C_25
REMARK    3  A    between atoms: C_3  and  N_4
REMARK    4  A    between atoms: N_4  and  C_5
REMARK    5  A    between atoms: C_8  and  C_9
REMARK    6  A    between atoms: C_9  and  N_10
REMARK    7  A    between atoms: C_11  and  C_13
REMARK                            x       y       z     vdW  Elec       q    Type
REMARK                         _______ _______ _______ _____ _____    ______ ____
ROOT
ATOM      1  C   UNL     1      46.223   4.098  13.251  0.00  0.00    +0.000 A 
ATOM      2  C   UNL     1      46.485   5.410  12.853  0.00  0.00    +0.000 A 
ATOM      3  C   UNL     1      47.284   6.249  13.630  0.00  0.00    +0.000 A 
ATOM      4  C   UNL     1      47.823   5.754  14.811  0.00  0.00    +0.000 A 
ATOM      5  N   UNL     1      47.620   4.478  15.220  0.00  0.00    +0.000 NA
ATOM      6  C   UNL     1      46.826   3.698  14.442  0.00  0.00    +0.000 A 
ENDROOT
BRANCH   1   7
ATOM      7  N   UNL     1      45.358   3.330  12.486  0.00  0.00    +0.000 N 
ATOM      8  H   UNL     1      45.507   2.322  12.557  0.00  0.00    +0.000 HD
BRANCH   7   9
ATOM      9  C   UNL     1      43.958   3.708  12.275  0.00  0.00    +0.000 C 
BRANCH   9  11
ATOM     10  O   UNL     1      43.032   5.235  10.629  0.00  0.00    +0.000 OA
ATOM     11  C   UNL     1      43.779   4.287  10.875  0.00  0.00    +0.000 C 
BRANCH  11  12
ATOM     12  C   UNL     1      44.607   3.680   9.797  0.00  0.00    +0.000 A 
ATOM     13  C   UNL     1      45.285   4.501   8.902  0.00  0.00    +0.000 A 
ATOM     14  C   UNL     1      46.062   3.904   7.915  0.00  0.00    +0.000 A 
ATOM     15  C   UNL     1      46.133   2.516   7.851  0.00  0.00    +0.000 A 
ATOM     16  C   UNL     1      45.424   1.776   8.783  0.00  0.00    +0.000 A 
ATOM     17  N   UNL     1      44.666   2.323   9.761  0.00  0.00    +0.000 NA
ENDBRANCH  11  12
ENDBRANCH   9  11
ENDBRANCH   7   9
ENDBRANCH   1   7
BRANCH   4  18
ATOM     18  C   UNL     1      48.683   6.630  15.687  0.00  0.00    +0.000 C 
BRANCH  18  19
ATOM     19  N   UNL     1      49.786   5.903  16.269  0.00  0.00    +0.000 N 
ATOM     20  C   UNL     1      49.884   5.656  17.611  0.00  0.00    +0.000 C 
ATOM     21  O   UNL     1      49.029   6.037  18.408  0.00  0.00    +0.000 OA
ATOM     22  H   UNL     1      50.601   5.793  15.673  0.00  0.00    +0.000 HD
BRANCH  20  23
ATOM     23  C   UNL     1      51.026   4.844  18.046  0.00  0.00    +0.000 A 
ATOM     24  C   UNL     1      52.056   5.438  18.764  0.00  0.00    +0.000 A 
ATOM     25  S   UNL     1      53.279   4.349  19.238  0.00  0.00    +0.000 S 
ATOM     26  C   UNL     1      52.502   3.052  18.459  0.00  0.00    +0.000 A 
ATOM     27  N   UNL     1      53.052   1.807  18.462  0.00  0.00    +0.000 NA
ATOM     28  C   UNL     1      52.374   0.926  17.805  0.00  0.00    +0.000 A 
ATOM     29  N   UNL     1      51.195   1.173  17.153  0.00  0.00    +0.000 N 
ATOM     30  C   UNL     1      50.574   2.401  17.172  0.00  0.00    +0.000 A 
ATOM     31  O   UNL     1      49.475   2.562  16.660  0.00  0.00    +0.000 OA
ATOM     32  C   UNL     1      51.312   3.438  17.866  0.00  0.00    +0.000 A 
ATOM     33  H   UNL     1      50.701   0.434  16.675  0.00  0.00    +0.000 HD
ENDBRANCH  20  23
ENDBRANCH  18  19
ENDBRANCH   4  18
TORSDOF 7
ENDMDL
MODEL 5
REMARK VINA RESULT:    -7.525      1.859      2.449
REMARK INTER + INTRA:         -11.640
REMARK INTER:                 -10.319
REMARK INTRA:                  -1.321
REMARK UNBOUND:                -1.035
REMARK  Name = 
REMARK  7 active torsions:
REMARK  status: ('A' for Active; 'I' for Inactive)
REMARK    1  A    between atoms: C_2  and  C_3
REMARK    2  A    between atoms: C_2  and  C_25
REMARK    3  A    between atoms: C_3  and  N_4
REMARK    4  A    between atoms: N_4  and  C_5
REMARK    5  A    between atoms: C_8  and  C_9
REMARK    6  A    between atoms: C_9  and  N_10
REMARK    7  A    between atoms: C_11  and  C_13
REMARK                            x       y       z     vdW  Elec       q    Type
REMARK                         _______ _______ _______ _____ _____    ______ ____
ROOT
ATOM      1  C   UNL     1      44.780   5.816  12.883  0.00  0.00    +0.000 A 
ATOM      2  C   UNL     1      45.897   5.068  13.258  0.00  0.00    +0.000 A 
ATOM      3  C   UNL     1      47.175   5.628  13.235  0.00  0.00    +0.000 A 
ATOM      4  C   UNL     1      47.319   6.951  12.835  0.00  0.00    +0.000 A 
ATOM      5  N   UNL     1      46.259   7.722  12.492  0.00  0.00    +0.000 NA
ATOM      6  C   UNL     1      45.034   7.136  12.516  0.00  0.00    +0.000 A 
ENDROOT
BRANCH   1   7
ATOM      7  N   UNL     1      43.543   5.192  12.845  0.00  0.00    +0.000 N 
ATOM      8  H   UNL     1      42.883   5.510  13.557  0.00  0.00    +0.000 HD
BRANCH   7   9
ATOM      9  C   UNL     1      42.908   4.793  11.585  0.00  0.00    +0.000 C 
BRANCH   9  11
ATOM     10  O   UNL     1      42.999   2.371  11.743  0.00  0.00    +0.000 OA
ATOM     11  C   UNL     1      43.380   3.400  11.182  0.00  0.00    +0.000 C 
BRANCH  11  12
ATOM     12  C   UNL     1      44.301   3.325  10.014  0.00  0.00    +0.000 A 
ATOM     13  C   UNL     1      44.785   4.496   9.441  0.00  0.00    +0.000 A 
ATOM     14  C   UNL     1      45.656   4.392   8.361  0.00  0.00    +0.000 A 
ATOM     15  C   UNL     1      46.007   3.132   7.888  0.00  0.00    +0.000 A 
ATOM     16  C   UNL     1      45.476   2.019   8.520  0.00  0.00    +0.000 A 
ATOM     17  N   UNL     1      44.635   2.083   9.577  0.00  0.00    +0.000 NA
ENDBRANCH  11  12
ENDBRANCH   9  11
ENDBRANCH   7   9
ENDBRANCH   1   7
BRANCH   4  18
ATOM     18  C   UNL     1      48.684   7.592  12.784  0.00  0.00    +0.000 C 
BRANCH  18  19
ATOM     19  N   UNL     1      49.590   7.020  13.752  0.00  0.00    +0.000 N 
ATOM     20  C   UNL     1      50.194   7.764  14.729  0.00  0.00    +0.000 C 
ATOM     21  O   UNL     1      49.997   8.971  14.844  0.00  0.00    +0.000 OA
ATOM     22  H   UNL     1      49.943   6.094  13.529  0.00  0.00    +0.000 HD
BRANCH  20  23
ATOM     23  C   UNL     1      51.035   7.031  15.682  0.00  0.00    +0.000 A 
ATOM     24  C   UNL     1      52.400   7.285  15.729  0.00  0.00    +0.000 A 
ATOM     25  S   UNL     1      53.223   6.391  16.926  0.00  0.00    +0.000 S 
ATOM     26  C   UNL     1      51.794   5.596  17.393  0.00  0.00    +0.000 A 
ATOM     27  N   UNL     1      51.809   4.657  18.379  0.00  0.00    +0.000 NA
ATOM     28  C   UNL     1      50.662   4.110  18.607  0.00  0.00    +0.000 A 
ATOM     29  N   UNL     1      49.502   4.420  17.949  0.00  0.00    +0.000 N 
ATOM     30  C   UNL     1      49.428   5.402  16.986  0.00  0.00    +0.000 A 
ATOM     31  O   UNL     1      48.358   5.718  16.487  0.00  0.00    +0.000 OA
ATOM     32  C   UNL     1      50.697   6.024  16.664  0.00  0.00    +0.000 A 
ATOM     33  H   UNL     1      48.632   3.971  18.191  0.00  0.00    +0.000 HD
ENDBRANCH  20  23
ENDBRANCH  18  19
ENDBRANCH   4  18
TORSDOF 7
ENDMDL
MODEL 6
REMARK VINA RESULT:    -7.436      2.246      2.464
REMARK INTER + INTRA:         -11.515
REMARK INTER:                 -10.624
REMARK INTRA:                  -0.891
REMARK UNBOUND:                -1.035
REMARK  Name = 
REMARK  7 active torsions:
REMARK  status: ('A' for Active; 'I' for Inactive)
REMARK    1  A    between atoms: C_2  and  C_3
REMARK    2  A    between atoms: C_2  and  C_25
REMARK    3  A    between atoms: C_3  and  N_4
REMARK    4  A    between atoms: N_4  and  C_5
REMARK    5  A    between atoms: C_8  and  C_9
REMARK    6  A    between atoms: C_9  and  N_10
REMARK    7  A    between atoms: C_11  and  C_13
REMARK                            x       y       z     vdW  Elec       q    Type
REMARK                         _______ _______ _______ _____ _____    ______ ____
ROOT
ATOM      1  C   UNL     1      45.518   3.693  12.370  0.00  0.00    +0.000 A 
ATOM      2  C   UNL     1      45.042   4.993  12.553  0.00  0.00    +0.000 A 
ATOM      3  C   UNL     1      45.705   5.887  13.394  0.00  0.00    +0.000 A 
ATOM      4  C   UNL     1      46.857   5.463  14.048  0.00  0.00    +0.000 A 
ATOM      5  N   UNL     1      47.370   4.221  13.875  0.00  0.00    +0.000 NA
ATOM      6  C   UNL     1      46.688   3.377  13.058  0.00  0.00    +0.000 A 
ENDROOT
BRANCH   1   7
ATOM      7  N   UNL     1      44.780   2.818  11.589  0.00  0.00    +0.000 N 
ATOM      8  H   UNL     1      44.282   2.096  12.112  0.00  0.00    +0.000 HD
BRANCH   7   9
ATOM      9  C   UNL     1      44.087   3.252  10.372  0.00  0.00    +0.000 C 
BRANCH   9  11
ATOM     10  O   UNL     1      45.323   5.103   9.401  0.00  0.00    +0.000 OA
ATOM     11  C   UNL     1      45.079   3.895   9.409  0.00  0.00    +0.000 C 
BRANCH  11  12
ATOM     12  C   UNL     1      45.802   2.974   8.489  0.00  0.00    +0.000 A 
ATOM     13  C   UNL     1      46.483   3.490   7.391  0.00  0.00    +0.000 A 
ATOM     14  C   UNL     1      47.161   2.604   6.559  0.00  0.00    +0.000 A 
ATOM     15  C   UNL     1      47.133   1.243   6.845  0.00  0.00    +0.000 A 
ATOM     16  C   UNL     1      46.429   0.819   7.960  0.00  0.00    +0.000 A 
ATOM     17  N   UNL     1      45.766   1.651   8.795  0.00  0.00    +0.000 NA
ENDBRANCH  11  12
ENDBRANCH   9  11
ENDBRANCH   7   9
ENDBRANCH   1   7
BRANCH   4  18
ATOM     18  C   UNL     1      47.598   6.393  14.975  0.00  0.00    +0.000 C 
BRANCH  18  19
ATOM     19  N   UNL     1      48.771   5.774  15.543  0.00  0.00    +0.000 N 
ATOM     20  C   UNL     1      49.099   5.887  16.867  0.00  0.00    +0.000 C 
ATOM     21  O   UNL     1      48.406   6.522  17.659  0.00  0.00    +0.000 OA
ATOM     22  H   UNL     1      49.466   5.455  14.875  0.00  0.00    +0.000 HD
BRANCH  20  23
ATOM     23  C   UNL     1      50.283   5.144  17.313  0.00  0.00    +0.000 A 
ATOM     24  C   UNL     1      51.372   5.836  17.828  0.00  0.00    +0.000 A 
ATOM     25  S   UNL     1      52.643   4.825  18.349  0.00  0.00    +0.000 S 
ATOM     26  C   UNL     1      51.805   3.428  17.860  0.00  0.00    +0.000 A 
ATOM     27  N   UNL     1      52.362   2.194  18.006  0.00  0.00    +0.000 NA
ATOM     28  C   UNL     1      51.631   1.227  17.562  0.00  0.00    +0.000 A 
ATOM     29  N   UNL     1      50.394   1.377  16.994  0.00  0.00    +0.000 N 
ATOM     30  C   UNL     1      49.768   2.598  16.879  0.00  0.00    +0.000 A 
ATOM     31  O   UNL     1      48.625   2.685  16.456  0.00  0.00    +0.000 OA
ATOM     32  C   UNL     1      50.561   3.725  17.329  0.00  0.00    +0.000 A 
ATOM     33  H   UNL     1      49.863   0.577  16.687  0.00  0.00    +0.000 HD
ENDBRANCH  20  23
ENDBRANCH  18  19
ENDBRANCH   4  18
TORSDOF 7
ENDMDL
MODEL 7
REMARK VINA RESULT:    -7.178      2.354      3.183
REMARK INTER + INTRA:         -11.151
REMARK INTER:                 -10.238
REMARK INTRA:                  -0.913
REMARK UNBOUND:                -1.035
REMARK  Name = 
REMARK  7 active torsions:
REMARK  status: ('A' for Active; 'I' for Inactive)
REMARK    1  A    between atoms: C_2  and  C_3
REMARK    2  A    between atoms: C_2  and  C_25
REMARK    3  A    between atoms: C_3  and  N_4
REMARK    4  A    between atoms: N_4  and  C_5
REMARK    5  A    between atoms: C_8  and  C_9
REMARK    6  A    between atoms: C_9  and  N_10
REMARK    7  A    between atoms: C_11  and  C_13
REMARK                            x       y       z     vdW  Elec       q    Type
REMARK                         _______ _______ _______ _____ _____    ______ ____
ROOT
ATOM      1  C   UNL     1      45.752   5.122  12.189  0.00  0.00    +0.000 A 
ATOM      2  C   UNL     1      45.885   6.457  11.805  0.00  0.00    +0.000 A 
ATOM      3  C   UNL     1      46.776   7.306  12.461  0.00  0.00    +0.000 A 
ATOM      4  C   UNL     1      47.538   6.798  13.507  0.00  0.00    +0.000 A 
ATOM      5  N   UNL     1      47.463   5.501  13.892  0.00  0.00    +0.000 NA
ATOM      6  C   UNL     1      46.574   4.711  13.236  0.00  0.00    +0.000 A 
ENDROOT
BRANCH   1   7
ATOM      7  N   UNL     1      44.796   4.340  11.559  0.00  0.00    +0.000 N 
ATOM      8  H   UNL     1      43.917   4.246  12.072  0.00  0.00    +0.000 HD
BRANCH   7   9
ATOM      9  C   UNL     1      44.635   4.325  10.102  0.00  0.00    +0.000 C 
BRANCH   9  11
ATOM     10  O   UNL     1      43.832   2.034  10.037  0.00  0.00    +0.000 OA
ATOM     11  C   UNL     1      44.604   2.887   9.595  0.00  0.00    +0.000 C 
BRANCH  11  12
ATOM     12  C   UNL     1      45.531   2.559   8.477  0.00  0.00    +0.000 A 
ATOM     13  C   UNL     1      45.816   3.520   7.513  0.00  0.00    +0.000 A 
ATOM     14  C   UNL     1      46.697   3.187   6.488  0.00  0.00    +0.000 A 
ATOM     15  C   UNL     1      47.256   1.914   6.457  0.00  0.00    +0.000 A 
ATOM     16  C   UNL     1      46.914   1.020   7.460  0.00  0.00    +0.000 A 
ATOM     17  N   UNL     1      46.069   1.312   8.474  0.00  0.00    +0.000 NA
ENDBRANCH  11  12
ENDBRANCH   9  11
ENDBRANCH   7   9
ENDBRANCH   1   7
BRANCH   4  18
ATOM     18  C   UNL     1      48.505   7.684  14.252  0.00  0.00    +0.000 C 
BRANCH  18  19
ATOM     19  N   UNL     1      49.494   6.921  14.976  0.00  0.00    +0.000 N 
ATOM     20  C   UNL     1      49.565   6.911  16.343  0.00  0.00    +0.000 C 
ATOM     21  O   UNL     1      48.782   7.552  17.041  0.00  0.00    +0.000 OA
ATOM     22  H   UNL     1      50.279   6.587  14.426  0.00  0.00    +0.000 HD
BRANCH  20  23
ATOM     23  C   UNL     1      50.579   6.034  16.938  0.00  0.00    +0.000 A 
ATOM     24  C   UNL     1      50.193   5.058  17.847  0.00  0.00    +0.000 A 
ATOM     25  S   UNL     1      51.481   4.090  18.404  0.00  0.00    +0.000 S 
ATOM     26  C   UNL     1      52.611   4.972  17.489  0.00  0.00    +0.000 A 
ATOM     27  N   UNL     1      53.937   4.666  17.535  0.00  0.00    +0.000 NA
ATOM     28  C   UNL     1      54.684   5.437  16.818  0.00  0.00    +0.000 A 
ATOM     29  N   UNL     1      54.230   6.479  16.055  0.00  0.00    +0.000 N 
ATOM     30  C   UNL     1      52.894   6.789  15.933  0.00  0.00    +0.000 A 
ATOM     31  O   UNL     1      52.515   7.665  15.169  0.00  0.00    +0.000 OA
ATOM     32  C   UNL     1      52.012   5.976  16.747  0.00  0.00    +0.000 A 
ATOM     33  H   UNL     1      54.865   7.031  15.498  0.00  0.00    +0.000 HD
ENDBRANCH  20  23
ENDBRANCH  18  19
ENDBRANCH   4  18
TORSDOF 7
ENDMDL
MODEL 8
REMARK VINA RESULT:    -7.155      3.262      8.082
REMARK INTER + INTRA:         -11.118
REMARK INTER:                  -9.451
REMARK INTRA:                  -1.667
REMARK UNBOUND:                -1.035
REMARK  Name = 
REMARK  7 active torsions:
REMARK  status: ('A' for Active; 'I' for Inactive)
REMARK    1  A    between atoms: C_2  and  C_3
REMARK    2  A    between atoms: C_2  and  C_25
REMARK    3  A    between atoms: C_3  and  N_4
REMARK    4  A    between atoms: N_4  and  C_5
REMARK    5  A    between atoms: C_8  and  C_9
REMARK    6  A    between atoms: C_9  and  N_10
REMARK    7  A    between atoms: C_11  and  C_13
REMARK                            x       y       z     vdW  Elec       q    Type
REMARK                         _______ _______ _______ _____ _____    ______ ____
ROOT
ATOM      1  C   UNL     1      48.862   7.763  16.392  0.00  0.00    +0.000 A 
ATOM      2  C   UNL     1      49.256   6.732  15.536  0.00  0.00    +0.000 A 
ATOM      3  C   UNL     1      49.048   6.825  14.160  0.00  0.00    +0.000 A 
ATOM      4  C   UNL     1      48.443   7.968  13.650  0.00  0.00    +0.000 A 
ATOM      5  N   UNL     1      48.072   9.004  14.441  0.00  0.00    +0.000 NA
ATOM      6  C   UNL     1      48.281   8.869  15.776  0.00  0.00    +0.000 A 
ENDROOT
BRANCH   1   7
ATOM      7  N   UNL     1      49.017   7.589  17.758  0.00  0.00    +0.000 N 
ATOM      8  H   UNL     1      49.855   8.023  18.151  0.00  0.00    +0.000 HD
BRANCH   7   9
ATOM      9  C   UNL     1      47.876   7.567  18.677  0.00  0.00    +0.000 C 
BRANCH   9  11
ATOM     10  O   UNL     1      47.423   6.073  20.538  0.00  0.00    +0.000 OA
ATOM     11  C   UNL     1      47.789   6.210  19.369  0.00  0.00    +0.000 C 
BRANCH  11  12
ATOM     12  C   UNL     1      48.118   5.020  18.537  0.00  0.00    +0.000 A 
ATOM     13  C   UNL     1      47.133   4.437  17.747  0.00  0.00    +0.000 A 
ATOM     14  C   UNL     1      47.476   3.335  16.970  0.00  0.00    +0.000 A 
ATOM     15  C   UNL     1      48.779   2.852  17.011  0.00  0.00    +0.000 A 
ATOM     16  C   UNL     1      49.695   3.495  17.828  0.00  0.00    +0.000 A 
ATOM     17  N   UNL     1      49.399   4.573  18.589  0.00  0.00    +0.000 NA
ENDBRANCH  11  12
ENDBRANCH   9  11
ENDBRANCH   7   9
ENDBRANCH   1   7
BRANCH   4  18
ATOM     18  C   UNL     1      48.188   8.104  12.170  0.00  0.00    +0.000 C 
BRANCH  18  19
ATOM     19  N   UNL     1      47.485   6.964  11.631  0.00  0.00    +0.000 N 
ATOM     20  C   UNL     1      46.135   6.964  11.410  0.00  0.00    +0.000 C 
ATOM     21  O   UNL     1      45.435   7.944  11.653  0.00  0.00    +0.000 OA
ATOM     22  H   UNL     1      47.995   6.086  11.650  0.00  0.00    +0.000 HD
BRANCH  20  23
ATOM     23  C   UNL     1      45.573   5.756  10.794  0.00  0.00    +0.000 A 
ATOM     24  C   UNL     1      45.777   5.520   9.440  0.00  0.00    +0.000 A 
ATOM     25  S   UNL     1      45.107   4.050   8.892  0.00  0.00    +0.000 S 
ATOM     26  C   UNL     1      44.478   3.700  10.433  0.00  0.00    +0.000 A 
ATOM     27  N   UNL     1      43.754   2.567  10.650  0.00  0.00    +0.000 NA
ATOM     28  C   UNL     1      43.310   2.444  11.855  0.00  0.00    +0.000 A 
ATOM     29  N   UNL     1      43.529   3.342  12.866  0.00  0.00    +0.000 N 
ATOM     30  C   UNL     1      44.301   4.471  12.708  0.00  0.00    +0.000 A 
ATOM     31  O   UNL     1      44.555   5.201  13.655  0.00  0.00    +0.000 OA
ATOM     32  C   UNL     1      44.796   4.677  11.361  0.00  0.00    +0.000 A 
ATOM     33  H   UNL     1      43.172   3.176  13.795  0.00  0.00    +0.000 HD
ENDBRANCH  20  23
ENDBRANCH  18  19
ENDBRANCH   4  18
TORSDOF 7
ENDMDL
MODEL 9
REMARK VINA RESULT:    -7.053      4.594      9.480
REMARK INTER + INTRA:         -10.975
REMARK INTER:                 -10.091
REMARK INTRA:                  -0.884
REMARK UNBOUND:                -1.035
REMARK  Name = 
REMARK  7 active torsions:
REMARK  status: ('A' for Active; 'I' for Inactive)
REMARK    1  A    between atoms: C_2  and  C_3
REMARK    2  A    between atoms: C_2  and  C_25
REMARK    3  A    between atoms: C_3  and  N_4
REMARK    4  A    between atoms: N_4  and  C_5
REMARK    5  A    between atoms: C_8  and  C_9
REMARK    6  A    between atoms: C_9  and  N_10
REMARK    7  A    between atoms: C_11  and  C_13
REMARK                            x       y       z     vdW  Elec       q    Type
REMARK                         _______ _______ _______ _____ _____    ______ ____
ROOT
ATOM      1  C   UNL     1      51.270   3.797  18.043  0.00  0.00    +0.000 A 
ATOM      2  C   UNL     1      50.838   2.619  17.430  0.00  0.00    +0.000 A 
ATOM      3  C   UNL     1      49.511   2.466  17.028  0.00  0.00    +0.000 A 
ATOM      4  C   UNL     1      48.621   3.511  17.244  0.00  0.00    +0.000 A 
ATOM      5  N   UNL     1      49.004   4.682  17.808  0.00  0.00    +0.000 NA
ATOM      6  C   UNL     1      50.301   4.787  18.197  0.00  0.00    +0.000 A 
ENDROOT
BRANCH   1   7
ATOM      7  N   UNL     1      52.577   3.871  18.497  0.00  0.00    +0.000 N 
ATOM      8  H   UNL     1      52.672   4.018  19.504  0.00  0.00    +0.000 HD
BRANCH   7   9
ATOM      9  C   UNL     1      53.653   3.063  17.914  0.00  0.00    +0.000 C 
BRANCH   9  11
ATOM     10  O   UNL     1      54.199   2.205  20.120  0.00  0.00    +0.000 OA
ATOM     11  C   UNL     1      54.104   1.998  18.909  0.00  0.00    +0.000 C 
BRANCH  11  12
ATOM     12  C   UNL     1      54.378   0.645  18.352  0.00  0.00    +0.000 A 
ATOM     13  C   UNL     1      54.503   0.478  16.977  0.00  0.00    +0.000 A 
ATOM     14  C   UNL     1      54.774  -0.797  16.489  0.00  0.00    +0.000 A 
ATOM     15  C   UNL     1      54.905  -1.855  17.382  0.00  0.00    +0.000 A 
ATOM     16  C   UNL     1      54.763  -1.596  18.736  0.00  0.00    +0.000 A 
ATOM     17  N   UNL     1      54.508  -0.369  19.245  0.00  0.00    +0.000 NA
ENDBRANCH  11  12
ENDBRANCH   9  11
ENDBRANCH   7   9
ENDBRANCH   1   7
BRANCH   4  18
ATOM     18  C   UNL     1      47.175   3.382  16.836  0.00  0.00    +0.000 C 
BRANCH  18  19
ATOM     19  N   UNL     1      46.794   4.378  15.862  0.00  0.00    +0.000 N 
ATOM     20  C   UNL     1      46.827   4.144  14.514  0.00  0.00    +0.000 C 
ATOM     21  O   UNL     1      47.182   3.064  14.048  0.00  0.00    +0.000 OA
ATOM     22  H   UNL     1      46.731   5.329  16.210  0.00  0.00    +0.000 HD
BRANCH  20  23
ATOM     23  C   UNL     1      46.345   5.228  13.651  0.00  0.00    +0.000 A 
ATOM     24  C   UNL     1      47.141   6.347  13.446  0.00  0.00    +0.000 A 
ATOM     25  S   UNL     1      46.460   7.488  12.377  0.00  0.00    +0.000 S 
ATOM     26  C   UNL     1      45.053   6.551  12.187  0.00  0.00    +0.000 A 
ATOM     27  N   UNL     1      44.030   6.981  11.399  0.00  0.00    +0.000 NA
ATOM     28  C   UNL     1      43.012   6.188  11.372  0.00  0.00    +0.000 A 
ATOM     29  N   UNL     1      42.924   5.003  12.053  0.00  0.00    +0.000 N 
ATOM     30  C   UNL     1      43.955   4.501  12.815  0.00  0.00    +0.000 A 
ATOM     31  O   UNL     1      43.880   3.395  13.331  0.00  0.00    +0.000 OA
ATOM     32  C   UNL     1      45.111   5.371  12.909  0.00  0.00    +0.000 A 
ATOM     33  H   UNL     1      42.107   4.417  11.972  0.00  0.00    +0.000 HD
ENDBRANCH  20  23
ENDBRANCH  18  19
ENDBRANCH   4  18
TORSDOF 7
ENDMDL
