MODEL 1
REMARK VINA RESULT:    -6.629      0.000      0.000
REMARK INTER + INTRA:          -9.948
REMARK INTER:                  -8.954
REMARK INTRA:                  -0.995
REMARK UNBOUND:                -0.995
REMARK  Name = 
REMARK  6 active torsions:
REMARK  status: ('A' for Active; 'I' for Inactive)
REMARK    1  A    between atoms: C_2  and  C_19
REMARK    2  A    between atoms: N_3  and  C_4
REMARK    3  A    between atoms: C_4  and  C_5
REMARK    4  A    between atoms: C_8  and  C_9
REMARK    5  A    between atoms: C_9  and  C_10
REMARK    6  A    between atoms: C_10  and  N_11
REMARK                            x       y       z     vdW  Elec       q    Type
REMARK                         _______ _______ _______ _____ _____    ______ ____
ROOT
ATOM      1  O   UNL     1      49.593   4.487  16.659  0.00  0.00    +0.000 OA
ATOM      2  C   UNL     1      48.827   5.443  16.591  0.00  0.00    +0.000 C 
ATOM      3  N   UNL     1      47.628   5.369  15.938  0.00  0.00    +0.000 N 
ATOM      4  H   UNL     1      47.015   6.175  15.896  0.00  0.00    +0.000 HD
ENDROOT
BRANCH   2   5
ATOM      5  C   UNL     1      49.161   6.751  17.161  0.00  0.00    +0.000 A 
ATOM      6  C   UNL     1      49.130   6.943  18.535  0.00  0.00    +0.000 A 
ATOM      7  S   UNL     1      49.573   8.522  19.007  0.00  0.00    +0.000 S 
ATOM      8  C   UNL     1      49.781   9.010  17.389  0.00  0.00    +0.000 A 
ATOM      9  N   UNL     1      50.154  10.281  17.083  0.00  0.00    +0.000 NA
ATOM     10  C   UNL     1      50.246  10.522  15.819  0.00  0.00    +0.000 A 
ATOM     11  N   UNL     1      49.997   9.605  14.829  0.00  0.00    +0.000 N 
ATOM     12  C   UNL     1      49.658   8.299  15.089  0.00  0.00    +0.000 A 
ATOM     13  O   UNL     1      49.520   7.489  14.179  0.00  0.00    +0.000 OA
ATOM     14  C   UNL     1      49.527   7.981  16.500  0.00  0.00    +0.000 A 
ATOM     15  H   UNL     1      50.102   9.850  13.856  0.00  0.00    +0.000 HD
ENDBRANCH   2   5
BRANCH   3  16
ATOM     16  C   UNL     1      47.138   4.159  15.330  0.00  0.00    +0.000 C 
BRANCH  16  17
ATOM     17  C   UNL     1      46.566   4.408  13.963  0.00  0.00    +0.000 A 
ATOM     18  C   UNL     1      46.526   5.691  13.430  0.00  0.00    +0.000 A 
ATOM     19  N   UNL     1      46.022   5.965  12.200  0.00  0.00    +0.000 NA
ATOM     20  C   UNL     1      45.531   4.903  11.515  0.00  0.00    +0.000 A 
ATOM     21  C   UNL     1      45.534   3.627  12.072  0.00  0.00    +0.000 A 
ATOM     22  N   UNL     1      46.053   3.347  13.287  0.00  0.00    +0.000 NA
BRANCH  20  23
ATOM     23  C   UNL     1      44.901   5.120  10.163  0.00  0.00    +0.000 C 
BRANCH  23  24
ATOM     24  C   UNL     1      45.842   4.865   8.975  0.00  0.00    +0.000 C 
BRANCH  24  25
ATOM     25  N   UNL     1      45.222   4.029   7.924  0.00  0.00    +0.000 NA
ATOM     26  C   UNL     1      44.604   2.779   8.417  0.00  0.00    +0.000 C 
ATOM     27  C   UNL     1      45.605   1.679   8.807  0.00  0.00    +0.000 C 
ATOM     28  O   UNL     1      46.508   1.384   7.736  0.00  0.00    +0.000 OA
ATOM     29  C   UNL     1      47.197   2.567   7.313  0.00  0.00    +0.000 C 
ATOM     30  C   UNL     1      46.208   3.662   6.878  0.00  0.00    +0.000 C 
ENDBRANCH  24  25
ENDBRANCH  23  24
ENDBRANCH  20  23
ENDBRANCH  16  17
ENDBRANCH   3  16
TORSDOF 6
ENDMDL
MODEL 2
REMARK VINA RESULT:    -6.618      4.913      8.942
REMARK INTER + INTRA:          -9.934
REMARK INTER:                  -9.237
REMARK INTRA:                  -0.697
REMARK UNBOUND:                -0.995
REMARK  Name = 
REMARK  6 active torsions:
REMARK  status: ('A' for Active; 'I' for Inactive)
REMARK    1  A    between atoms: C_2  and  C_19
REMARK    2  A    between atoms: N_3  and  C_4
REMARK    3  A    between atoms: C_4  and  C_5
REMARK    4  A    between atoms: C_8  and  C_9
REMARK    5  A    between atoms: C_9  and  C_10
REMARK    6  A    between atoms: C_10  and  N_11
REMARK                            x       y       z     vdW  Elec       q    Type
REMARK                         _______ _______ _______ _____ _____    ______ ____
ROOT
ATOM      1  O   UNL     1      47.219   2.964  14.210  0.00  0.00    +0.000 OA
ATOM      2  C   UNL     1      46.938   4.091  14.606  0.00  0.00    +0.000 C 
ATOM      3  N   UNL     1      46.873   4.399  15.936  0.00  0.00    +0.000 N 
ATOM      4  H   UNL     1      46.635   5.338  16.236  0.00  0.00    +0.000 HD
ENDROOT
BRANCH   2   5
ATOM      5  C   UNL     1      46.598   5.179  13.685  0.00  0.00    +0.000 A 
ATOM      6  C   UNL     1      47.507   6.199  13.446  0.00  0.00    +0.000 A 
ATOM      7  S   UNL     1      46.942   7.359  12.327  0.00  0.00    +0.000 S 
ATOM      8  C   UNL     1      45.451   6.555  12.159  0.00  0.00    +0.000 A 
ATOM      9  N   UNL     1      44.482   7.040  11.337  0.00  0.00    +0.000 NA
ATOM     10  C   UNL     1      43.393   6.349  11.328  0.00  0.00    +0.000 A 
ATOM     11  N   UNL     1      43.183   5.212  12.067  0.00  0.00    +0.000 N 
ATOM     12  C   UNL     1      44.145   4.661  12.879  0.00  0.00    +0.000 A 
ATOM     13  O   UNL     1      43.947   3.602  13.464  0.00  0.00    +0.000 OA
ATOM     14  C   UNL     1      45.386   5.412  12.935  0.00  0.00    +0.000 A 
ATOM     15  H   UNL     1      42.313   4.705  12.005  0.00  0.00    +0.000 HD
ENDBRANCH   2   5
BRANCH   3  16
ATOM     16  C   UNL     1      47.185   3.454  16.978  0.00  0.00    +0.000 C 
BRANCH  16  17
ATOM     17  C   UNL     1      48.662   3.378  17.244  0.00  0.00    +0.000 A 
ATOM     18  C   UNL     1      49.334   4.439  17.840  0.00  0.00    +0.000 A 
ATOM     19  N   UNL     1      50.666   4.416  18.102  0.00  0.00    +0.000 NA
ATOM     20  C   UNL     1      51.321   3.291  17.726  0.00  0.00    +0.000 A 
ATOM     21  C   UNL     1      50.651   2.249  17.091  0.00  0.00    +0.000 A 
ATOM     22  N   UNL     1      49.322   2.259  16.846  0.00  0.00    +0.000 NA
BRANCH  20  23
ATOM     23  C   UNL     1      52.812   3.198  17.928  0.00  0.00    +0.000 C 
BRANCH  23  24
ATOM     24  C   UNL     1      53.297   1.844  18.468  0.00  0.00    +0.000 C 
BRANCH  24  25
ATOM     25  N   UNL     1      54.729   1.598  18.193  0.00  0.00    +0.000 NA
ATOM     26  C   UNL     1      55.019   1.132  16.819  0.00  0.00    +0.000 C 
ATOM     27  C   UNL     1      54.638  -0.332  16.544  0.00  0.00    +0.000 C 
ATOM     28  O   UNL     1      55.236  -1.221  17.494  0.00  0.00    +0.000 OA
ATOM     29  C   UNL     1      54.879  -0.848  18.831  0.00  0.00    +0.000 C 
ATOM     30  C   UNL     1      55.295   0.602  19.135  0.00  0.00    +0.000 C 
ENDBRANCH  24  25
ENDBRANCH  23  24
ENDBRANCH  20  23
ENDBRANCH  16  17
ENDBRANCH   3  16
TORSDOF 6
ENDMDL
MODEL 3
REMARK VINA RESULT:    -6.593      4.238      6.103
REMARK INTER + INTRA:          -9.900
REMARK INTER:                  -9.042
REMARK INTRA:                  -0.859
REMARK UNBOUND:                -0.995
REMARK  Name = 
REMARK  6 active torsions:
REMARK  status: ('A' for Active; 'I' for Inactive)
REMARK    1  A    between atoms: C_2  and  C_19
REMARK    2  A    between atoms: N_3  and  C_4
REMARK    3  A    between atoms: C_4  and  C_5
REMARK    4  A    between atoms: C_8  and  C_9
REMARK    5  A    between atoms: C_9  and  C_10
REMARK    6  A    between atoms: C_10  and  N_11
REMARK                            x       y       z     vdW  Elec       q    Type
REMARK                         _______ _______ _______ _____ _____    ______ ____
ROOT
ATOM      1  O   UNL     1      51.366   5.660  17.919  0.00  0.00    +0.000 OA
ATOM      2  C   UNL     1      51.303   4.570  18.479  0.00  0.00    +0.000 C 
ATOM      3  N   UNL     1      50.136   4.087  19.002  0.00  0.00    +0.000 N 
ATOM      4  H   UNL     1      50.113   3.184  19.462  0.00  0.00    +0.000 HD
ENDROOT
BRANCH   2   5
ATOM      5  C   UNL     1      52.484   3.726  18.677  0.00  0.00    +0.000 A 
ATOM      6  C   UNL     1      53.586   4.219  19.362  0.00  0.00    +0.000 A 
ATOM      7  S   UNL     1      54.852   3.082  19.512  0.00  0.00    +0.000 S 
ATOM      8  C   UNL     1      53.983   1.912  18.633  0.00  0.00    +0.000 A 
ATOM      9  N   UNL     1      54.514   0.684  18.386  0.00  0.00    +0.000 NA
ATOM     10  C   UNL     1      53.760  -0.093  17.684  0.00  0.00    +0.000 A 
ATOM     11  N   UNL     1      52.519   0.246  17.206  0.00  0.00    +0.000 N 
ATOM     12  C   UNL     1      51.924   1.457  17.464  0.00  0.00    +0.000 A 
ATOM     13  O   UNL     1      50.782   1.694  17.085  0.00  0.00    +0.000 OA
ATOM     14  C   UNL     1      52.740   2.374  18.239  0.00  0.00    +0.000 A 
ATOM     15  H   UNL     1      51.970  -0.413  16.675  0.00  0.00    +0.000 HD
ENDBRANCH   2   5
BRANCH   3  16
ATOM     16  C   UNL     1      48.878   4.781  18.889  0.00  0.00    +0.000 C 
BRANCH  16  17
ATOM     17  C   UNL     1      48.285   4.650  17.515  0.00  0.00    +0.000 A 
ATOM     18  C   UNL     1      47.694   3.460  17.104  0.00  0.00    +0.000 A 
ATOM     19  N   UNL     1      47.144   3.295  15.874  0.00  0.00    +0.000 NA
ATOM     20  C   UNL     1      47.221   4.364  15.046  0.00  0.00    +0.000 A 
ATOM     21  C   UNL     1      47.852   5.539  15.447  0.00  0.00    +0.000 A 
ATOM     22  N   UNL     1      48.383   5.714  16.677  0.00  0.00    +0.000 NA
BRANCH  20  23
ATOM     23  C   UNL     1      46.685   4.255  13.641  0.00  0.00    +0.000 C 
BRANCH  23  24
ATOM     24  C   UNL     1      45.426   5.095  13.374  0.00  0.00    +0.000 C 
BRANCH  24  25
ATOM     25  N   UNL     1      44.217   4.266  13.175  0.00  0.00    +0.000 NA
ATOM     26  C   UNL     1      44.320   3.283  12.075  0.00  0.00    +0.000 C 
ATOM     27  C   UNL     1      44.230   3.886  10.663  0.00  0.00    +0.000 C 
ATOM     28  O   UNL     1      43.044   4.673  10.501  0.00  0.00    +0.000 OA
ATOM     29  C   UNL     1      42.979   5.702  11.497  0.00  0.00    +0.000 C 
ATOM     30  C   UNL     1      43.025   5.108  12.915  0.00  0.00    +0.000 C 
ENDBRANCH  24  25
ENDBRANCH  23  24
ENDBRANCH  20  23
ENDBRANCH  16  17
ENDBRANCH   3  16
TORSDOF 6
ENDMDL
MODEL 4
REMARK VINA RESULT:    -6.547      3.005      4.485
REMARK INTER + INTRA:          -9.838
REMARK INTER:                  -9.143
REMARK INTRA:                  -0.695
REMARK UNBOUND:                -0.995
REMARK  Name = 
REMARK  6 active torsions:
REMARK  status: ('A' for Active; 'I' for Inactive)
REMARK    1  A    between atoms: C_2  and  C_19
REMARK    2  A    between atoms: N_3  and  C_4
REMARK    3  A    between atoms: C_4  and  C_5
REMARK    4  A    between atoms: C_8  and  C_9
REMARK    5  A    between atoms: C_9  and  C_10
REMARK    6  A    between atoms: C_10  and  N_11
REMARK                            x       y       z     vdW  Elec       q    Type
REMARK                         _______ _______ _______ _____ _____    ______ ____
ROOT
ATOM      1  O   UNL     1      49.232   6.103  17.941  0.00  0.00    +0.000 OA
ATOM      2  C   UNL     1      50.118   5.817  17.140  0.00  0.00    +0.000 C 
ATOM      3  N   UNL     1      50.084   6.234  15.839  0.00  0.00    +0.000 N 
ATOM      4  H   UNL     1      50.828   5.982  15.199  0.00  0.00    +0.000 HD
ENDROOT
BRANCH   2   5
ATOM      5  C   UNL     1      51.251   4.964  17.505  0.00  0.00    +0.000 A 
ATOM      6  C   UNL     1      52.466   5.532  17.862  0.00  0.00    +0.000 A 
ATOM      7  S   UNL     1      53.655   4.379  18.276  0.00  0.00    +0.000 S 
ATOM      8  C   UNL     1      52.597   3.085  17.953  0.00  0.00    +0.000 A 
ATOM      9  N   UNL     1      53.002   1.795  18.100  0.00  0.00    +0.000 NA
ATOM     10  C   UNL     1      52.109   0.916  17.793  0.00  0.00    +0.000 A 
ATOM     11  N   UNL     1      50.844   1.210  17.350  0.00  0.00    +0.000 N 
ATOM     12  C   UNL     1      50.376   2.496  17.224  0.00  0.00    +0.000 A 
ATOM     13  O   UNL     1      49.214   2.717  16.900  0.00  0.00    +0.000 OA
ATOM     14  C   UNL     1      51.350   3.524  17.545  0.00  0.00    +0.000 A 
ATOM     15  H   UNL     1      50.184   0.476  17.140  0.00  0.00    +0.000 HD
ENDBRANCH   2   5
BRANCH   3  16
ATOM     16  C   UNL     1      49.048   7.087  15.314  0.00  0.00    +0.000 C 
BRANCH  16  17
ATOM     17  C   UNL     1      47.956   6.300  14.646  0.00  0.00    +0.000 A 
ATOM     18  C   UNL     1      47.206   6.855  13.615  0.00  0.00    +0.000 A 
ATOM     19  N   UNL     1      46.212   6.183  12.981  0.00  0.00    +0.000 NA
ATOM     20  C   UNL     1      45.971   4.927  13.429  0.00  0.00    +0.000 A 
ATOM     21  C   UNL     1      46.697   4.392  14.490  0.00  0.00    +0.000 A 
ATOM     22  N   UNL     1      47.700   5.050  15.111  0.00  0.00    +0.000 NA
BRANCH  20  23
ATOM     23  C   UNL     1      44.850   4.124  12.820  0.00  0.00    +0.000 C 
BRANCH  23  24
ATOM     24  C   UNL     1      45.275   3.220  11.652  0.00  0.00    +0.000 C 
BRANCH  24  25
ATOM     25  N   UNL     1      44.295   3.218  10.544  0.00  0.00    +0.000 NA
ATOM     26  C   UNL     1      44.503   2.150   9.542  0.00  0.00    +0.000 C 
ATOM     27  C   UNL     1      45.690   2.383   8.592  0.00  0.00    +0.000 C 
ATOM     28  O   UNL     1      45.598   3.653   7.936  0.00  0.00    +0.000 OA
ATOM     29  C   UNL     1      45.502   4.713   8.896  0.00  0.00    +0.000 C 
ATOM     30  C   UNL     1      44.293   4.515   9.826  0.00  0.00    +0.000 C 
ENDBRANCH  24  25
ENDBRANCH  23  24
ENDBRANCH  20  23
ENDBRANCH  16  17
ENDBRANCH   3  16
TORSDOF 6
ENDMDL
MODEL 5
REMARK VINA RESULT:    -6.535      1.881      3.288
REMARK INTER + INTRA:          -9.823
REMARK INTER:                  -9.102
REMARK INTRA:                  -0.721
REMARK UNBOUND:                -0.995
REMARK  Name = 
REMARK  6 active torsions:
REMARK  status: ('A' for Active; 'I' for Inactive)
REMARK    1  A    between atoms: C_2  and  C_19
REMARK    2  A    between atoms: N_3  and  C_4
REMARK    3  A    between atoms: C_4  and  C_5
REMARK    4  A    between atoms: C_8  and  C_9
REMARK    5  A    between atoms: C_9  and  C_10
REMARK    6  A    between atoms: C_10  and  N_11
REMARK                            x       y       z     vdW  Elec       q    Type
REMARK                         _______ _______ _______ _____ _____    ______ ____
ROOT
ATOM      1  O   UNL     1      49.962   6.650  15.166  0.00  0.00    +0.000 OA
ATOM      2  C   UNL     1      48.939   7.051  15.713  0.00  0.00    +0.000 C 
ATOM      3  N   UNL     1      47.922   7.637  15.014  0.00  0.00    +0.000 N 
ATOM      4  H   UNL     1      47.089   7.962  15.492  0.00  0.00    +0.000 HD
ENDROOT
BRANCH   2   5
ATOM      5  C   UNL     1      48.754   6.979  17.165  0.00  0.00    +0.000 A 
ATOM      6  C   UNL     1      48.566   8.139  17.903  0.00  0.00    +0.000 A 
ATOM      7  S   UNL     1      48.344   7.851  19.570  0.00  0.00    +0.000 S 
ATOM      8  C   UNL     1      48.531   6.172  19.365  0.00  0.00    +0.000 A 
ATOM      9  N   UNL     1      48.461   5.323  20.425  0.00  0.00    +0.000 NA
ATOM     10  C   UNL     1      48.650   4.082  20.131  0.00  0.00    +0.000 A 
ATOM     11  N   UNL     1      48.903   3.608  18.868  0.00  0.00    +0.000 N 
ATOM     12  C   UNL     1      48.941   4.420  17.760  0.00  0.00    +0.000 A 
ATOM     13  O   UNL     1      49.092   3.951  16.637  0.00  0.00    +0.000 OA
ATOM     14  C   UNL     1      48.749   5.831  18.042  0.00  0.00    +0.000 A 
ATOM     15  H   UNL     1      49.026   2.621  18.698  0.00  0.00    +0.000 HD
ENDBRANCH   2   5
BRANCH   3  16
ATOM     16  C   UNL     1      47.934   7.780  13.581  0.00  0.00    +0.000 C 
BRANCH  16  17
ATOM     17  C   UNL     1      46.985   6.826  12.912  0.00  0.00    +0.000 A 
ATOM     18  C   UNL     1      46.274   7.204  11.778  0.00  0.00    +0.000 A 
ATOM     19  N   UNL     1      45.408   6.377  11.140  0.00  0.00    +0.000 NA
ATOM     20  C   UNL     1      45.254   5.148  11.688  0.00  0.00    +0.000 A 
ATOM     21  C   UNL     1      45.935   4.790  12.849  0.00  0.00    +0.000 A 
ATOM     22  N   UNL     1      46.813   5.602  13.476  0.00  0.00    +0.000 NA
BRANCH  20  23
ATOM     23  C   UNL     1      44.272   4.181  11.078  0.00  0.00    +0.000 C 
BRANCH  23  24
ATOM     24  C   UNL     1      44.910   2.913  10.490  0.00  0.00    +0.000 C 
BRANCH  24  25
ATOM     25  N   UNL     1      44.425   2.608   9.126  0.00  0.00    +0.000 NA
ATOM     26  C   UNL     1      45.010   1.391   8.523  0.00  0.00    +0.000 C 
ATOM     27  C   UNL     1      46.466   1.544   8.052  0.00  0.00    +0.000 C 
ATOM     28  O   UNL     1      46.616   2.650   7.155  0.00  0.00    +0.000 OA
ATOM     29  C   UNL     1      46.151   3.862   7.762  0.00  0.00    +0.000 C 
ATOM     30  C   UNL     1      44.681   3.737   8.200  0.00  0.00    +0.000 C 
ENDBRANCH  24  25
ENDBRANCH  23  24
ENDBRANCH  20  23
ENDBRANCH  16  17
ENDBRANCH   3  16
TORSDOF 6
ENDMDL
MODEL 6
REMARK VINA RESULT:    -6.455      3.143      8.885
REMARK INTER + INTRA:          -9.714
REMARK INTER:                  -8.697
REMARK INTRA:                  -1.017
REMARK UNBOUND:                -0.995
REMARK  Name = 
REMARK  6 active torsions:
REMARK  status: ('A' for Active; 'I' for Inactive)
REMARK    1  A    between atoms: C_2  and  C_19
REMARK    2  A    between atoms: N_3  and  C_4
REMARK    3  A    between atoms: C_4  and  C_5
REMARK    4  A    between atoms: C_8  and  C_9
REMARK    5  A    between atoms: C_9  and  C_10
REMARK    6  A    between atoms: C_10  and  N_11
REMARK                            x       y       z     vdW  Elec       q    Type
REMARK                         _______ _______ _______ _____ _____    ______ ____
ROOT
ATOM      1  O   UNL     1      44.427   7.405  11.721  0.00  0.00    +0.000 OA
ATOM      2  C   UNL     1      45.175   6.439  11.609  0.00  0.00    +0.000 C 
ATOM      3  N   UNL     1      46.535   6.561  11.679  0.00  0.00    +0.000 N 
ATOM      4  H   UNL     1      47.130   5.746  11.581  0.00  0.00    +0.000 HD
ENDROOT
BRANCH   2   5
ATOM      5  C   UNL     1      44.671   5.090  11.339  0.00  0.00    +0.000 A 
ATOM      6  C   UNL     1      43.911   4.426  12.290  0.00  0.00    +0.000 A 
ATOM      7  S   UNL     1      43.395   2.879  11.784  0.00  0.00    +0.000 S 
ATOM      8  C   UNL     1      44.205   3.032  10.295  0.00  0.00    +0.000 A 
ATOM      9  N   UNL     1      44.176   2.031   9.375  0.00  0.00    +0.000 NA
ATOM     10  C   UNL     1      44.857   2.268   8.305  0.00  0.00    +0.000 A 
ATOM     11  N   UNL     1      45.566   3.419   8.069  0.00  0.00    +0.000 N 
ATOM     12  C   UNL     1      45.592   4.474   8.950  0.00  0.00    +0.000 A 
ATOM     13  O   UNL     1      46.173   5.517   8.669  0.00  0.00    +0.000 OA
ATOM     14  C   UNL     1      44.852   4.250  10.178  0.00  0.00    +0.000 A 
ATOM     15  H   UNL     1      46.066   3.553   7.203  0.00  0.00    +0.000 HD
ENDBRANCH   2   5
BRANCH   3  16
ATOM     16  C   UNL     1      47.199   7.811  11.948  0.00  0.00    +0.000 C 
BRANCH  16  17
ATOM     17  C   UNL     1      47.870   7.813  13.293  0.00  0.00    +0.000 A 
ATOM     18  C   UNL     1      48.594   6.709  13.730  0.00  0.00    +0.000 A 
ATOM     19  N   UNL     1      49.219   6.665  14.934  0.00  0.00    +0.000 NA
ATOM     20  C   UNL     1      49.079   7.767  15.711  0.00  0.00    +0.000 A 
ATOM     21  C   UNL     1      48.317   8.852  15.286  0.00  0.00    +0.000 A 
ATOM     22  N   UNL     1      47.710   8.908  14.080  0.00  0.00    +0.000 NA
BRANCH  20  23
ATOM     23  C   UNL     1      49.692   7.786  17.087  0.00  0.00    +0.000 C 
BRANCH  23  24
ATOM     24  C   UNL     1      50.222   6.426  17.567  0.00  0.00    +0.000 C 
BRANCH  24  25
ATOM     25  N   UNL     1      49.494   5.912  18.747  0.00  0.00    +0.000 NA
ATOM     26  C   UNL     1      49.844   4.527  19.130  0.00  0.00    +0.000 C 
ATOM     27  C   UNL     1      49.266   3.441  18.208  0.00  0.00    +0.000 C 
ATOM     28  O   UNL     1      47.846   3.563  18.074  0.00  0.00    +0.000 OA
ATOM     29  C   UNL     1      47.492   4.869  17.601  0.00  0.00    +0.000 C 
ATOM     30  C   UNL     1      48.027   5.965  18.539  0.00  0.00    +0.000 C 
ENDBRANCH  24  25
ENDBRANCH  23  24
ENDBRANCH  20  23
ENDBRANCH  16  17
ENDBRANCH   3  16
TORSDOF 6
ENDMDL
MODEL 7
REMARK VINA RESULT:    -6.406      3.438      8.655
REMARK INTER + INTRA:          -9.648
REMARK INTER:                  -8.908
REMARK INTRA:                  -0.739
REMARK UNBOUND:                -0.995
REMARK  Name = 
REMARK  6 active torsions:
REMARK  status: ('A' for Active; 'I' for Inactive)
REMARK    1  A    between atoms: C_2  and  C_19
REMARK    2  A    between atoms: N_3  and  C_4
REMARK    3  A    between atoms: C_4  and  C_5
REMARK    4  A    between atoms: C_8  and  C_9
REMARK    5  A    between atoms: C_9  and  C_10
REMARK    6  A    between atoms: C_10  and  N_11
REMARK                            x       y       z     vdW  Elec       q    Type
REMARK                         _______ _______ _______ _____ _____    ______ ____
ROOT
ATOM      1  O   UNL     1      45.675   7.858  11.720  0.00  0.00    +0.000 OA
ATOM      2  C   UNL     1      46.311   6.843  11.454  0.00  0.00    +0.000 C 
ATOM      3  N   UNL     1      47.651   6.739  11.702  0.00  0.00    +0.000 N 
ATOM      4  H   UNL     1      48.153   5.890  11.470  0.00  0.00    +0.000 HD
ENDROOT
BRANCH   2   5
ATOM      5  C   UNL     1      45.694   5.686  10.801  0.00  0.00    +0.000 A 
ATOM      6  C   UNL     1      45.857   5.485   9.438  0.00  0.00    +0.000 A 
ATOM      7  S   UNL     1      45.087   4.072   8.867  0.00  0.00    +0.000 S 
ATOM      8  C   UNL     1      44.478   3.708  10.414  0.00  0.00    +0.000 A 
ATOM      9  N   UNL     1      43.708   2.607  10.623  0.00  0.00    +0.000 NA
ATOM     10  C   UNL     1      43.290   2.468  11.836  0.00  0.00    +0.000 A 
ATOM     11  N   UNL     1      43.575   3.333  12.863  0.00  0.00    +0.000 N 
ATOM     12  C   UNL     1      44.382   4.434  12.711  0.00  0.00    +0.000 A 
ATOM     13  O   UNL     1      44.677   5.139  13.670  0.00  0.00    +0.000 OA
ATOM     14  C   UNL     1      44.866   4.642  11.358  0.00  0.00    +0.000 A 
ATOM     15  H   UNL     1      43.232   3.160  13.796  0.00  0.00    +0.000 HD
ENDBRANCH   2   5
BRANCH   3  16
ATOM     16  C   UNL     1      48.414   7.778  12.347  0.00  0.00    +0.000 C 
BRANCH  16  17
ATOM     17  C   UNL     1      48.551   7.540  13.824  0.00  0.00    +0.000 A 
ATOM     18  C   UNL     1      48.905   8.575  14.683  0.00  0.00    +0.000 A 
ATOM     19  N   UNL     1      49.039   8.409  16.024  0.00  0.00    +0.000 NA
ATOM     20  C   UNL     1      48.826   7.153  16.486  0.00  0.00    +0.000 A 
ATOM     21  C   UNL     1      48.514   6.112  15.617  0.00  0.00    +0.000 A 
ATOM     22  N   UNL     1      48.360   6.276  14.284  0.00  0.00    +0.000 NA
BRANCH  20  23
ATOM     23  C   UNL     1      49.005   6.863  17.954  0.00  0.00    +0.000 C 
BRANCH  23  24
ATOM     24  C   UNL     1      48.199   5.659  18.468  0.00  0.00    +0.000 C 
BRANCH  24  25
ATOM     25  N   UNL     1      49.045   4.650  19.141  0.00  0.00    +0.000 NA
ATOM     26  C   UNL     1      50.494   4.790  18.882  0.00  0.00    +0.000 C 
ATOM     27  C   UNL     1      50.942   4.340  17.482  0.00  0.00    +0.000 C 
ATOM     28  O   UNL     1      50.527   2.999  17.201  0.00  0.00    +0.000 OA
ATOM     29  C   UNL     1      49.107   2.867  17.344  0.00  0.00    +0.000 C 
ATOM     30  C   UNL     1      48.649   3.274  18.756  0.00  0.00    +0.000 C 
ENDBRANCH  24  25
ENDBRANCH  23  24
ENDBRANCH  20  23
ENDBRANCH  16  17
ENDBRANCH   3  16
TORSDOF 6
ENDMDL
MODEL 8
REMARK VINA RESULT:    -6.035      3.668      9.131
REMARK INTER + INTRA:          -9.147
REMARK INTER:                  -8.297
REMARK INTRA:                  -0.851
REMARK UNBOUND:                -0.995
REMARK  Name = 
REMARK  6 active torsions:
REMARK  status: ('A' for Active; 'I' for Inactive)
REMARK    1  A    between atoms: C_2  and  C_19
REMARK    2  A    between atoms: N_3  and  C_4
REMARK    3  A    between atoms: C_4  and  C_5
REMARK    4  A    between atoms: C_8  and  C_9
REMARK    5  A    between atoms: C_9  and  C_10
REMARK    6  A    between atoms: C_10  and  N_11
REMARK                            x       y       z     vdW  Elec       q    Type
REMARK                         _______ _______ _______ _____ _____    ______ ____
ROOT
ATOM      1  O   UNL     1      47.399   3.356  13.688  0.00  0.00    +0.000 OA
ATOM      2  C   UNL     1      46.847   4.329  14.192  0.00  0.00    +0.000 C 
ATOM      3  N   UNL     1      46.777   4.505  15.546  0.00  0.00    +0.000 N 
ATOM      4  H   UNL     1      46.312   5.316  15.936  0.00  0.00    +0.000 HD
ENDROOT
BRANCH   2   5
ATOM      5  C   UNL     1      46.174   5.349  13.384  0.00  0.00    +0.000 A 
ATOM      6  C   UNL     1      46.788   6.571  13.149  0.00  0.00    +0.000 A 
ATOM      7  S   UNL     1      45.861   7.615  12.168  0.00  0.00    +0.000 S 
ATOM      8  C   UNL     1      44.593   6.484  12.059  0.00  0.00    +0.000 A 
ATOM      9  N   UNL     1      43.464   6.762  11.355  0.00  0.00    +0.000 NA
ATOM     10  C   UNL     1      42.574   5.829  11.380  0.00  0.00    +0.000 A 
ATOM     11  N   UNL     1      42.711   4.638  12.048  0.00  0.00    +0.000 N 
ATOM     12  C   UNL     1      43.848   4.295  12.738  0.00  0.00    +0.000 A 
ATOM     13  O   UNL     1      43.963   3.189  13.257  0.00  0.00    +0.000 OA
ATOM     14  C   UNL     1      44.876   5.320  12.751  0.00  0.00    +0.000 A 
ATOM     15  H   UNL     1      41.983   3.939  12.017  0.00  0.00    +0.000 HD
ENDBRANCH   2   5
BRANCH   3  16
ATOM     16  C   UNL     1      47.393   3.604  16.487  0.00  0.00    +0.000 C 
BRANCH  16  17
ATOM     17  C   UNL     1      48.437   4.291  17.322  0.00  0.00    +0.000 A 
ATOM     18  C   UNL     1      48.106   4.876  18.539  0.00  0.00    +0.000 A 
ATOM     19  N   UNL     1      49.015   5.504  19.328  0.00  0.00    +0.000 NA
ATOM     20  C   UNL     1      50.280   5.551  18.846  0.00  0.00    +0.000 A 
ATOM     21  C   UNL     1      50.597   5.003  17.606  0.00  0.00    +0.000 A 
ATOM     22  N   UNL     1      49.700   4.358  16.827  0.00  0.00    +0.000 NA
BRANCH  20  23
ATOM     23  C   UNL     1      51.345   6.277  19.628  0.00  0.00    +0.000 C 
BRANCH  23  24
ATOM     24  C   UNL     1      51.760   7.632  19.032  0.00  0.00    +0.000 C 
BRANCH  24  25
ATOM     25  N   UNL     1      50.602   8.489  18.698  0.00  0.00    +0.000 NA
ATOM     26  C   UNL     1      50.564   8.952  17.294  0.00  0.00    +0.000 C 
ATOM     27  C   UNL     1      51.576  10.060  16.956  0.00  0.00    +0.000 C 
ATOM     28  O   UNL     1      51.448  11.179  17.840  0.00  0.00    +0.000 OA
ATOM     29  C   UNL     1      51.588  10.765  19.205  0.00  0.00    +0.000 C 
ATOM     30  C   UNL     1      50.552   9.688  19.569  0.00  0.00    +0.000 C 
ENDBRANCH  24  25
ENDBRANCH  23  24
ENDBRANCH  20  23
ENDBRANCH  16  17
ENDBRANCH   3  16
TORSDOF 6
ENDMDL
MODEL 9
REMARK VINA RESULT:    -5.752      3.937      5.110
REMARK INTER + INTRA:          -8.764
REMARK INTER:                  -7.916
REMARK INTRA:                  -0.849
REMARK UNBOUND:                -0.995
REMARK  Name = 
REMARK  6 active torsions:
REMARK  status: ('A' for Active; 'I' for Inactive)
REMARK    1  A    between atoms: C_2  and  C_19
REMARK    2  A    between atoms: N_3  and  C_4
REMARK    3  A    between atoms: C_4  and  C_5
REMARK    4  A    between atoms: C_8  and  C_9
REMARK    5  A    between atoms: C_9  and  C_10
REMARK    6  A    between atoms: C_10  and  N_11
REMARK                            x       y       z     vdW  Elec       q    Type
REMARK                         _______ _______ _______ _____ _____    ______ ____
ROOT
ATOM      1  O   UNL     1      49.066   4.496  18.540  0.00  0.00    +0.000 OA
ATOM      2  C   UNL     1      50.070   4.569  17.839  0.00  0.00    +0.000 C 
ATOM      3  N   UNL     1      50.283   5.610  16.979  0.00  0.00    +0.000 N 
ATOM      4  H   UNL     1      51.121   5.644  16.409  0.00  0.00    +0.000 HD
ENDROOT
BRANCH   2   5
ATOM      5  C   UNL     1      51.091   3.519  17.830  0.00  0.00    +0.000 A 
ATOM      6  C   UNL     1      50.754   2.220  17.476  0.00  0.00    +0.000 A 
ATOM      7  S   UNL     1      52.081   1.147  17.501  0.00  0.00    +0.000 S 
ATOM      8  C   UNL     1      53.139   2.374  18.024  0.00  0.00    +0.000 A 
ATOM      9  N   UNL     1      54.454   2.115  18.254  0.00  0.00    +0.000 NA
ATOM     10  C   UNL     1      55.133   3.128  18.674  0.00  0.00    +0.000 A 
ATOM     11  N   UNL     1      54.616   4.381  18.886  0.00  0.00    +0.000 N 
ATOM     12  C   UNL     1      53.305   4.701  18.629  0.00  0.00    +0.000 A 
ATOM     13  O   UNL     1      52.898   5.851  18.757  0.00  0.00    +0.000 OA
ATOM     14  C   UNL     1      52.494   3.589  18.167  0.00  0.00    +0.000 A 
ATOM     15  H   UNL     1      55.204   5.139  19.201  0.00  0.00    +0.000 HD
ENDBRANCH   2   5
BRANCH   3  16
ATOM     16  C   UNL     1      49.386   6.733  16.867  0.00  0.00    +0.000 C 
BRANCH  16  17
ATOM     17  C   UNL     1      48.668   6.749  15.548  0.00  0.00    +0.000 A 
ATOM     18  C   UNL     1      48.501   7.934  14.841  0.00  0.00    +0.000 A 
ATOM     19  N   UNL     1      47.862   7.998  13.645  0.00  0.00    +0.000 NA
ATOM     20  C   UNL     1      47.366   6.826  13.179  0.00  0.00    +0.000 A 
ATOM     21  C   UNL     1      47.498   5.650  13.912  0.00  0.00    +0.000 A 
ATOM     22  N   UNL     1      48.151   5.578  15.093  0.00  0.00    +0.000 NA
BRANCH  20  23
ATOM     23  C   UNL     1      46.593   6.810  11.885  0.00  0.00    +0.000 C 
BRANCH  23  24
ATOM     24  C   UNL     1      46.061   5.426  11.480  0.00  0.00    +0.000 C 
BRANCH  24  25
ATOM     25  N   UNL     1      44.864   5.505  10.614  0.00  0.00    +0.000 NA
ATOM     26  C   UNL     1      43.602   5.783  11.334  0.00  0.00    +0.000 C 
ATOM     27  C   UNL     1      43.041   4.593  12.129  0.00  0.00    +0.000 C 
ATOM     28  O   UNL     1      42.883   3.435  11.303  0.00  0.00    +0.000 OA
ATOM     29  C   UNL     1      44.124   3.084  10.678  0.00  0.00    +0.000 C 
ATOM     30  C   UNL     1      44.676   4.253   9.842  0.00  0.00    +0.000 C 
ENDBRANCH  24  25
ENDBRANCH  23  24
ENDBRANCH  20  23
ENDBRANCH  16  17
ENDBRANCH   3  16
TORSDOF 6
ENDMDL
