MODEL 1
REMARK VINA RESULT:    -8.744      0.000      0.000
REMARK INTER + INTRA:         -13.653
REMARK INTER:                 -12.577
REMARK INTRA:                  -1.076
REMARK UNBOUND:                -1.076
REMARK  Name = 
REMARK  8 active torsions:
REMARK  status: ('A' for Active; 'I' for Inactive)
REMARK    1  A    between atoms: C_2  and  C_21
REMARK    2  A    between atoms: N_3  and  C_4
REMARK    3  A    between atoms: C_4  and  C_5
REMARK    4  A    between atoms: C_8  and  C_9
REMARK    5  A    between atoms: C_9  and  C_10
REMARK    6  A    between atoms: C_9  and  C_12
REMARK    7  A    between atoms: C_10  and  O_11
REMARK    8  A    between atoms: C_12  and  C_13
REMARK                            x       y       z     vdW  Elec       q    Type
REMARK                         _______ _______ _______ _____ _____    ______ ____
ROOT
ATOM      1  C   UNL     1      46.263   6.753  12.522  0.00  0.00    +0.000 A 
ATOM      2  C   UNL     1      46.346   6.620  11.142  0.00  0.00    +0.000 A 
ATOM      3  C   UNL     1      45.811   5.489  10.543  0.00  0.00    +0.000 A 
ATOM      4  C   UNL     1      45.201   4.501  11.323  0.00  0.00    +0.000 A 
ATOM      5  C   UNL     1      45.163   4.725  12.697  0.00  0.00    +0.000 A 
ATOM      6  N   UNL     1      45.658   5.827  13.308  0.00  0.00    +0.000 NA
ENDROOT
BRANCH   1   7
ATOM      7  C   UNL     1      46.845   7.973  13.189  0.00  0.00    +0.000 C 
BRANCH   7  10
ATOM      8  O   UNL     1      49.303   6.693  13.645  0.00  0.00    +0.000 OA
ATOM      9  C   UNL     1      48.601   6.987  14.605  0.00  0.00    +0.000 C 
ATOM     10  N   UNL     1      47.410   7.661  14.474  0.00  0.00    +0.000 N 
ATOM     11  H   UNL     1      46.808   7.823  15.270  0.00  0.00    +0.000 HD
BRANCH   9  12
ATOM     12  C   UNL     1      48.994   6.686  15.974  0.00  0.00    +0.000 A 
ATOM     13  C   UNL     1      49.735   7.586  16.727  0.00  0.00    +0.000 A 
ATOM     14  S   UNL     1      50.029   7.039  18.321  0.00  0.00    +0.000 S 
ATOM     15  C   UNL     1      49.206   5.575  18.030  0.00  0.00    +0.000 A 
ATOM     16  N   UNL     1      49.068   4.635  19.005  0.00  0.00    +0.000 NA
ATOM     17  C   UNL     1      48.405   3.586  18.642  0.00  0.00    +0.000 A 
ATOM     18  N   UNL     1      47.881   3.379  17.393  0.00  0.00    +0.000 N 
ATOM     19  C   UNL     1      48.049   4.271  16.365  0.00  0.00    +0.000 A 
ATOM     20  O   UNL     1      47.623   4.022  15.245  0.00  0.00    +0.000 OA
ATOM     21  C   UNL     1      48.726   5.495  16.738  0.00  0.00    +0.000 A 
ATOM     22  H   UNL     1      47.388   2.531  17.166  0.00  0.00    +0.000 HD
ENDBRANCH   9  12
ENDBRANCH   7  10
ENDBRANCH   1   7
BRANCH   4  23
ATOM     23  C   UNL     1      44.575   3.249  10.724  0.00  0.00    +0.000 C 
BRANCH  23  24
ATOM     24  C   UNL     1      43.209   2.965  11.394  0.00  0.00    +0.000 C 
BRANCH  24  25
ATOM     25  O   UNL     1      43.063   1.589  11.740  0.00  0.00    +0.000 OA
ATOM     26  H   UNL     1      43.672   1.090  11.165  0.00  0.00    +0.000 HD
ENDBRANCH  24  25
ENDBRANCH  23  24
BRANCH  23  27
ATOM     27  C   UNL     1      44.403   3.305   9.187  0.00  0.00    +0.000 C 
BRANCH  27  28
ATOM     28  C   UNL     1      45.523   2.692   8.374  0.00  0.00    +0.000 A 
ATOM     29  C   UNL     1      46.185   3.482   7.432  0.00  0.00    +0.000 A 
ATOM     30  C   UNL     1      47.175   2.909   6.640  0.00  0.00    +0.000 A 
ATOM     31  C   UNL     1      47.471   1.562   6.797  0.00  0.00    +0.000 A 
ATOM     32  C   UNL     1      46.765   0.846   7.749  0.00  0.00    +0.000 A 
ATOM     33  N   UNL     1      45.795   1.375   8.531  0.00  0.00    +0.000 NA
ENDBRANCH  27  28
ENDBRANCH  23  27
ENDBRANCH   4  23
TORSDOF 8
ENDMDL
MODEL 2
REMARK VINA RESULT:    -8.319      1.344      1.739
REMARK INTER + INTRA:         -13.043
REMARK INTER:                 -12.050
REMARK INTRA:                  -0.993
REMARK UNBOUND:                -1.076
REMARK  Name = 
REMARK  8 active torsions:
REMARK  status: ('A' for Active; 'I' for Inactive)
REMARK    1  A    between atoms: C_2  and  C_21
REMARK    2  A    between atoms: N_3  and  C_4
REMARK    3  A    between atoms: C_4  and  C_5
REMARK    4  A    between atoms: C_8  and  C_9
REMARK    5  A    between atoms: C_9  and  C_10
REMARK    6  A    between atoms: C_9  and  C_12
REMARK    7  A    between atoms: C_10  and  O_11
REMARK    8  A    between atoms: C_12  and  C_13
REMARK                            x       y       z     vdW  Elec       q    Type
REMARK                         _______ _______ _______ _____ _____    ______ ____
ROOT
ATOM      1  C   UNL     1      47.089   6.431  13.034  0.00  0.00    +0.000 A 
ATOM      2  C   UNL     1      46.908   5.237  13.721  0.00  0.00    +0.000 A 
ATOM      3  C   UNL     1      46.127   4.244  13.147  0.00  0.00    +0.000 A 
ATOM      4  C   UNL     1      45.534   4.449  11.897  0.00  0.00    +0.000 A 
ATOM      5  C   UNL     1      45.777   5.676  11.284  0.00  0.00    +0.000 A 
ATOM      6  N   UNL     1      46.549   6.656  11.809  0.00  0.00    +0.000 NA
ENDROOT
BRANCH   1   7
ATOM      7  C   UNL     1      47.929   7.522  13.647  0.00  0.00    +0.000 C 
BRANCH   7  10
ATOM      8  O   UNL     1      50.110   6.833  15.278  0.00  0.00    +0.000 OA
ATOM      9  C   UNL     1      49.026   7.062  15.802  0.00  0.00    +0.000 C 
ATOM     10  N   UNL     1      47.923   7.456  15.084  0.00  0.00    +0.000 N 
ATOM     11  H   UNL     1      47.020   7.563  15.524  0.00  0.00    +0.000 HD
BRANCH   9  12
ATOM     12  C   UNL     1      48.829   6.981  17.243  0.00  0.00    +0.000 A 
ATOM     13  C   UNL     1      48.611   8.117  18.008  0.00  0.00    +0.000 A 
ATOM     14  S   UNL     1      48.352   7.769  19.662  0.00  0.00    +0.000 S 
ATOM     15  C   UNL     1      48.562   6.097  19.401  0.00  0.00    +0.000 A 
ATOM     16  N   UNL     1      48.451   5.202  20.420  0.00  0.00    +0.000 NA
ATOM     17  C   UNL     1      48.617   3.970  20.066  0.00  0.00    +0.000 A 
ATOM     18  N   UNL     1      48.900   3.548  18.793  0.00  0.00    +0.000 N 
ATOM     19  C   UNL     1      49.081   4.419  17.749  0.00  0.00    +0.000 A 
ATOM     20  O   UNL     1      49.397   4.010  16.640  0.00  0.00    +0.000 OA
ATOM     21  C   UNL     1      48.837   5.807  18.078  0.00  0.00    +0.000 A 
ATOM     22  H   UNL     1      49.036   2.572  18.583  0.00  0.00    +0.000 HD
ENDBRANCH   9  12
ENDBRANCH   7  10
ENDBRANCH   1   7
BRANCH   4  23
ATOM     23  C   UNL     1      44.686   3.391  11.203  0.00  0.00    +0.000 C 
BRANCH  23  24
ATOM     24  C   UNL     1      43.397   3.124  12.017  0.00  0.00    +0.000 C 
BRANCH  24  25
ATOM     25  O   UNL     1      42.837   1.846  11.720  0.00  0.00    +0.000 OA
ATOM     26  H   UNL     1      43.545   1.321  11.302  0.00  0.00    +0.000 HD
ENDBRANCH  24  25
ENDBRANCH  23  24
BRANCH  23  27
ATOM     27  C   UNL     1      44.320   3.739   9.741  0.00  0.00    +0.000 C 
BRANCH  27  28
ATOM     28  C   UNL     1      45.263   3.213   8.680  0.00  0.00    +0.000 A 
ATOM     29  C   UNL     1      45.647   1.871   8.722  0.00  0.00    +0.000 A 
ATOM     30  C   UNL     1      46.560   1.396   7.785  0.00  0.00    +0.000 A 
ATOM     31  C   UNL     1      47.075   2.271   6.840  0.00  0.00    +0.000 A 
ATOM     32  C   UNL     1      46.648   3.588   6.868  0.00  0.00    +0.000 A 
ATOM     33  N   UNL     1      45.765   4.080   7.769  0.00  0.00    +0.000 NA
ENDBRANCH  27  28
ENDBRANCH  23  27
ENDBRANCH   4  23
TORSDOF 8
ENDMDL
MODEL 3
REMARK VINA RESULT:    -8.312      1.957      2.534
REMARK INTER + INTRA:         -13.033
REMARK INTER:                 -11.846
REMARK INTRA:                  -1.186
REMARK UNBOUND:                -1.076
REMARK  Name = 
REMARK  8 active torsions:
REMARK  status: ('A' for Active; 'I' for Inactive)
REMARK    1  A    between atoms: C_2  and  C_21
REMARK    2  A    between atoms: N_3  and  C_4
REMARK    3  A    between atoms: C_4  and  C_5
REMARK    4  A    between atoms: C_8  and  C_9
REMARK    5  A    between atoms: C_9  and  C_10
REMARK    6  A    between atoms: C_9  and  C_12
REMARK    7  A    between atoms: C_10  and  O_11
REMARK    8  A    between atoms: C_12  and  C_13
REMARK                            x       y       z     vdW  Elec       q    Type
REMARK                         _______ _______ _______ _____ _____    ______ ____
ROOT
ATOM      1  C   UNL     1      47.067   6.266  12.997  0.00  0.00    +0.000 A 
ATOM      2  C   UNL     1      46.693   6.584  11.697  0.00  0.00    +0.000 A 
ATOM      3  C   UNL     1      45.907   5.689  10.986  0.00  0.00    +0.000 A 
ATOM      4  C   UNL     1      45.502   4.487  11.575  0.00  0.00    +0.000 A 
ATOM      5  C   UNL     1      45.923   4.258  12.883  0.00  0.00    +0.000 A 
ATOM      6  N   UNL     1      46.673   5.120  13.608  0.00  0.00    +0.000 NA
ENDROOT
BRANCH   1   7
ATOM      7  C   UNL     1      47.926   7.226  13.779  0.00  0.00    +0.000 C 
BRANCH   7  10
ATOM      8  O   UNL     1      50.146   6.602  15.383  0.00  0.00    +0.000 OA
ATOM      9  C   UNL     1      49.030   6.596  15.888  0.00  0.00    +0.000 C 
ATOM     10  N   UNL     1      47.898   6.940  15.189  0.00  0.00    +0.000 N 
ATOM     11  H   UNL     1      46.979   6.852  15.600  0.00  0.00    +0.000 HD
BRANCH   9  12
ATOM     12  C   UNL     1      48.815   6.267  17.289  0.00  0.00    +0.000 A 
ATOM     13  C   UNL     1      49.048   4.988  17.776  0.00  0.00    +0.000 A 
ATOM     14  S   UNL     1      48.780   4.855  19.459  0.00  0.00    +0.000 S 
ATOM     15  C   UNL     1      48.311   6.490  19.571  0.00  0.00    +0.000 A 
ATOM     16  N   UNL     1      47.962   7.047  20.763  0.00  0.00    +0.000 NA
ATOM     17  C   UNL     1      47.648   8.299  20.694  0.00  0.00    +0.000 A 
ATOM     18  N   UNL     1      47.634   9.044  19.544  0.00  0.00    +0.000 N 
ATOM     19  C   UNL     1      47.920   8.510  18.314  0.00  0.00    +0.000 A 
ATOM     20  O   UNL     1      47.834   9.190  17.300  0.00  0.00    +0.000 OA
ATOM     21  C   UNL     1      48.345   7.126  18.345  0.00  0.00    +0.000 A 
ATOM     22  H   UNL     1      47.363  10.014  19.552  0.00  0.00    +0.000 HD
ENDBRANCH   9  12
ENDBRANCH   7  10
ENDBRANCH   1   7
BRANCH   4  23
ATOM     23  C   UNL     1      44.620   3.474  10.857  0.00  0.00    +0.000 C 
BRANCH  23  24
ATOM     24  C   UNL     1      43.264   3.336  11.589  0.00  0.00    +0.000 C 
BRANCH  24  25
ATOM     25  O   UNL     1      42.862   1.972  11.712  0.00  0.00    +0.000 OA
ATOM     26  H   UNL     1      42.369   1.752  10.900  0.00  0.00    +0.000 HD
ENDBRANCH  24  25
ENDBRANCH  23  24
BRANCH  23  27
ATOM     27  C   UNL     1      44.378   3.797   9.364  0.00  0.00    +0.000 C 
BRANCH  27  28
ATOM     28  C   UNL     1      45.364   3.191   8.388  0.00  0.00    +0.000 A 
ATOM     29  C   UNL     1      45.740   1.856   8.548  0.00  0.00    +0.000 A 
ATOM     30  C   UNL     1      46.690   1.310   7.690  0.00  0.00    +0.000 A 
ATOM     31  C   UNL     1      47.250   2.110   6.705  0.00  0.00    +0.000 A 
ATOM     32  C   UNL     1      46.828   3.427   6.615  0.00  0.00    +0.000 A 
ATOM     33  N   UNL     1      45.909   3.986   7.437  0.00  0.00    +0.000 NA
ENDBRANCH  27  28
ENDBRANCH  23  27
ENDBRANCH   4  23
TORSDOF 8
ENDMDL
MODEL 4
REMARK VINA RESULT:    -7.036      2.730      3.499
REMARK INTER + INTRA:         -11.197
REMARK INTER:                 -10.148
REMARK INTRA:                  -1.049
REMARK UNBOUND:                -1.076
REMARK  Name = 
REMARK  8 active torsions:
REMARK  status: ('A' for Active; 'I' for Inactive)
REMARK    1  A    between atoms: C_2  and  C_21
REMARK    2  A    between atoms: N_3  and  C_4
REMARK    3  A    between atoms: C_4  and  C_5
REMARK    4  A    between atoms: C_8  and  C_9
REMARK    5  A    between atoms: C_9  and  C_10
REMARK    6  A    between atoms: C_9  and  C_12
REMARK    7  A    between atoms: C_10  and  O_11
REMARK    8  A    between atoms: C_12  and  C_13
REMARK                            x       y       z     vdW  Elec       q    Type
REMARK                         _______ _______ _______ _____ _____    ______ ____
ROOT
ATOM      1  C   UNL     1      47.044   5.076  13.859  0.00  0.00    +0.000 A 
ATOM      2  C   UNL     1      46.677   3.761  13.604  0.00  0.00    +0.000 A 
ATOM      3  C   UNL     1      45.683   3.511  12.669  0.00  0.00    +0.000 A 
ATOM      4  C   UNL     1      45.064   4.570  11.999  0.00  0.00    +0.000 A 
ATOM      5  C   UNL     1      45.502   5.853  12.319  0.00  0.00    +0.000 A 
ATOM      6  N   UNL     1      46.482   6.128  13.211  0.00  0.00    +0.000 NA
ENDROOT
BRANCH   1   7
ATOM      7  C   UNL     1      48.118   5.365  14.877  0.00  0.00    +0.000 C 
BRANCH   7  10
ATOM      8  O   UNL     1      50.158   6.678  16.292  0.00  0.00    +0.000 OA
ATOM      9  C   UNL     1      49.137   7.296  16.014  0.00  0.00    +0.000 C 
ATOM     10  N   UNL     1      48.114   6.746  15.279  0.00  0.00    +0.000 N 
ATOM     11  H   UNL     1      47.248   7.244  15.129  0.00  0.00    +0.000 HD
BRANCH   9  12
ATOM     12  C   UNL     1      48.942   8.686  16.400  0.00  0.00    +0.000 A 
ATOM     13  C   UNL     1      49.445   9.727  15.634  0.00  0.00    +0.000 A 
ATOM     14  S   UNL     1      49.045  11.269  16.255  0.00  0.00    +0.000 S 
ATOM     15  C   UNL     1      48.222  10.583  17.581  0.00  0.00    +0.000 A 
ATOM     16  N   UNL     1      47.611  11.361  18.516  0.00  0.00    +0.000 NA
ATOM     17  C   UNL     1      47.013  10.699  19.451  0.00  0.00    +0.000 A 
ATOM     18  N   UNL     1      46.981   9.333  19.551  0.00  0.00    +0.000 N 
ATOM     19  C   UNL     1      47.633   8.512  18.667  0.00  0.00    +0.000 A 
ATOM     20  O   UNL     1      47.637   7.298  18.826  0.00  0.00    +0.000 OA
ATOM     21  C   UNL     1      48.262   9.202  17.561  0.00  0.00    +0.000 A 
ATOM     22  H   UNL     1      46.511   8.875  20.316  0.00  0.00    +0.000 HD
ENDBRANCH   9  12
ENDBRANCH   7  10
ENDBRANCH   1   7
BRANCH   4  23
ATOM     23  C   UNL     1      43.984   4.361  10.946  0.00  0.00    +0.000 C 
BRANCH  23  24
ATOM     24  C   UNL     1      42.683   5.085  11.365  0.00  0.00    +0.000 C 
BRANCH  24  25
ATOM     25  O   UNL     1      42.347   4.829  12.728  0.00  0.00    +0.000 OA
ATOM     26  H   UNL     1      41.395   5.018  12.821  0.00  0.00    +0.000 HD
ENDBRANCH  24  25
ENDBRANCH  23  24
BRANCH  23  27
ATOM     27  C   UNL     1      44.398   4.809   9.524  0.00  0.00    +0.000 C 
BRANCH  27  28
ATOM     28  C   UNL     1      45.235   3.823   8.737  0.00  0.00    +0.000 A 
ATOM     29  C   UNL     1      45.154   2.465   9.052  0.00  0.00    +0.000 A 
ATOM     30  C   UNL     1      45.965   1.561   8.372  0.00  0.00    +0.000 A 
ATOM     31  C   UNL     1      46.843   2.033   7.407  0.00  0.00    +0.000 A 
ATOM     32  C   UNL     1      46.867   3.396   7.157  0.00  0.00    +0.000 A 
ATOM     33  N   UNL     1      46.094   4.299   7.804  0.00  0.00    +0.000 NA
ENDBRANCH  27  28
ENDBRANCH  23  27
ENDBRANCH   4  23
TORSDOF 8
ENDMDL
MODEL 5
REMARK VINA RESULT:    -6.902      3.661      5.005
REMARK INTER + INTRA:         -11.005
REMARK INTER:                  -9.660
REMARK INTRA:                  -1.345
REMARK UNBOUND:                -1.076
REMARK  Name = 
REMARK  8 active torsions:
REMARK  status: ('A' for Active; 'I' for Inactive)
REMARK    1  A    between atoms: C_2  and  C_21
REMARK    2  A    between atoms: N_3  and  C_4
REMARK    3  A    between atoms: C_4  and  C_5
REMARK    4  A    between atoms: C_8  and  C_9
REMARK    5  A    between atoms: C_9  and  C_10
REMARK    6  A    between atoms: C_9  and  C_12
REMARK    7  A    between atoms: C_10  and  O_11
REMARK    8  A    between atoms: C_12  and  C_13
REMARK                            x       y       z     vdW  Elec       q    Type
REMARK                         _______ _______ _______ _____ _____    ______ ____
ROOT
ATOM      1  C   UNL     1      48.014   6.459  14.299  0.00  0.00    +0.000 A 
ATOM      2  C   UNL     1      47.334   7.186  13.331  0.00  0.00    +0.000 A 
ATOM      3  C   UNL     1      46.361   6.549  12.573  0.00  0.00    +0.000 A 
ATOM      4  C   UNL     1      46.077   5.197  12.786  0.00  0.00    +0.000 A 
ATOM      5  C   UNL     1      46.808   4.553  13.782  0.00  0.00    +0.000 A 
ATOM      6  N   UNL     1      47.748   5.152  14.550  0.00  0.00    +0.000 NA
ENDROOT
BRANCH   1   7
ATOM      7  C   UNL     1      49.079   7.134  15.126  0.00  0.00    +0.000 C 
BRANCH   7  10
ATOM      8  O   UNL     1      50.219   9.628  14.518  0.00  0.00    +0.000 OA
ATOM      9  C   UNL     1      50.745   8.612  14.078  0.00  0.00    +0.000 C 
ATOM     10  N   UNL     1      50.283   7.352  14.371  0.00  0.00    +0.000 N 
ATOM     11  H   UNL     1      50.682   6.532  13.935  0.00  0.00    +0.000 HD
BRANCH   9  12
ATOM     12  C   UNL     1      51.937   8.656  13.243  0.00  0.00    +0.000 A 
ATOM     13  C   UNL     1      53.127   9.193  13.711  0.00  0.00    +0.000 A 
ATOM     14  S   UNL     1      54.400   9.085  12.574  0.00  0.00    +0.000 S 
ATOM     15  C   UNL     1      53.383   8.353  11.419  0.00  0.00    +0.000 A 
ATOM     16  N   UNL     1      53.852   7.976  10.199  0.00  0.00    +0.000 NA
ATOM     17  C   UNL     1      52.969   7.418   9.438  0.00  0.00    +0.000 A 
ATOM     18  N   UNL     1      51.656   7.217   9.774  0.00  0.00    +0.000 N 
ATOM     19  C   UNL     1      51.126   7.635  10.968  0.00  0.00    +0.000 A 
ATOM     20  O   UNL     1      49.933   7.496  11.206  0.00  0.00    +0.000 OA
ATOM     21  C   UNL     1      52.090   8.204  11.884  0.00  0.00    +0.000 A 
ATOM     22  H   UNL     1      51.010   6.790   9.128  0.00  0.00    +0.000 HD
ENDBRANCH   9  12
ENDBRANCH   7  10
ENDBRANCH   1   7
BRANCH   4  23
ATOM     23  C   UNL     1      45.005   4.448  12.006  0.00  0.00    +0.000 C 
BRANCH  23  24
ATOM     24  C   UNL     1      43.677   4.436  12.800  0.00  0.00    +0.000 C 
BRANCH  24  25
ATOM     25  O   UNL     1      43.099   5.738  12.889  0.00  0.00    +0.000 OA
ATOM     26  H   UNL     1      42.153   5.638  12.673  0.00  0.00    +0.000 HD
ENDBRANCH  24  25
ENDBRANCH  23  24
BRANCH  23  27
ATOM     27  C   UNL     1      44.759   5.005  10.583  0.00  0.00    +0.000 C 
BRANCH  27  28
ATOM     28  C   UNL     1      45.285   4.160   9.442  0.00  0.00    +0.000 A 
ATOM     29  C   UNL     1      45.179   2.770   9.525  0.00  0.00    +0.000 A 
ATOM     30  C   UNL     1      45.715   1.986   8.508  0.00  0.00    +0.000 A 
ATOM     31  C   UNL     1      46.351   2.605   7.441  0.00  0.00    +0.000 A 
ATOM     32  C   UNL     1      46.420   3.988   7.436  0.00  0.00    +0.000 A 
ATOM     33  N   UNL     1      45.912   4.776   8.413  0.00  0.00    +0.000 NA
ENDBRANCH  27  28
ENDBRANCH  23  27
ENDBRANCH   4  23
TORSDOF 8
ENDMDL
MODEL 6
REMARK VINA RESULT:    -6.843      3.188      8.038
REMARK INTER + INTRA:         -10.920
REMARK INTER:                  -9.778
REMARK INTRA:                  -1.142
REMARK UNBOUND:                -1.076
REMARK  Name = 
REMARK  8 active torsions:
REMARK  status: ('A' for Active; 'I' for Inactive)
REMARK    1  A    between atoms: C_2  and  C_21
REMARK    2  A    between atoms: N_3  and  C_4
REMARK    3  A    between atoms: C_4  and  C_5
REMARK    4  A    between atoms: C_8  and  C_9
REMARK    5  A    between atoms: C_9  and  C_10
REMARK    6  A    between atoms: C_9  and  C_12
REMARK    7  A    between atoms: C_10  and  O_11
REMARK    8  A    between atoms: C_12  and  C_13
REMARK                            x       y       z     vdW  Elec       q    Type
REMARK                         _______ _______ _______ _____ _____    ______ ____
ROOT
ATOM      1  C   UNL     1      48.552   7.503  13.717  0.00  0.00    +0.000 A 
ATOM      2  C   UNL     1      49.064   8.461  14.584  0.00  0.00    +0.000 A 
ATOM      3  C   UNL     1      49.277   8.120  15.912  0.00  0.00    +0.000 A 
ATOM      4  C   UNL     1      48.977   6.832  16.364  0.00  0.00    +0.000 A 
ATOM      5  C   UNL     1      48.472   5.940  15.422  0.00  0.00    +0.000 A 
ATOM      6  N   UNL     1      48.272   6.236  14.116  0.00  0.00    +0.000 NA
ENDROOT
BRANCH   1   7
ATOM      7  C   UNL     1      48.310   7.859  12.273  0.00  0.00    +0.000 C 
BRANCH   7  10
ATOM      8  O   UNL     1      45.544   7.869  11.785  0.00  0.00    +0.000 OA
ATOM      9  C   UNL     1      46.204   6.898  11.435  0.00  0.00    +0.000 C 
ATOM     10  N   UNL     1      47.568   6.835  11.588  0.00  0.00    +0.000 N 
ATOM     11  H   UNL     1      48.083   5.994  11.367  0.00  0.00    +0.000 HD
BRANCH   9  12
ATOM     12  C   UNL     1      45.601   5.745  10.783  0.00  0.00    +0.000 A 
ATOM     13  C   UNL     1      45.755   5.521   9.422  0.00  0.00    +0.000 A 
ATOM     14  S   UNL     1      45.005   4.079   8.893  0.00  0.00    +0.000 S 
ATOM     15  C   UNL     1      44.427   3.738  10.460  0.00  0.00    +0.000 A 
ATOM     16  N   UNL     1      43.704   2.614  10.720  0.00  0.00    +0.000 NA
ATOM     17  C   UNL     1      43.350   2.483  11.956  0.00  0.00    +0.000 A 
ATOM     18  N   UNL     1      43.636   3.377  12.955  0.00  0.00    +0.000 N 
ATOM     19  C   UNL     1      44.308   4.550  12.727  0.00  0.00    +0.000 A 
ATOM     20  O   UNL     1      44.487   5.355  13.632  0.00  0.00    +0.000 OA
ATOM     21  C   UNL     1      44.786   4.713  11.371  0.00  0.00    +0.000 A 
ATOM     22  H   UNL     1      43.317   3.226  13.899  0.00  0.00    +0.000 HD
ENDBRANCH   9  12
ENDBRANCH   7  10
ENDBRANCH   1   7
BRANCH   4  23
ATOM     23  C   UNL     1      49.210   6.389  17.803  0.00  0.00    +0.000 C 
BRANCH  23  24
ATOM     24  C   UNL     1      48.473   7.338  18.778  0.00  0.00    +0.000 C 
BRANCH  24  25
ATOM     25  O   UNL     1      47.073   7.394  18.510  0.00  0.00    +0.000 OA
ATOM     26  H   UNL     1      46.939   8.122  17.874  0.00  0.00    +0.000 HD
ENDBRANCH  24  25
ENDBRANCH  23  24
BRANCH  23  27
ATOM     27  C   UNL     1      48.796   4.925  18.085  0.00  0.00    +0.000 C 
BRANCH  27  28
ATOM     28  C   UNL     1      49.885   3.887  17.919  0.00  0.00    +0.000 A 
ATOM     29  C   UNL     1      51.167   4.169  18.396  0.00  0.00    +0.000 A 
ATOM     30  C   UNL     1      52.186   3.244  18.194  0.00  0.00    +0.000 A 
ATOM     31  C   UNL     1      51.906   2.068  17.512  0.00  0.00    +0.000 A 
ATOM     32  C   UNL     1      50.611   1.865  17.065  0.00  0.00    +0.000 A 
ATOM     33  N   UNL     1      49.601   2.748  17.243  0.00  0.00    +0.000 NA
ENDBRANCH  27  28
ENDBRANCH  23  27
ENDBRANCH   4  23
TORSDOF 8
ENDMDL
MODEL 7
REMARK VINA RESULT:    -6.408      2.362      2.844
REMARK INTER + INTRA:         -10.293
REMARK INTER:                 -10.338
REMARK INTRA:                   0.045
REMARK UNBOUND:                -1.076
REMARK  Name = 
REMARK  8 active torsions:
REMARK  status: ('A' for Active; 'I' for Inactive)
REMARK    1  A    between atoms: C_2  and  C_21
REMARK    2  A    between atoms: N_3  and  C_4
REMARK    3  A    between atoms: C_4  and  C_5
REMARK    4  A    between atoms: C_8  and  C_9
REMARK    5  A    between atoms: C_9  and  C_10
REMARK    6  A    between atoms: C_9  and  C_12
REMARK    7  A    between atoms: C_10  and  O_11
REMARK    8  A    between atoms: C_12  and  C_13
REMARK                            x       y       z     vdW  Elec       q    Type
REMARK                         _______ _______ _______ _____ _____    ______ ____
ROOT
ATOM      1  C   UNL     1      46.913   4.463  14.071  0.00  0.00    +0.000 A 
ATOM      2  C   UNL     1      46.280   5.614  13.620  0.00  0.00    +0.000 A 
ATOM      3  C   UNL     1      45.274   5.500  12.671  0.00  0.00    +0.000 A 
ATOM      4  C   UNL     1      44.909   4.243  12.180  0.00  0.00    +0.000 A 
ATOM      5  C   UNL     1      45.598   3.147  12.695  0.00  0.00    +0.000 A 
ATOM      6  N   UNL     1      46.569   3.224  13.634  0.00  0.00    +0.000 NA
ENDROOT
BRANCH   1   7
ATOM      7  C   UNL     1      48.012   4.570  15.097  0.00  0.00    +0.000 C 
BRANCH   7  10
ATOM      8  O   UNL     1      49.886   6.607  15.574  0.00  0.00    +0.000 OA
ATOM      9  C   UNL     1      48.818   6.631  16.175  0.00  0.00    +0.000 C 
ATOM     10  N   UNL     1      47.826   5.704  15.961  0.00  0.00    +0.000 N 
ATOM     11  H   UNL     1      46.986   5.696  16.522  0.00  0.00    +0.000 HD
BRANCH   9  12
ATOM     12  C   UNL     1      48.492   7.676  17.134  0.00  0.00    +0.000 A 
ATOM     13  C   UNL     1      48.445   9.011  16.760  0.00  0.00    +0.000 A 
ATOM     14  S   UNL     1      47.987  10.048  18.041  0.00  0.00    +0.000 S 
ATOM     15  C   UNL     1      47.877   8.743  19.133  0.00  0.00    +0.000 A 
ATOM     16  N   UNL     1      47.506   8.933  20.428  0.00  0.00    +0.000 NA
ATOM     17  C   UNL     1      47.450   7.848  21.130  0.00  0.00    +0.000 A 
ATOM     18  N   UNL     1      47.746   6.594  20.664  0.00  0.00    +0.000 N 
ATOM     19  C   UNL     1      48.182   6.364  19.384  0.00  0.00    +0.000 A 
ATOM     20  O   UNL     1      48.499   5.239  19.023  0.00  0.00    +0.000 OA
ATOM     21  C   UNL     1      48.196   7.538  18.537  0.00  0.00    +0.000 A 
ATOM     22  H   UNL     1      47.699   5.787  21.267  0.00  0.00    +0.000 HD
ENDBRANCH   9  12
ENDBRANCH   7  10
ENDBRANCH   1   7
BRANCH   4  23
ATOM     23  C   UNL     1      43.798   4.049  11.157  0.00  0.00    +0.000 C 
BRANCH  23  24
ATOM     24  C   UNL     1      43.713   5.280  10.223  0.00  0.00    +0.000 C 
BRANCH  24  25
ATOM     25  O   UNL     1      42.675   6.176  10.616  0.00  0.00    +0.000 OA
ATOM     26  H   UNL     1      42.238   6.473   9.796  0.00  0.00    +0.000 HD
ENDBRANCH  24  25
ENDBRANCH  23  24
BRANCH  23  27
ATOM     27  C   UNL     1      43.939   2.760  10.313  0.00  0.00    +0.000 C 
BRANCH  27  28
ATOM     28  C   UNL     1      45.001   2.789   9.233  0.00  0.00    +0.000 A 
ATOM     29  C   UNL     1      45.255   3.990   8.568  0.00  0.00    +0.000 A 
ATOM     30  C   UNL     1      46.187   4.010   7.535  0.00  0.00    +0.000 A 
ATOM     31  C   UNL     1      46.831   2.832   7.183  0.00  0.00    +0.000 A 
ATOM     32  C   UNL     1      46.519   1.682   7.888  0.00  0.00    +0.000 A 
ATOM     33  N   UNL     1      45.615   1.631   8.894  0.00  0.00    +0.000 NA
ENDBRANCH  27  28
ENDBRANCH  23  27
ENDBRANCH   4  23
TORSDOF 8
ENDMDL
MODEL 8
REMARK VINA RESULT:    -6.208      3.395      8.094
REMARK INTER + INTRA:         -10.006
REMARK INTER:                  -8.535
REMARK INTRA:                  -1.471
REMARK UNBOUND:                -1.076
REMARK  Name = 
REMARK  8 active torsions:
REMARK  status: ('A' for Active; 'I' for Inactive)
REMARK    1  A    between atoms: C_2  and  C_21
REMARK    2  A    between atoms: N_3  and  C_4
REMARK    3  A    between atoms: C_4  and  C_5
REMARK    4  A    between atoms: C_8  and  C_9
REMARK    5  A    between atoms: C_9  and  C_10
REMARK    6  A    between atoms: C_9  and  C_12
REMARK    7  A    between atoms: C_10  and  O_11
REMARK    8  A    between atoms: C_12  and  C_13
REMARK                            x       y       z     vdW  Elec       q    Type
REMARK                         _______ _______ _______ _____ _____    ______ ____
ROOT
ATOM      1  C   UNL     1      48.889   8.191  15.730  0.00  0.00    +0.000 A 
ATOM      2  C   UNL     1      48.290   8.373  16.970  0.00  0.00    +0.000 A 
ATOM      3  C   UNL     1      48.819   7.719  18.074  0.00  0.00    +0.000 A 
ATOM      4  C   UNL     1      49.937   6.891  17.932  0.00  0.00    +0.000 A 
ATOM      5  C   UNL     1      50.470   6.775  16.651  0.00  0.00    +0.000 A 
ATOM      6  N   UNL     1      49.989   7.414  15.560  0.00  0.00    +0.000 NA
ENDROOT
BRANCH   1   7
ATOM      7  C   UNL     1      48.322   8.889  14.520  0.00  0.00    +0.000 C 
BRANCH   7  10
ATOM      8  O   UNL     1      48.385   6.941  12.498  0.00  0.00    +0.000 OA
ATOM      9  C   UNL     1      47.302   7.283  12.959  0.00  0.00    +0.000 C 
ATOM     10  N   UNL     1      47.185   8.190  13.985  0.00  0.00    +0.000 N 
ATOM     11  H   UNL     1      46.281   8.518  14.296  0.00  0.00    +0.000 HD
BRANCH   9  12
ATOM     12  C   UNL     1      46.046   6.720  12.486  0.00  0.00    +0.000 A 
ATOM     13  C   UNL     1      45.061   7.519  11.924  0.00  0.00    +0.000 A 
ATOM     14  S   UNL     1      43.701   6.629  11.393  0.00  0.00    +0.000 S 
ATOM     15  C   UNL     1      44.379   5.162  11.934  0.00  0.00    +0.000 A 
ATOM     16  N   UNL     1      43.728   3.978  11.770  0.00  0.00    +0.000 NA
ATOM     17  C   UNL     1      44.374   2.950  12.213  0.00  0.00    +0.000 A 
ATOM     18  N   UNL     1      45.601   2.994  12.821  0.00  0.00    +0.000 N 
ATOM     19  C   UNL     1      46.265   4.170  13.061  0.00  0.00    +0.000 A 
ATOM     20  O   UNL     1      47.329   4.176  13.665  0.00  0.00    +0.000 OA
ATOM     21  C   UNL     1      45.615   5.345  12.522  0.00  0.00    +0.000 A 
ATOM     22  H   UNL     1      46.047   2.157  13.162  0.00  0.00    +0.000 HD
ENDBRANCH   9  12
ENDBRANCH   7  10
ENDBRANCH   1   7
BRANCH   4  23
ATOM     23  C   UNL     1      50.579   6.166  19.107  0.00  0.00    +0.000 C 
BRANCH  23  24
ATOM     24  C   UNL     1      50.828   7.154  20.272  0.00  0.00    +0.000 C 
BRANCH  24  25
ATOM     25  O   UNL     1      51.847   8.101  19.956  0.00  0.00    +0.000 OA
ATOM     26  H   UNL     1      52.699   7.632  20.037  0.00  0.00    +0.000 HD
ENDBRANCH  24  25
ENDBRANCH  23  24
BRANCH  23  27
ATOM     27  C   UNL     1      49.766   4.951  19.616  0.00  0.00    +0.000 C 
BRANCH  27  28
ATOM     28  C   UNL     1      49.277   3.990  18.553  0.00  0.00    +0.000 A 
ATOM     29  C   UNL     1      50.196   3.138  17.937  0.00  0.00    +0.000 A 
ATOM     30  C   UNL     1      49.763   2.296  16.919  0.00  0.00    +0.000 A 
ATOM     31  C   UNL     1      48.431   2.331  16.531  0.00  0.00    +0.000 A 
ATOM     32  C   UNL     1      47.584   3.209  17.187  0.00  0.00    +0.000 A 
ATOM     33  N   UNL     1      47.977   4.043  18.178  0.00  0.00    +0.000 NA
ENDBRANCH  27  28
ENDBRANCH  23  27
ENDBRANCH   4  23
TORSDOF 8
ENDMDL
MODEL 9
REMARK VINA RESULT:    -6.081      3.749      9.172
REMARK INTER + INTRA:          -9.824
REMARK INTER:                  -8.638
REMARK INTRA:                  -1.185
REMARK UNBOUND:                -1.076
REMARK  Name = 
REMARK  8 active torsions:
REMARK  status: ('A' for Active; 'I' for Inactive)
REMARK    1  A    between atoms: C_2  and  C_21
REMARK    2  A    between atoms: N_3  and  C_4
REMARK    3  A    between atoms: C_4  and  C_5
REMARK    4  A    between atoms: C_8  and  C_9
REMARK    5  A    between atoms: C_9  and  C_10
REMARK    6  A    between atoms: C_9  and  C_12
REMARK    7  A    between atoms: C_10  and  O_11
REMARK    8  A    between atoms: C_12  and  C_13
REMARK                            x       y       z     vdW  Elec       q    Type
REMARK                         _______ _______ _______ _____ _____    ______ ____
ROOT
ATOM      1  C   UNL     1      48.188   4.414  17.275  0.00  0.00    +0.000 A 
ATOM      2  C   UNL     1      47.782   4.790  18.549  0.00  0.00    +0.000 A 
ATOM      3  C   UNL     1      48.672   5.479  19.361  0.00  0.00    +0.000 A 
ATOM      4  C   UNL     1      49.955   5.786  18.898  0.00  0.00    +0.000 A 
ATOM      5  C   UNL     1      50.269   5.371  17.606  0.00  0.00    +0.000 A 
ATOM      6  N   UNL     1      49.417   4.715  16.784  0.00  0.00    +0.000 NA
ENDROOT
BRANCH   1   7
ATOM      7  C   UNL     1      47.236   3.659  16.384  0.00  0.00    +0.000 C 
BRANCH   7  10
ATOM      8  O   UNL     1      47.552   3.576  13.594  0.00  0.00    +0.000 OA
ATOM      9  C   UNL     1      46.843   4.447  14.085  0.00  0.00    +0.000 C 
ATOM     10  N   UNL     1      46.593   4.526  15.434  0.00  0.00    +0.000 N 
ATOM     11  H   UNL     1      46.070   5.297  15.827  0.00  0.00    +0.000 HD
BRANCH   9  12
ATOM     12  C   UNL     1      46.165   5.445  13.270  0.00  0.00    +0.000 A 
ATOM     13  C   UNL     1      46.797   6.622  12.897  0.00  0.00    +0.000 A 
ATOM     14  S   UNL     1      45.826   7.613  11.898  0.00  0.00    +0.000 S 
ATOM     15  C   UNL     1      44.527   6.512  11.972  0.00  0.00    +0.000 A 
ATOM     16  N   UNL     1      43.362   6.745  11.307  0.00  0.00    +0.000 NA
ATOM     17  C   UNL     1      42.477   5.813  11.442  0.00  0.00    +0.000 A 
ATOM     18  N   UNL     1      42.638   4.677  12.193  0.00  0.00    +0.000 N 
ATOM     19  C   UNL     1      43.771   4.431  12.926  0.00  0.00    +0.000 A 
ATOM     20  O   UNL     1      43.853   3.438  13.636  0.00  0.00    +0.000 OA
ATOM     21  C   UNL     1      44.821   5.412  12.754  0.00  0.00    +0.000 A 
ATOM     22  H   UNL     1      41.902   3.994  12.273  0.00  0.00    +0.000 HD
ENDBRANCH   9  12
ENDBRANCH   7  10
ENDBRANCH   1   7
BRANCH   4  23
ATOM     23  C   UNL     1      50.968   6.560  19.730  0.00  0.00    +0.000 C 
BRANCH  23  24
ATOM     24  C   UNL     1      52.375   6.451  19.094  0.00  0.00    +0.000 C 
BRANCH  24  25
ATOM     25  O   UNL     1      53.152   5.418  19.696  0.00  0.00    +0.000 OA
ATOM     26  H   UNL     1      53.749   5.077  19.003  0.00  0.00    +0.000 HD
ENDBRANCH  24  25
ENDBRANCH  23  24
BRANCH  23  27
ATOM     27  C   UNL     1      50.603   8.049  19.940  0.00  0.00    +0.000 C 
BRANCH  27  28
ATOM     28  C   UNL     1      49.907   8.729  18.780  0.00  0.00    +0.000 A 
ATOM     29  C   UNL     1      48.534   8.973  18.865  0.00  0.00    +0.000 A 
ATOM     30  C   UNL     1      47.878   9.543  17.779  0.00  0.00    +0.000 A 
ATOM     31  C   UNL     1      48.601   9.844  16.633  0.00  0.00    +0.000 A 
ATOM     32  C   UNL     1      49.958   9.566  16.626  0.00  0.00    +0.000 A 
ATOM     33  N   UNL     1      50.623   9.008  17.665  0.00  0.00    +0.000 NA
ENDBRANCH  27  28
ENDBRANCH  23  27
ENDBRANCH   4  23
TORSDOF 8
ENDMDL
