MODEL 1
REMARK VINA RESULT:    -8.935      0.000      0.000
REMARK INTER + INTRA:         -12.811
REMARK INTER:                 -12.069
REMARK INTRA:                  -0.742
REMARK UNBOUND:                -0.742
REMARK  Name = 
REMARK  7 active torsions:
REMARK  status: ('A' for Active; 'I' for Inactive)
REMARK    1  A    between atoms: C_1  and  C_2
REMARK    2  A    between atoms: C_5  and  O_6
REMARK    3  A    between atoms: O_6  and  C_7
REMARK    4  A    between atoms: C_11  and  C_12
REMARK    5  A    between atoms: C_12  and  C_13
REMARK    6  A    between atoms: C_13  and  N_14
REMARK    7  A    between atoms: C_18  and  C_19
REMARK                            x       y       z     vdW  Elec       q    Type
REMARK                         _______ _______ _______ _____ _____    ______ ____
ROOT
ATOM      1  C   UNL     1      43.329   4.238  11.180  0.00  0.00    +0.000 C 
ENDROOT
BRANCH   1   2
ATOM      2  N   UNL     1      43.709   4.718   9.861  0.00  0.00    +0.000 N 
ATOM      3  C   UNL     1      44.641   3.952   9.159  0.00  0.00    +0.000 A 
ATOM      4  C   UNL     1      44.732   2.556   9.244  0.00  0.00    +0.000 A 
ATOM      5  N   UNL     1      45.616   1.794   8.546  0.00  0.00    +0.000 NA
ATOM      6  C   UNL     1      46.415   2.494   7.707  0.00  0.00    +0.000 A 
ATOM      7  C   UNL     1      46.328   3.876   7.589  0.00  0.00    +0.000 A 
ATOM      8  N   UNL     1      45.450   4.628   8.316  0.00  0.00    +0.000 NA
ATOM      9  H   UNL     1      43.996   5.693   9.791  0.00  0.00    +0.000 HD
BRANCH   6  10
ATOM     10  C   UNL     1      47.406   1.724   6.900  0.00  0.00    +0.000 C 
ATOM     11  N   UNL     1      48.495   2.420   6.460  0.00  0.00    +0.000 N 
ATOM     12  O   UNL     1      47.245   0.536   6.647  0.00  0.00    +0.000 OA
ATOM     13  H   UNL     1      48.606   3.397   6.680  0.00  0.00    +0.000 HD
ATOM     14  H   UNL     1      49.199   1.939   5.908  0.00  0.00    +0.000 HD
ENDBRANCH   6  10
ENDBRANCH   1   2
BRANCH   1  15
ATOM     15  C   UNL     1      43.189   5.369  12.207  0.00  0.00    +0.000 C 
BRANCH  15  20
ATOM     16  C   UNL     1      46.688   5.069  13.665  0.00  0.00    +0.000 A 
ATOM     17  C   UNL     1      47.279   6.242  13.196  0.00  0.00    +0.000 A 
ATOM     18  C   UNL     1      46.506   7.201  12.546  0.00  0.00    +0.000 A 
ATOM     19  C   UNL     1      45.154   6.960  12.304  0.00  0.00    +0.000 A 
ATOM     20  C   UNL     1      44.575   5.742  12.688  0.00  0.00    +0.000 A 
ATOM     21  C   UNL     1      45.348   4.805  13.392  0.00  0.00    +0.000 A 
BRANCH  16  22
ATOM     22  O   UNL     1      47.504   4.235  14.381  0.00  0.00    +0.000 OA
BRANCH  22  27
ATOM     23  C   UNL     1      49.061   6.204  16.326  0.00  0.00    +0.000 C 
ATOM     24  C   UNL     1      48.280   4.983  16.762  0.00  0.00    +0.000 C 
ATOM     25  O   UNL     1      49.151   3.824  16.915  0.00  0.00    +0.000 OA
ATOM     26  C   UNL     1      48.064   2.969  16.469  0.00  0.00    +0.000 C 
ATOM     27  C   UNL     1      47.345   4.171  15.819  0.00  0.00    +0.000 C 
ENDBRANCH  22  27
ENDBRANCH  16  22
ENDBRANCH  15  20
ENDBRANCH   1  15
TORSDOF 6
ENDMDL
MODEL 2
REMARK VINA RESULT:    -8.041      2.021      3.322
REMARK INTER + INTRA:         -11.604
REMARK INTER:                 -10.754
REMARK INTRA:                  -0.850
REMARK UNBOUND:                -0.742
REMARK  Name = 
REMARK  7 active torsions:
REMARK  status: ('A' for Active; 'I' for Inactive)
REMARK    1  A    between atoms: C_1  and  C_2
REMARK    2  A    between atoms: C_5  and  O_6
REMARK    3  A    between atoms: O_6  and  C_7
REMARK    4  A    between atoms: C_11  and  C_12
REMARK    5  A    between atoms: C_12  and  C_13
REMARK    6  A    between atoms: C_13  and  N_14
REMARK    7  A    between atoms: C_18  and  C_19
REMARK                            x       y       z     vdW  Elec       q    Type
REMARK                         _______ _______ _______ _____ _____    ______ ____
ROOT
ATOM      1  C   UNL     1      43.337   4.440  11.106  0.00  0.00    +0.000 C 
ENDROOT
BRANCH   1   2
ATOM      2  N   UNL     1      43.767   4.834   9.774  0.00  0.00    +0.000 N 
ATOM      3  C   UNL     1      44.668   3.986   9.129  0.00  0.00    +0.000 A 
ATOM      4  C   UNL     1      44.681   2.592   9.282  0.00  0.00    +0.000 A 
ATOM      5  N   UNL     1      45.535   1.751   8.641  0.00  0.00    +0.000 NA
ATOM      6  C   UNL     1      46.387   2.365   7.787  0.00  0.00    +0.000 A 
ATOM      7  C   UNL     1      46.378   3.742   7.602  0.00  0.00    +0.000 A 
ATOM      8  N   UNL     1      45.529   4.575   8.273  0.00  0.00    +0.000 NA
ATOM      9  H   UNL     1      44.109   5.788   9.664  0.00  0.00    +0.000 HD
BRANCH   6  10
ATOM     10  C   UNL     1      47.348   1.504   7.038  0.00  0.00    +0.000 C 
ATOM     11  N   UNL     1      48.502   2.108   6.627  0.00  0.00    +0.000 N 
ATOM     12  O   UNL     1      47.110   0.325   6.806  0.00  0.00    +0.000 OA
ATOM     13  H   UNL     1      48.676   3.079   6.828  0.00  0.00    +0.000 HD
ATOM     14  H   UNL     1      49.190   1.563   6.115  0.00  0.00    +0.000 HD
ENDBRANCH   6  10
ENDBRANCH   1   2
BRANCH   1  15
ATOM     15  C   UNL     1      43.523   5.553  12.145  0.00  0.00    +0.000 C 
BRANCH  15  20
ATOM     16  C   UNL     1      46.926   6.724  13.371  0.00  0.00    +0.000 A 
ATOM     17  C   UNL     1      47.455   5.538  13.880  0.00  0.00    +0.000 A 
ATOM     18  C   UNL     1      46.780   4.335  13.687  0.00  0.00    +0.000 A 
ATOM     19  C   UNL     1      45.545   4.324  13.041  0.00  0.00    +0.000 A 
ATOM     20  C   UNL     1      44.962   5.525  12.611  0.00  0.00    +0.000 A 
ATOM     21  C   UNL     1      45.675   6.726  12.760  0.00  0.00    +0.000 A 
BRANCH  16  22
ATOM     22  O   UNL     1      47.709   7.838  13.520  0.00  0.00    +0.000 OA
BRANCH  22  27
ATOM     23  C   UNL     1      50.159   7.686  11.505  0.00  0.00    +0.000 C 
ATOM     24  C   UNL     1      49.149   8.812  11.569  0.00  0.00    +0.000 C 
ATOM     25  O   UNL     1      49.637   9.913  12.390  0.00  0.00    +0.000 OA
ATOM     26  C   UNL     1      48.272  10.176  12.817  0.00  0.00    +0.000 C 
ATOM     27  C   UNL     1      47.838   8.753  12.404  0.00  0.00    +0.000 C 
ENDBRANCH  22  27
ENDBRANCH  16  22
ENDBRANCH  15  20
ENDBRANCH   1  15
TORSDOF 6
ENDMDL
MODEL 3
REMARK VINA RESULT:    -7.447      3.080      7.694
REMARK INTER + INTRA:         -10.801
REMARK INTER:                 -10.128
REMARK INTRA:                  -0.673
REMARK UNBOUND:                -0.742
REMARK  Name = 
REMARK  7 active torsions:
REMARK  status: ('A' for Active; 'I' for Inactive)
REMARK    1  A    between atoms: C_1  and  C_2
REMARK    2  A    between atoms: C_5  and  O_6
REMARK    3  A    between atoms: O_6  and  C_7
REMARK    4  A    between atoms: C_11  and  C_12
REMARK    5  A    between atoms: C_12  and  C_13
REMARK    6  A    between atoms: C_13  and  N_14
REMARK    7  A    between atoms: C_18  and  C_19
REMARK                            x       y       z     vdW  Elec       q    Type
REMARK                         _______ _______ _______ _____ _____    ______ ____
ROOT
ATOM      1  C   UNL     1      45.458   6.557  12.543  0.00  0.00    +0.000 C 
ENDROOT
BRANCH   1   2
ATOM      2  N   UNL     1      46.826   6.610  13.031  0.00  0.00    +0.000 N 
ATOM      3  C   UNL     1      47.156   5.741  14.072  0.00  0.00    +0.000 A 
ATOM      4  C   UNL     1      46.603   4.462  14.231  0.00  0.00    +0.000 A 
ATOM      5  N   UNL     1      46.933   3.594  15.224  0.00  0.00    +0.000 NA
ATOM      6  C   UNL     1      47.891   4.048  16.066  0.00  0.00    +0.000 A 
ATOM      7  C   UNL     1      48.469   5.303  15.916  0.00  0.00    +0.000 A 
ATOM      8  N   UNL     1      48.107   6.172  14.927  0.00  0.00    +0.000 NA
ATOM      9  H   UNL     1      47.194   7.530  13.270  0.00  0.00    +0.000 HD
BRANCH   6  10
ATOM     10  C   UNL     1      48.313   3.145  17.177  0.00  0.00    +0.000 C 
ATOM     11  N   UNL     1      47.371   2.882  18.129  0.00  0.00    +0.000 N 
ATOM     12  O   UNL     1      49.442   2.672  17.227  0.00  0.00    +0.000 OA
ATOM     13  H   UNL     1      46.448   3.283  18.067  0.00  0.00    +0.000 HD
ATOM     14  H   UNL     1      47.609   2.271  18.905  0.00  0.00    +0.000 HD
ENDBRANCH   6  10
ENDBRANCH   1   2
BRANCH   1  15
ATOM     15  C   UNL     1      45.371   6.558  11.011  0.00  0.00    +0.000 C 
BRANCH  15  20
ATOM     16  C   UNL     1      44.999   3.300   9.086  0.00  0.00    +0.000 A 
ATOM     17  C   UNL     1      44.223   2.549   9.969  0.00  0.00    +0.000 A 
ATOM     18  C   UNL     1      43.691   3.146  11.109  0.00  0.00    +0.000 A 
ATOM     19  C   UNL     1      43.987   4.477  11.403  0.00  0.00    +0.000 A 
ATOM     20  C   UNL     1      44.844   5.209  10.570  0.00  0.00    +0.000 A 
ATOM     21  C   UNL     1      45.330   4.617   9.393  0.00  0.00    +0.000 A 
BRANCH  16  22
ATOM     22  O   UNL     1      45.392   2.657   7.942  0.00  0.00    +0.000 OA
BRANCH  22  27
ATOM     23  C   UNL     1      47.166   2.961   5.326  0.00  0.00    +0.000 C 
ATOM     24  C   UNL     1      47.505   2.086   6.514  0.00  0.00    +0.000 C 
ATOM     25  O   UNL     1      47.070   0.711   6.299  0.00  0.00    +0.000 OA
ATOM     26  C   UNL     1      46.796   0.593   7.721  0.00  0.00    +0.000 C 
ATOM     27  C   UNL     1      46.739   2.129   7.868  0.00  0.00    +0.000 C 
ENDBRANCH  22  27
ENDBRANCH  16  22
ENDBRANCH  15  20
ENDBRANCH   1  15
TORSDOF 6
ENDMDL
MODEL 4
REMARK VINA RESULT:    -6.853      2.604      3.940
REMARK INTER + INTRA:          -9.998
REMARK INTER:                  -9.058
REMARK INTRA:                  -0.940
REMARK UNBOUND:                -0.742
REMARK  Name = 
REMARK  7 active torsions:
REMARK  status: ('A' for Active; 'I' for Inactive)
REMARK    1  A    between atoms: C_1  and  C_2
REMARK    2  A    between atoms: C_5  and  O_6
REMARK    3  A    between atoms: O_6  and  C_7
REMARK    4  A    between atoms: C_11  and  C_12
REMARK    5  A    between atoms: C_12  and  C_13
REMARK    6  A    between atoms: C_13  and  N_14
REMARK    7  A    between atoms: C_18  and  C_19
REMARK                            x       y       z     vdW  Elec       q    Type
REMARK                         _______ _______ _______ _____ _____    ______ ____
ROOT
ATOM      1  C   UNL     1      45.208   9.137  11.231  0.00  0.00    +0.000 C 
ENDROOT
BRANCH   1   2
ATOM      2  N   UNL     1      44.219   8.274  11.857  0.00  0.00    +0.000 N 
ATOM      3  C   UNL     1      44.207   6.938  11.456  0.00  0.00    +0.000 A 
ATOM      4  C   UNL     1      45.353   6.220  11.084  0.00  0.00    +0.000 A 
ATOM      5  N   UNL     1      45.361   4.911  10.717  0.00  0.00    +0.000 NA
ATOM      6  C   UNL     1      44.149   4.311  10.763  0.00  0.00    +0.000 A 
ATOM      7  C   UNL     1      43.003   4.996  11.149  0.00  0.00    +0.000 A 
ATOM      8  N   UNL     1      43.009   6.318  11.491  0.00  0.00    +0.000 NA
ATOM      9  H   UNL     1      43.255   8.605  11.856  0.00  0.00    +0.000 HD
BRANCH   6  10
ATOM     10  C   UNL     1      44.081   2.870  10.383  0.00  0.00    +0.000 C 
ATOM     11  N   UNL     1      43.551   2.026  11.316  0.00  0.00    +0.000 N 
ATOM     12  O   UNL     1      44.481   2.472   9.295  0.00  0.00    +0.000 OA
ATOM     13  H   UNL     1      43.230   2.376  12.205  0.00  0.00    +0.000 HD
ATOM     14  H   UNL     1      43.482   1.035  11.104  0.00  0.00    +0.000 HD
ENDBRANCH   6  10
ENDBRANCH   1   2
BRANCH   1  15
ATOM     15  C   UNL     1      46.131   9.821  12.248  0.00  0.00    +0.000 C 
BRANCH  15  20
ATOM     16  C   UNL     1      48.301   6.971  13.523  0.00  0.00    +0.000 A 
ATOM     17  C   UNL     1      49.345   6.990  12.599  0.00  0.00    +0.000 A 
ATOM     18  C   UNL     1      49.430   8.018  11.663  0.00  0.00    +0.000 A 
ATOM     19  C   UNL     1      48.434   8.993  11.607  0.00  0.00    +0.000 A 
ATOM     20  C   UNL     1      47.331   8.926  12.470  0.00  0.00    +0.000 A 
ATOM     21  C   UNL     1      47.283   7.919  13.447  0.00  0.00    +0.000 A 
BRANCH  16  22
ATOM     22  O   UNL     1      48.359   5.981  14.468  0.00  0.00    +0.000 OA
BRANCH  22  27
ATOM     23  C   UNL     1      48.176   3.975  16.923  0.00  0.00    +0.000 C 
ATOM     24  C   UNL     1      47.183   4.053  15.783  0.00  0.00    +0.000 C 
ATOM     25  O   UNL     1      47.487   3.072  14.749  0.00  0.00    +0.000 OA
ATOM     26  C   UNL     1      47.000   4.004  13.745  0.00  0.00    +0.000 C 
ATOM     27  C   UNL     1      47.172   5.189  14.720  0.00  0.00    +0.000 C 
ENDBRANCH  22  27
ENDBRANCH  16  22
ENDBRANCH  15  20
ENDBRANCH   1  15
TORSDOF 6
ENDMDL
MODEL 5
REMARK VINA RESULT:    -6.746      3.579      8.237
REMARK INTER + INTRA:          -9.854
REMARK INTER:                  -9.501
REMARK INTRA:                  -0.354
REMARK UNBOUND:                -0.742
REMARK  Name = 
REMARK  7 active torsions:
REMARK  status: ('A' for Active; 'I' for Inactive)
REMARK    1  A    between atoms: C_1  and  C_2
REMARK    2  A    between atoms: C_5  and  O_6
REMARK    3  A    between atoms: O_6  and  C_7
REMARK    4  A    between atoms: C_11  and  C_12
REMARK    5  A    between atoms: C_12  and  C_13
REMARK    6  A    between atoms: C_13  and  N_14
REMARK    7  A    between atoms: C_18  and  C_19
REMARK                            x       y       z     vdW  Elec       q    Type
REMARK                         _______ _______ _______ _____ _____    ______ ____
ROOT
ATOM      1  C   UNL     1      46.482   5.396  12.879  0.00  0.00    +0.000 C 
ENDROOT
BRANCH   1   2
ATOM      2  N   UNL     1      46.081   4.734  14.110  0.00  0.00    +0.000 N 
ATOM      3  C   UNL     1      47.051   4.619  15.106  0.00  0.00    +0.000 A 
ATOM      4  C   UNL     1      48.054   5.572  15.337  0.00  0.00    +0.000 A 
ATOM      5  N   UNL     1      48.990   5.487  16.320  0.00  0.00    +0.000 NA
ATOM      6  C   UNL     1      48.869   4.396  17.112  0.00  0.00    +0.000 A 
ATOM      7  C   UNL     1      47.870   3.450  16.916  0.00  0.00    +0.000 A 
ATOM      8  N   UNL     1      46.954   3.539  15.908  0.00  0.00    +0.000 NA
ATOM      9  H   UNL     1      45.626   3.827  14.017  0.00  0.00    +0.000 HD
BRANCH   6  10
ATOM     10  C   UNL     1      49.856   4.240  18.221  0.00  0.00    +0.000 C 
ATOM     11  N   UNL     1      50.548   3.063  18.249  0.00  0.00    +0.000 N 
ATOM     12  O   UNL     1      50.030   5.119  19.056  0.00  0.00    +0.000 OA
ATOM     13  H   UNL     1      50.387   2.353  17.552  0.00  0.00    +0.000 HD
ATOM     14  H   UNL     1      51.233   2.910  18.984  0.00  0.00    +0.000 HD
ENDBRANCH   6  10
ENDBRANCH   1   2
BRANCH   1  15
ATOM     15  C   UNL     1      45.288   5.891  12.052  0.00  0.00    +0.000 C 
BRANCH  15  20
ATOM     16  C   UNL     1      45.038   3.318   9.264  0.00  0.00    +0.000 A 
ATOM     17  C   UNL     1      44.195   2.370   9.844  0.00  0.00    +0.000 A 
ATOM     18  C   UNL     1      43.583   2.636  11.066  0.00  0.00    +0.000 A 
ATOM     19  C   UNL     1      43.865   3.822  11.744  0.00  0.00    +0.000 A 
ATOM     20  C   UNL     1      44.786   4.736  11.213  0.00  0.00    +0.000 A 
ATOM     21  C   UNL     1      45.354   4.486   9.953  0.00  0.00    +0.000 A 
BRANCH  16  22
ATOM     22  O   UNL     1      45.510   3.012   8.016  0.00  0.00    +0.000 OA
BRANCH  22  27
ATOM     23  C   UNL     1      47.140   3.032   5.290  0.00  0.00    +0.000 C 
ATOM     24  C   UNL     1      47.485   2.201   6.508  0.00  0.00    +0.000 C 
ATOM     25  O   UNL     1      46.937   0.854   6.401  0.00  0.00    +0.000 OA
ATOM     26  C   UNL     1      46.742   0.837   7.842  0.00  0.00    +0.000 C 
ATOM     27  C   UNL     1      46.808   2.379   7.897  0.00  0.00    +0.000 C 
ENDBRANCH  22  27
ENDBRANCH  16  22
ENDBRANCH  15  20
ENDBRANCH   1  15
TORSDOF 6
ENDMDL
MODEL 6
REMARK VINA RESULT:    -6.439      3.219      4.903
REMARK INTER + INTRA:          -9.440
REMARK INTER:                  -8.505
REMARK INTRA:                  -0.935
REMARK UNBOUND:                -0.742
REMARK  Name = 
REMARK  7 active torsions:
REMARK  status: ('A' for Active; 'I' for Inactive)
REMARK    1  A    between atoms: C_1  and  C_2
REMARK    2  A    between atoms: C_5  and  O_6
REMARK    3  A    between atoms: O_6  and  C_7
REMARK    4  A    between atoms: C_11  and  C_12
REMARK    5  A    between atoms: C_12  and  C_13
REMARK    6  A    between atoms: C_13  and  N_14
REMARK    7  A    between atoms: C_18  and  C_19
REMARK                            x       y       z     vdW  Elec       q    Type
REMARK                         _______ _______ _______ _____ _____    ______ ____
ROOT
ATOM      1  C   UNL     1      48.254   8.159  12.582  0.00  0.00    +0.000 C 
ENDROOT
BRANCH   1   2
ATOM      2  N   UNL     1      46.810   8.235  12.432  0.00  0.00    +0.000 N 
ATOM      3  C   UNL     1      46.136   7.033  12.219  0.00  0.00    +0.000 A 
ATOM      4  C   UNL     1      46.531   5.804  12.768  0.00  0.00    +0.000 A 
ATOM      5  N   UNL     1      45.869   4.629  12.591  0.00  0.00    +0.000 NA
ATOM      6  C   UNL     1      44.743   4.730  11.846  0.00  0.00    +0.000 A 
ATOM      7  C   UNL     1      44.320   5.940  11.311  0.00  0.00    +0.000 A 
ATOM      8  N   UNL     1      45.010   7.106  11.478  0.00  0.00    +0.000 NA
ATOM      9  H   UNL     1      46.453   8.912  11.759  0.00  0.00    +0.000 HD
BRANCH   6  10
ATOM     10  C   UNL     1      43.958   3.482  11.618  0.00  0.00    +0.000 C 
ATOM     11  N   UNL     1      43.919   2.596  12.657  0.00  0.00    +0.000 N 
ATOM     12  O   UNL     1      43.385   3.267  10.556  0.00  0.00    +0.000 OA
ATOM     13  H   UNL     1      44.399   2.793  13.520  0.00  0.00    +0.000 HD
ATOM     14  H   UNL     1      43.396   1.732  12.550  0.00  0.00    +0.000 HD
ENDBRANCH   6  10
ENDBRANCH   1   2
BRANCH   1  15
ATOM     15  C   UNL     1      48.792   9.106  13.662  0.00  0.00    +0.000 C 
BRANCH  15  20
ATOM     16  C   UNL     1      49.166   6.504  16.409  0.00  0.00    +0.000 A 
ATOM     17  C   UNL     1      48.858   7.257  17.542  0.00  0.00    +0.000 A 
ATOM     18  C   UNL     1      48.377   8.557  17.404  0.00  0.00    +0.000 A 
ATOM     19  C   UNL     1      48.267   9.130  16.137  0.00  0.00    +0.000 A 
ATOM     20  C   UNL     1      48.667   8.412  15.001  0.00  0.00    +0.000 A 
ATOM     21  C   UNL     1      49.096   7.082  15.145  0.00  0.00    +0.000 A 
BRANCH  16  22
ATOM     22  O   UNL     1      49.532   5.204  16.640  0.00  0.00    +0.000 OA
BRANCH  22  27
ATOM     23  C   UNL     1      50.187   2.123  17.043  0.00  0.00    +0.000 C 
ATOM     24  C   UNL     1      48.797   2.720  16.988  0.00  0.00    +0.000 C 
ATOM     25  O   UNL     1      48.235   2.629  15.646  0.00  0.00    +0.000 OA
ATOM     26  C   UNL     1      47.544   3.889  15.867  0.00  0.00    +0.000 C 
ATOM     27  C   UNL     1      48.509   4.249  17.017  0.00  0.00    +0.000 C 
ENDBRANCH  22  27
ENDBRANCH  16  22
ENDBRANCH  15  20
ENDBRANCH   1  15
TORSDOF 6
ENDMDL
MODEL 7
REMARK VINA RESULT:    -6.401      4.162      7.642
REMARK INTER + INTRA:          -9.388
REMARK INTER:                  -8.776
REMARK INTRA:                  -0.612
REMARK UNBOUND:                -0.742
REMARK  Name = 
REMARK  7 active torsions:
REMARK  status: ('A' for Active; 'I' for Inactive)
REMARK    1  A    between atoms: C_1  and  C_2
REMARK    2  A    between atoms: C_5  and  O_6
REMARK    3  A    between atoms: O_6  and  C_7
REMARK    4  A    between atoms: C_11  and  C_12
REMARK    5  A    between atoms: C_12  and  C_13
REMARK    6  A    between atoms: C_13  and  N_14
REMARK    7  A    between atoms: C_18  and  C_19
REMARK                            x       y       z     vdW  Elec       q    Type
REMARK                         _______ _______ _______ _____ _____    ______ ____
ROOT
ATOM      1  C   UNL     1      48.756   8.509  14.104  0.00  0.00    +0.000 C 
ENDROOT
BRANCH   1   2
ATOM      2  N   UNL     1      49.658   7.790  14.990  0.00  0.00    +0.000 N 
ATOM      3  C   UNL     1      49.124   6.702  15.682  0.00  0.00    +0.000 A 
ATOM      4  C   UNL     1      48.126   5.860  15.170  0.00  0.00    +0.000 A 
ATOM      5  N   UNL     1      47.615   4.782  15.821  0.00  0.00    +0.000 NA
ATOM      6  C   UNL     1      48.173   4.544  17.031  0.00  0.00    +0.000 A 
ATOM      7  C   UNL     1      49.178   5.352  17.549  0.00  0.00    +0.000 A 
ATOM      8  N   UNL     1      49.662   6.446  16.892  0.00  0.00    +0.000 NA
ATOM      9  H   UNL     1      50.189   8.348  15.656  0.00  0.00    +0.000 HD
BRANCH   6  10
ATOM     10  C   UNL     1      47.669   3.370  17.801  0.00  0.00    +0.000 C 
ATOM     11  N   UNL     1      48.419   2.989  18.877  0.00  0.00    +0.000 N 
ATOM     12  O   UNL     1      46.642   2.782  17.481  0.00  0.00    +0.000 OA
ATOM     13  H   UNL     1      49.261   3.486  19.121  0.00  0.00    +0.000 HD
ATOM     14  H   UNL     1      48.116   2.195  19.434  0.00  0.00    +0.000 HD
ENDBRANCH   6  10
ENDBRANCH   1   2
BRANCH   1  15
ATOM     15  C   UNL     1      48.827   8.014  12.653  0.00  0.00    +0.000 C 
BRANCH  15  20
ATOM     16  C   UNL     1      45.602   6.549  11.270  0.00  0.00    +0.000 A 
ATOM     17  C   UNL     1      44.698   7.575  11.544  0.00  0.00    +0.000 A 
ATOM     18  C   UNL     1      45.157   8.797  12.029  0.00  0.00    +0.000 A 
ATOM     19  C   UNL     1      46.512   8.974  12.303  0.00  0.00    +0.000 A 
ATOM     20  C   UNL     1      47.413   7.916  12.121  0.00  0.00    +0.000 A 
ATOM     21  C   UNL     1      46.951   6.706  11.579  0.00  0.00    +0.000 A 
BRANCH  16  22
ATOM     22  O   UNL     1      45.071   5.422  10.701  0.00  0.00    +0.000 OA
BRANCH  22  27
ATOM     23  C   UNL     1      44.703   2.524   9.455  0.00  0.00    +0.000 C 
ATOM     24  C   UNL     1      44.455   2.890  10.903  0.00  0.00    +0.000 C 
ATOM     25  O   UNL     1      43.047   3.184  11.140  0.00  0.00    +0.000 OA
ATOM     26  C   UNL     1      43.437   4.173  12.131  0.00  0.00    +0.000 C 
ATOM     27  C   UNL     1      44.858   4.255  11.532  0.00  0.00    +0.000 C 
ENDBRANCH  22  27
ENDBRANCH  16  22
ENDBRANCH  15  20
ENDBRANCH   1  15
TORSDOF 6
ENDMDL
MODEL 8
REMARK VINA RESULT:    -6.327      3.250      5.614
REMARK INTER + INTRA:          -9.288
REMARK INTER:                  -8.641
REMARK INTRA:                  -0.647
REMARK UNBOUND:                -0.742
REMARK  Name = 
REMARK  7 active torsions:
REMARK  status: ('A' for Active; 'I' for Inactive)
REMARK    1  A    between atoms: C_1  and  C_2
REMARK    2  A    between atoms: C_5  and  O_6
REMARK    3  A    between atoms: O_6  and  C_7
REMARK    4  A    between atoms: C_11  and  C_12
REMARK    5  A    between atoms: C_12  and  C_13
REMARK    6  A    between atoms: C_13  and  N_14
REMARK    7  A    between atoms: C_18  and  C_19
REMARK                            x       y       z     vdW  Elec       q    Type
REMARK                         _______ _______ _______ _____ _____    ______ ____
ROOT
ATOM      1  C   UNL     1      48.412   6.504  14.365  0.00  0.00    +0.000 C 
ENDROOT
BRANCH   1   2
ATOM      2  N   UNL     1      47.093   6.868  13.873  0.00  0.00    +0.000 N 
ATOM      3  C   UNL     1      46.383   5.879  13.190  0.00  0.00    +0.000 A 
ATOM      4  C   UNL     1      46.463   4.511  13.486  0.00  0.00    +0.000 A 
ATOM      5  N   UNL     1      45.758   3.539  12.847  0.00  0.00    +0.000 NA
ATOM      6  C   UNL     1      44.918   3.997  11.890  0.00  0.00    +0.000 A 
ATOM      7  C   UNL     1      44.805   5.350  11.595  0.00  0.00    +0.000 A 
ATOM      8  N   UNL     1      45.539   6.311  12.230  0.00  0.00    +0.000 NA
ATOM      9  H   UNL     1      47.026   7.727  13.329  0.00  0.00    +0.000 HD
BRANCH   6  10
ATOM     10  C   UNL     1      44.102   2.989  11.152  0.00  0.00    +0.000 C 
ATOM     11  N   UNL     1      44.717   2.370  10.101  0.00  0.00    +0.000 N 
ATOM     12  O   UNL     1      42.947   2.736  11.473  0.00  0.00    +0.000 OA
ATOM     13  H   UNL     1      45.668   2.595   9.855  0.00  0.00    +0.000 HD
ATOM     14  H   UNL     1      44.204   1.674   9.569  0.00  0.00    +0.000 HD
ENDBRANCH   6  10
ENDBRANCH   1   2
BRANCH   1  15
ATOM     15  C   UNL     1      48.610   6.847  15.848  0.00  0.00    +0.000 C 
BRANCH  15  20
ATOM     16  C   UNL     1      49.967   4.216  18.233  0.00  0.00    +0.000 A 
ATOM     17  C   UNL     1      48.857   3.383  18.379  0.00  0.00    +0.000 A 
ATOM     18  C   UNL     1      47.728   3.582  17.588  0.00  0.00    +0.000 A 
ATOM     19  C   UNL     1      47.681   4.653  16.697  0.00  0.00    +0.000 A 
ATOM     20  C   UNL     1      48.754   5.551  16.614  0.00  0.00    +0.000 A 
ATOM     21  C   UNL     1      49.911   5.310  17.374  0.00  0.00    +0.000 A 
BRANCH  16  22
ATOM     22  O   UNL     1      51.066   3.880  18.978  0.00  0.00    +0.000 OA
BRANCH  22  27
ATOM     23  C   UNL     1      51.726   1.097  17.599  0.00  0.00    +0.000 C 
ATOM     24  C   UNL     1      52.721   2.215  17.830  0.00  0.00    +0.000 C 
ATOM     25  O   UNL     1      53.472   2.008  19.062  0.00  0.00    +0.000 OA
ATOM     26  C   UNL     1      53.518   3.448  19.255  0.00  0.00    +0.000 C 
ATOM     27  C   UNL     1      52.323   3.644  18.298  0.00  0.00    +0.000 C 
ENDBRANCH  22  27
ENDBRANCH  16  22
ENDBRANCH  15  20
ENDBRANCH   1  15
TORSDOF 6
ENDMDL
MODEL 9
REMARK VINA RESULT:    -6.318      3.493      8.035
REMARK INTER + INTRA:          -9.276
REMARK INTER:                  -8.725
REMARK INTRA:                  -0.551
REMARK UNBOUND:                -0.742
REMARK  Name = 
REMARK  7 active torsions:
REMARK  status: ('A' for Active; 'I' for Inactive)
REMARK    1  A    between atoms: C_1  and  C_2
REMARK    2  A    between atoms: C_5  and  O_6
REMARK    3  A    between atoms: O_6  and  C_7
REMARK    4  A    between atoms: C_11  and  C_12
REMARK    5  A    between atoms: C_12  and  C_13
REMARK    6  A    between atoms: C_13  and  N_14
REMARK    7  A    between atoms: C_18  and  C_19
REMARK                            x       y       z     vdW  Elec       q    Type
REMARK                         _______ _______ _______ _____ _____    ______ ____
ROOT
ATOM      1  C   UNL     1      46.105   6.487  12.207  0.00  0.00    +0.000 C 
ENDROOT
BRANCH   1   2
ATOM      2  N   UNL     1      47.533   6.763  12.210  0.00  0.00    +0.000 N 
ATOM      3  C   UNL     1      48.183   6.696  13.443  0.00  0.00    +0.000 A 
ATOM      4  C   UNL     1      47.830   5.807  14.468  0.00  0.00    +0.000 A 
ATOM      5  N   UNL     1      48.470   5.711  15.664  0.00  0.00    +0.000 NA
ATOM      6  C   UNL     1      49.532   6.539  15.796  0.00  0.00    +0.000 A 
ATOM      7  C   UNL     1      49.915   7.413  14.785  0.00  0.00    +0.000 A 
ATOM      8  N   UNL     1      49.245   7.513  13.600  0.00  0.00    +0.000 NA
ATOM      9  H   UNL     1      47.836   7.620  11.748  0.00  0.00    +0.000 HD
BRANCH   6  10
ATOM     10  C   UNL     1      50.292   6.483  17.079  0.00  0.00    +0.000 C 
ATOM     11  N   UNL     1      50.680   7.683  17.601  0.00  0.00    +0.000 N 
ATOM     12  O   UNL     1      50.552   5.418  17.626  0.00  0.00    +0.000 OA
ATOM     13  H   UNL     1      50.456   8.547  17.133  0.00  0.00    +0.000 HD
ATOM     14  H   UNL     1      51.199   7.697  18.475  0.00  0.00    +0.000 HD
ENDBRANCH   6  10
ENDBRANCH   1   2
BRANCH   1  15
ATOM     15  C   UNL     1      45.495   6.519  10.800  0.00  0.00    +0.000 C 
BRANCH  15  20
ATOM     16  C   UNL     1      44.875   3.089   9.282  0.00  0.00    +0.000 A 
ATOM     17  C   UNL     1      44.063   2.504  10.254  0.00  0.00    +0.000 A 
ATOM     18  C   UNL     1      43.589   3.268  11.318  0.00  0.00    +0.000 A 
ATOM     19  C   UNL     1      43.979   4.600  11.448  0.00  0.00    +0.000 A 
ATOM     20  C   UNL     1      44.871   5.168  10.527  0.00  0.00    +0.000 A 
ATOM     21  C   UNL     1      45.299   4.407   9.427  0.00  0.00    +0.000 A 
BRANCH  16  22
ATOM     22  O   UNL     1      45.206   2.288   8.221  0.00  0.00    +0.000 OA
BRANCH  22  27
ATOM     23  C   UNL     1      46.913   3.020   5.645  0.00  0.00    +0.000 C 
ATOM     24  C   UNL     1      47.328   2.034   6.717  0.00  0.00    +0.000 C 
ATOM     25  O   UNL     1      46.980   0.669   6.342  0.00  0.00    +0.000 OA
ATOM     26  C   UNL     1      46.737   0.364   7.742  0.00  0.00    +0.000 C 
ATOM     27  C   UNL     1      46.583   1.864   8.072  0.00  0.00    +0.000 C 
ENDBRANCH  22  27
ENDBRANCH  16  22
ENDBRANCH  15  20
ENDBRANCH   1  15
TORSDOF 6
ENDMDL
