MODEL 1
REMARK VINA RESULT:    -8.140      0.000      0.000
REMARK INTER + INTRA:         -11.684
REMARK INTER:                 -10.757
REMARK INTRA:                  -0.927
REMARK UNBOUND:                -0.927
REMARK  Name = 
REMARK  7 active torsions:
REMARK  status: ('A' for Active; 'I' for Inactive)
REMARK    1  A    between atoms: C_1  and  C_2
REMARK    2  A    between atoms: C_7  and  N_8
REMARK    3  A    between atoms: N_8  and  C_9
REMARK    4  A    between atoms: C_9  and  C_10
REMARK    5  A    between atoms: C_15  and  C_16
REMARK    6  A    between atoms: C_20  and  C_21
REMARK    7  A    between atoms: C_21  and  O_22
REMARK                            x       y       z     vdW  Elec       q    Type
REMARK                         _______ _______ _______ _____ _____    ______ ____
ROOT
ATOM      1  C   UNL     1      45.378   5.387  10.630  0.00  0.00    +0.000 A 
ATOM      2  C   UNL     1      44.011   5.342  10.900  0.00  0.00    +0.000 A 
ATOM      3  C   UNL     1      43.570   5.251  12.213  0.00  0.00    +0.000 A 
ATOM      4  F   UNL     1      42.253   5.242  12.463  0.00  0.00    +0.000 F 
ATOM      5  C   UNL     1      44.465   5.187  13.278  0.00  0.00    +0.000 A 
ATOM      6  C   UNL     1      45.849   5.225  13.053  0.00  0.00    +0.000 A 
ATOM      7  C   UNL     1      46.282   5.317  11.714  0.00  0.00    +0.000 A 
ENDROOT
BRANCH   6   8
ATOM      8  C   UNL     1      46.819   5.195  14.169  0.00  0.00    +0.000 A 
ATOM      9  C   UNL     1      47.792   6.184  14.338  0.00  0.00    +0.000 A 
ATOM     10  N   UNL     1      48.690   6.237  15.352  0.00  0.00    +0.000 NA
ATOM     11  C   UNL     1      48.630   5.245  16.264  0.00  0.00    +0.000 A 
ATOM     12  C   UNL     1      47.711   4.206  16.223  0.00  0.00    +0.000 A 
ATOM     13  C   UNL     1      46.814   4.184  15.146  0.00  0.00    +0.000 A 
BRANCH  12  14
ATOM     14  C   UNL     1      47.749   3.126  17.264  0.00  0.00    +0.000 C 
BRANCH  14  15
ATOM     15  O   UNL     1      46.445   2.784  17.715  0.00  0.00    +0.000 OA
ATOM     16  H   UNL     1      46.511   2.617  18.671  0.00  0.00    +0.000 HD
ENDBRANCH  14  15
ENDBRANCH  12  14
ENDBRANCH   6   8
BRANCH   1  17
ATOM     17  C   UNL     1      45.892   5.546   9.216  0.00  0.00    +0.000 C 
BRANCH  17  18
ATOM     18  N   UNL     1      45.272   4.572   8.329  0.00  0.00    +0.000 N 
ATOM     19  H   UNL     1      45.001   5.009   7.449  0.00  0.00    +0.000 HD
BRANCH  18  26
ATOM     20  C   UNL     1      44.388   1.861   9.595  0.00  0.00    +0.000 C 
ATOM     21  C   UNL     1      45.505   2.069   8.620  0.00  0.00    +0.000 A 
ATOM     22  N   UNL     1      46.112   0.897   8.266  0.00  0.00    +0.000 NA
ATOM     23  C   UNL     1      47.098   0.935   7.355  0.00  0.00    +0.000 A 
ATOM     24  C   UNL     1      47.535   2.100   6.767  0.00  0.00    +0.000 A 
ATOM     25  C   UNL     1      46.912   3.292   7.136  0.00  0.00    +0.000 A 
ATOM     26  C   UNL     1      45.885   3.325   8.101  0.00  0.00    +0.000 A 
ENDBRANCH  18  26
ENDBRANCH  17  18
ENDBRANCH   1  17
TORSDOF 6
ENDMDL
MODEL 2
REMARK VINA RESULT:    -7.909      2.956      7.199
REMARK INTER + INTRA:         -11.379
REMARK INTER:                 -10.429
REMARK INTRA:                  -0.950
REMARK UNBOUND:                -0.927
REMARK  Name = 
REMARK  7 active torsions:
REMARK  status: ('A' for Active; 'I' for Inactive)
REMARK    1  A    between atoms: C_1  and  C_2
REMARK    2  A    between atoms: C_7  and  N_8
REMARK    3  A    between atoms: N_8  and  C_9
REMARK    4  A    between atoms: C_9  and  C_10
REMARK    5  A    between atoms: C_15  and  C_16
REMARK    6  A    between atoms: C_20  and  C_21
REMARK    7  A    between atoms: C_21  and  O_22
REMARK                            x       y       z     vdW  Elec       q    Type
REMARK                         _______ _______ _______ _____ _____    ______ ____
ROOT
ATOM      1  C   UNL     1      45.331   6.416  11.207  0.00  0.00    +0.000 A 
ATOM      2  C   UNL     1      43.981   6.388  11.554  0.00  0.00    +0.000 A 
ATOM      3  C   UNL     1      43.161   5.389  11.049  0.00  0.00    +0.000 A 
ATOM      4  F   UNL     1      41.872   5.351  11.416  0.00  0.00    +0.000 F 
ATOM      5  C   UNL     1      43.650   4.413  10.184  0.00  0.00    +0.000 A 
ATOM      6  C   UNL     1      45.000   4.406   9.804  0.00  0.00    +0.000 A 
ATOM      7  C   UNL     1      45.822   5.427  10.325  0.00  0.00    +0.000 A 
ENDROOT
BRANCH   6   8
ATOM      8  C   UNL     1      45.552   3.360   8.916  0.00  0.00    +0.000 A 
ATOM      9  C   UNL     1      45.405   1.997   9.188  0.00  0.00    +0.000 A 
ATOM     10  N   UNL     1      45.856   0.987   8.404  0.00  0.00    +0.000 NA
ATOM     11  C   UNL     1      46.500   1.341   7.274  0.00  0.00    +0.000 A 
ATOM     12  C   UNL     1      46.710   2.655   6.878  0.00  0.00    +0.000 A 
ATOM     13  C   UNL     1      46.241   3.665   7.729  0.00  0.00    +0.000 A 
BRANCH  12  14
ATOM     14  C   UNL     1      47.474   2.949   5.620  0.00  0.00    +0.000 C 
BRANCH  14  15
ATOM     15  O   UNL     1      48.463   1.960   5.363  0.00  0.00    +0.000 OA
ATOM     16  H   UNL     1      48.023   1.095   5.430  0.00  0.00    +0.000 HD
ENDBRANCH  14  15
ENDBRANCH  12  14
ENDBRANCH   6   8
BRANCH   1  17
ATOM     17  C   UNL     1      46.267   7.455  11.786  0.00  0.00    +0.000 C 
BRANCH  17  18
ATOM     18  N   UNL     1      47.538   6.852  12.163  0.00  0.00    +0.000 N 
ATOM     19  H   UNL     1      48.314   7.358  11.740  0.00  0.00    +0.000 HD
BRANCH  18  26
ATOM     20  C   UNL     1      46.744   4.211  13.623  0.00  0.00    +0.000 C 
ATOM     21  C   UNL     1      47.505   5.361  14.207  0.00  0.00    +0.000 A 
ATOM     22  N   UNL     1      47.894   5.126  15.496  0.00  0.00    +0.000 NA
ATOM     23  C   UNL     1      48.633   6.057  16.123  0.00  0.00    +0.000 A 
ATOM     24  C   UNL     1      49.009   7.242  15.532  0.00  0.00    +0.000 A 
ATOM     25  C   UNL     1      48.605   7.475  14.218  0.00  0.00    +0.000 A 
ATOM     26  C   UNL     1      47.811   6.549  13.511  0.00  0.00    +0.000 A 
ENDBRANCH  18  26
ENDBRANCH  17  18
ENDBRANCH   1  17
TORSDOF 6
ENDMDL
MODEL 3
REMARK VINA RESULT:    -7.807      2.853      6.721
REMARK INTER + INTRA:         -11.245
REMARK INTER:                 -10.052
REMARK INTRA:                  -1.193
REMARK UNBOUND:                -0.927
REMARK  Name = 
REMARK  7 active torsions:
REMARK  status: ('A' for Active; 'I' for Inactive)
REMARK    1  A    between atoms: C_1  and  C_2
REMARK    2  A    between atoms: C_7  and  N_8
REMARK    3  A    between atoms: N_8  and  C_9
REMARK    4  A    between atoms: C_9  and  C_10
REMARK    5  A    between atoms: C_15  and  C_16
REMARK    6  A    between atoms: C_20  and  C_21
REMARK    7  A    between atoms: C_21  and  O_22
REMARK                            x       y       z     vdW  Elec       q    Type
REMARK                         _______ _______ _______ _____ _____    ______ ____
ROOT
ATOM      1  C   UNL     1      44.134   5.455  11.450  0.00  0.00    +0.000 A 
ATOM      2  C   UNL     1      43.554   4.474  12.252  0.00  0.00    +0.000 A 
ATOM      3  C   UNL     1      43.646   3.139  11.883  0.00  0.00    +0.000 A 
ATOM      4  F   UNL     1      43.114   2.200  12.679  0.00  0.00    +0.000 F 
ATOM      5  C   UNL     1      44.296   2.750  10.714  0.00  0.00    +0.000 A 
ATOM      6  C   UNL     1      44.890   3.705   9.875  0.00  0.00    +0.000 A 
ATOM      7  C   UNL     1      44.788   5.057  10.263  0.00  0.00    +0.000 A 
ENDROOT
BRANCH   6   8
ATOM      8  C   UNL     1      45.616   3.315   8.646  0.00  0.00    +0.000 A 
ATOM      9  C   UNL     1      46.010   4.249   7.685  0.00  0.00    +0.000 A 
ATOM     10  N   UNL     1      46.704   3.968   6.555  0.00  0.00    +0.000 NA
ATOM     11  C   UNL     1      47.031   2.675   6.353  0.00  0.00    +0.000 A 
ATOM     12  C   UNL     1      46.711   1.646   7.228  0.00  0.00    +0.000 A 
ATOM     13  C   UNL     1      45.977   1.984   8.375  0.00  0.00    +0.000 A 
BRANCH  12  14
ATOM     14  C   UNL     1      47.085   0.232   6.897  0.00  0.00    +0.000 C 
BRANCH  14  15
ATOM     15  O   UNL     1      46.731  -0.665   7.942  0.00  0.00    +0.000 OA
ATOM     16  H   UNL     1      46.523  -0.122   8.722  0.00  0.00    +0.000 HD
ENDBRANCH  14  15
ENDBRANCH  12  14
ENDBRANCH   6   8
BRANCH   1  17
ATOM     17  C   UNL     1      44.104   6.914  11.853  0.00  0.00    +0.000 C 
BRANCH  17  18
ATOM     18  N   UNL     1      44.922   7.139  13.037  0.00  0.00    +0.000 N 
ATOM     19  H   UNL     1      44.571   6.593  13.823  0.00  0.00    +0.000 HD
BRANCH  18  26
ATOM     20  C   UNL     1      46.670   4.794  14.123  0.00  0.00    +0.000 C 
ATOM     21  C   UNL     1      47.158   6.013  13.402  0.00  0.00    +0.000 A 
ATOM     22  N   UNL     1      48.509   5.990  13.199  0.00  0.00    +0.000 NA
ATOM     23  C   UNL     1      49.072   7.001  12.514  0.00  0.00    +0.000 A 
ATOM     24  C   UNL     1      48.352   8.064  12.017  0.00  0.00    +0.000 A 
ATOM     25  C   UNL     1      46.975   8.080  12.232  0.00  0.00    +0.000 A 
ATOM     26  C   UNL     1      46.326   7.062  12.959  0.00  0.00    +0.000 A 
ENDBRANCH  18  26
ENDBRANCH  17  18
ENDBRANCH   1  17
TORSDOF 6
ENDMDL
MODEL 4
REMARK VINA RESULT:    -7.368      3.192      7.434
REMARK INTER + INTRA:         -10.665
REMARK INTER:                  -9.938
REMARK INTRA:                  -0.727
REMARK UNBOUND:                -0.927
REMARK  Name = 
REMARK  7 active torsions:
REMARK  status: ('A' for Active; 'I' for Inactive)
REMARK    1  A    between atoms: C_1  and  C_2
REMARK    2  A    between atoms: C_7  and  N_8
REMARK    3  A    between atoms: N_8  and  C_9
REMARK    4  A    between atoms: C_9  and  C_10
REMARK    5  A    between atoms: C_15  and  C_16
REMARK    6  A    between atoms: C_20  and  C_21
REMARK    7  A    between atoms: C_21  and  O_22
REMARK                            x       y       z     vdW  Elec       q    Type
REMARK                         _______ _______ _______ _____ _____    ______ ____
ROOT
ATOM      1  C   UNL     1      45.318   6.446  11.196  0.00  0.00    +0.000 A 
ATOM      2  C   UNL     1      43.969   6.415  11.550  0.00  0.00    +0.000 A 
ATOM      3  C   UNL     1      43.151   5.408  11.057  0.00  0.00    +0.000 A 
ATOM      4  F   UNL     1      41.863   5.369  11.430  0.00  0.00    +0.000 F 
ATOM      5  C   UNL     1      43.640   4.427  10.198  0.00  0.00    +0.000 A 
ATOM      6  C   UNL     1      44.989   4.423   9.812  0.00  0.00    +0.000 A 
ATOM      7  C   UNL     1      45.809   5.452  10.321  0.00  0.00    +0.000 A 
ENDROOT
BRANCH   6   8
ATOM      8  C   UNL     1      45.540   3.371   8.929  0.00  0.00    +0.000 A 
ATOM      9  C   UNL     1      45.428   2.011   9.230  0.00  0.00    +0.000 A 
ATOM     10  N   UNL     1      45.880   0.996   8.454  0.00  0.00    +0.000 NA
ATOM     11  C   UNL     1      46.490   1.341   7.303  0.00  0.00    +0.000 A 
ATOM     12  C   UNL     1      46.664   2.652   6.877  0.00  0.00    +0.000 A 
ATOM     13  C   UNL     1      46.195   3.668   7.721  0.00  0.00    +0.000 A 
BRANCH  12  14
ATOM     14  C   UNL     1      47.392   2.937   5.596  0.00  0.00    +0.000 C 
BRANCH  14  15
ATOM     15  O   UNL     1      48.428   1.993   5.359  0.00  0.00    +0.000 OA
ATOM     16  H   UNL     1      48.025   1.241   4.892  0.00  0.00    +0.000 HD
ENDBRANCH  14  15
ENDBRANCH  12  14
ENDBRANCH   6   8
BRANCH   1  17
ATOM     17  C   UNL     1      46.252   7.493  11.762  0.00  0.00    +0.000 C 
BRANCH  17  18
ATOM     18  N   UNL     1      47.640   7.075  11.625  0.00  0.00    +0.000 N 
ATOM     19  H   UNL     1      48.057   7.487  10.791  0.00  0.00    +0.000 HD
BRANCH  18  26
ATOM     20  C   UNL     1      50.413   8.505  11.614  0.00  0.00    +0.000 C 
ATOM     21  C   UNL     1      49.766   7.819  12.778  0.00  0.00    +0.000 A 
ATOM     22  N   UNL     1      50.509   7.920  13.920  0.00  0.00    +0.000 NA
ATOM     23  C   UNL     1      50.018   7.393  15.054  0.00  0.00    +0.000 A 
ATOM     24  C   UNL     1      48.804   6.746  15.118  0.00  0.00    +0.000 A 
ATOM     25  C   UNL     1      48.054   6.645  13.947  0.00  0.00    +0.000 A 
ATOM     26  C   UNL     1      48.521   7.158  12.720  0.00  0.00    +0.000 A 
ENDBRANCH  18  26
ENDBRANCH  17  18
ENDBRANCH   1  17
TORSDOF 6
ENDMDL
MODEL 5
REMARK VINA RESULT:    -7.281      3.339      4.527
REMARK INTER + INTRA:         -10.549
REMARK INTER:                  -9.832
REMARK INTRA:                  -0.717
REMARK UNBOUND:                -0.927
REMARK  Name = 
REMARK  7 active torsions:
REMARK  status: ('A' for Active; 'I' for Inactive)
REMARK    1  A    between atoms: C_1  and  C_2
REMARK    2  A    between atoms: C_7  and  N_8
REMARK    3  A    between atoms: N_8  and  C_9
REMARK    4  A    between atoms: C_9  and  C_10
REMARK    5  A    between atoms: C_15  and  C_16
REMARK    6  A    between atoms: C_20  and  C_21
REMARK    7  A    between atoms: C_21  and  O_22
REMARK                            x       y       z     vdW  Elec       q    Type
REMARK                         _______ _______ _______ _____ _____    ______ ____
ROOT
ATOM      1  C   UNL     1      45.088   3.745  11.171  0.00  0.00    +0.000 A 
ATOM      2  C   UNL     1      45.681   3.046  12.222  0.00  0.00    +0.000 A 
ATOM      3  C   UNL     1      46.386   3.738  13.197  0.00  0.00    +0.000 A 
ATOM      4  F   UNL     1      46.924   3.060  14.221  0.00  0.00    +0.000 F 
ATOM      5  C   UNL     1      46.532   5.122  13.146  0.00  0.00    +0.000 A 
ATOM      6  C   UNL     1      45.955   5.864  12.104  0.00  0.00    +0.000 A 
ATOM      7  C   UNL     1      45.242   5.148  11.120  0.00  0.00    +0.000 A 
ENDROOT
BRANCH   6   8
ATOM      8  C   UNL     1      46.065   7.338  12.047  0.00  0.00    +0.000 A 
ATOM      9  C   UNL     1      47.253   8.009  12.353  0.00  0.00    +0.000 A 
ATOM     10  N   UNL     1      47.433   9.351  12.292  0.00  0.00    +0.000 NA
ATOM     11  C   UNL     1      46.372  10.087  11.906  0.00  0.00    +0.000 A 
ATOM     12  C   UNL     1      45.137   9.551  11.566  0.00  0.00    +0.000 A 
ATOM     13  C   UNL     1      44.992   8.160  11.662  0.00  0.00    +0.000 A 
BRANCH  12  14
ATOM     14  C   UNL     1      44.002  10.457  11.186  0.00  0.00    +0.000 C 
BRANCH  14  15
ATOM     15  O   UNL     1      42.997  10.490  12.191  0.00  0.00    +0.000 OA
ATOM     16  H   UNL     1      42.234   9.995  11.845  0.00  0.00    +0.000 HD
ENDBRANCH  14  15
ENDBRANCH  12  14
ENDBRANCH   6   8
BRANCH   1  17
ATOM     17  C   UNL     1      44.262   3.029  10.124  0.00  0.00    +0.000 C 
BRANCH  17  18
ATOM     18  N   UNL     1      45.029   1.958   9.504  0.00  0.00    +0.000 N 
ATOM     19  H   UNL     1      44.442   1.139   9.349  0.00  0.00    +0.000 HD
BRANCH  18  26
ATOM     20  C   UNL     1      46.608  -0.182   7.873  0.00  0.00    +0.000 C 
ATOM     21  C   UNL     1      46.539   1.286   7.588  0.00  0.00    +0.000 A 
ATOM     22  N   UNL     1      47.223   1.628   6.455  0.00  0.00    +0.000 NA
ATOM     23  C   UNL     1      47.197   2.910   6.053  0.00  0.00    +0.000 A 
ATOM     24  C   UNL     1      46.523   3.898   6.734  0.00  0.00    +0.000 A 
ATOM     25  C   UNL     1      45.831   3.541   7.890  0.00  0.00    +0.000 A 
ATOM     26  C   UNL     1      45.834   2.218   8.377  0.00  0.00    +0.000 A 
ENDBRANCH  18  26
ENDBRANCH  17  18
ENDBRANCH   1  17
TORSDOF 6
ENDMDL
MODEL 6
REMARK VINA RESULT:    -7.079      2.955      7.558
REMARK INTER + INTRA:         -10.283
REMARK INTER:                  -9.496
REMARK INTRA:                  -0.787
REMARK UNBOUND:                -0.927
REMARK  Name = 
REMARK  7 active torsions:
REMARK  status: ('A' for Active; 'I' for Inactive)
REMARK    1  A    between atoms: C_1  and  C_2
REMARK    2  A    between atoms: C_7  and  N_8
REMARK    3  A    between atoms: N_8  and  C_9
REMARK    4  A    between atoms: C_9  and  C_10
REMARK    5  A    between atoms: C_15  and  C_16
REMARK    6  A    between atoms: C_20  and  C_21
REMARK    7  A    between atoms: C_21  and  O_22
REMARK                            x       y       z     vdW  Elec       q    Type
REMARK                         _______ _______ _______ _____ _____    ______ ____
ROOT
ATOM      1  C   UNL     1      47.375   7.157  13.313  0.00  0.00    +0.000 A 
ATOM      2  C   UNL     1      46.667   8.358  13.335  0.00  0.00    +0.000 A 
ATOM      3  C   UNL     1      45.525   8.498  12.558  0.00  0.00    +0.000 A 
ATOM      4  F   UNL     1      44.833   9.645  12.612  0.00  0.00    +0.000 F 
ATOM      5  C   UNL     1      45.071   7.468  11.738  0.00  0.00    +0.000 A 
ATOM      6  C   UNL     1      45.756   6.244  11.682  0.00  0.00    +0.000 A 
ATOM      7  C   UNL     1      46.914   6.116  12.477  0.00  0.00    +0.000 A 
ENDROOT
BRANCH   6   8
ATOM      8  C   UNL     1      45.274   5.122  10.847  0.00  0.00    +0.000 A 
ATOM      9  C   UNL     1      44.310   4.217  11.300  0.00  0.00    +0.000 A 
ATOM     10  N   UNL     1      43.800   3.188  10.579  0.00  0.00    +0.000 NA
ATOM     11  C   UNL     1      44.275   3.034   9.327  0.00  0.00    +0.000 A 
ATOM     12  C   UNL     1      45.226   3.864   8.748  0.00  0.00    +0.000 A 
ATOM     13  C   UNL     1      45.736   4.904   9.538  0.00  0.00    +0.000 A 
BRANCH  12  14
ATOM     14  C   UNL     1      45.720   3.588   7.359  0.00  0.00    +0.000 C 
BRANCH  14  15
ATOM     15  O   UNL     1      46.876   4.356   7.050  0.00  0.00    +0.000 OA
ATOM     16  H   UNL     1      46.786   4.644   6.125  0.00  0.00    +0.000 HD
ENDBRANCH  14  15
ENDBRANCH  12  14
ENDBRANCH   6   8
BRANCH   1  17
ATOM     17  C   UNL     1      48.590   6.949  14.192  0.00  0.00    +0.000 C 
BRANCH  17  18
ATOM     18  N   UNL     1      48.194   6.753  15.580  0.00  0.00    +0.000 N 
ATOM     19  H   UNL     1      47.230   7.052  15.724  0.00  0.00    +0.000 HD
BRANCH  18  26
ATOM     20  C   UNL     1      50.635   6.134  17.422  0.00  0.00    +0.000 C 
ATOM     21  C   UNL     1      49.507   5.206  17.091  0.00  0.00    +0.000 A 
ATOM     22  N   UNL     1      49.611   4.009  17.743  0.00  0.00    +0.000 NA
ATOM     23  C   UNL     1      48.634   3.102  17.576  0.00  0.00    +0.000 A 
ATOM     24  C   UNL     1      47.537   3.316  16.773  0.00  0.00    +0.000 A 
ATOM     25  C   UNL     1      47.441   4.539  16.110  0.00  0.00    +0.000 A 
ATOM     26  C   UNL     1      48.441   5.526  16.225  0.00  0.00    +0.000 A 
ENDBRANCH  18  26
ENDBRANCH  17  18
ENDBRANCH   1  17
TORSDOF 6
ENDMDL
MODEL 7
REMARK VINA RESULT:    -7.037      3.293      4.142
REMARK INTER + INTRA:         -10.227
REMARK INTER:                  -9.597
REMARK INTRA:                  -0.630
REMARK UNBOUND:                -0.927
REMARK  Name = 
REMARK  7 active torsions:
REMARK  status: ('A' for Active; 'I' for Inactive)
REMARK    1  A    between atoms: C_1  and  C_2
REMARK    2  A    between atoms: C_7  and  N_8
REMARK    3  A    between atoms: N_8  and  C_9
REMARK    4  A    between atoms: C_9  and  C_10
REMARK    5  A    between atoms: C_15  and  C_16
REMARK    6  A    between atoms: C_20  and  C_21
REMARK    7  A    between atoms: C_21  and  O_22
REMARK                            x       y       z     vdW  Elec       q    Type
REMARK                         _______ _______ _______ _____ _____    ______ ____
ROOT
ATOM      1  C   UNL     1      45.080   5.004  11.247  0.00  0.00    +0.000 A 
ATOM      2  C   UNL     1      45.357   4.115  12.284  0.00  0.00    +0.000 A 
ATOM      3  C   UNL     1      46.373   4.404  13.185  0.00  0.00    +0.000 A 
ATOM      4  F   UNL     1      46.610   3.558  14.199  0.00  0.00    +0.000 F 
ATOM      5  C   UNL     1      47.140   5.560  13.072  0.00  0.00    +0.000 A 
ATOM      6  C   UNL     1      46.899   6.480  12.040  0.00  0.00    +0.000 A 
ATOM      7  C   UNL     1      45.864   6.174  11.133  0.00  0.00    +0.000 A 
ENDROOT
BRANCH   6   8
ATOM      8  C   UNL     1      47.676   7.733  11.919  0.00  0.00    +0.000 A 
ATOM      9  C   UNL     1      47.093   8.991  12.094  0.00  0.00    +0.000 A 
ATOM     10  N   UNL     1      47.749  10.176  12.030  0.00  0.00    +0.000 NA
ATOM     11  C   UNL     1      49.071  10.121  11.771  0.00  0.00    +0.000 A 
ATOM     12  C   UNL     1      49.778   8.941  11.583  0.00  0.00    +0.000 A 
ATOM     13  C   UNL     1      49.054   7.742  11.642  0.00  0.00    +0.000 A 
BRANCH  12  14
ATOM     14  C   UNL     1      51.243   8.985  11.260  0.00  0.00    +0.000 C 
BRANCH  14  15
ATOM     15  O   UNL     1      51.943   7.895  11.847  0.00  0.00    +0.000 OA
ATOM     16  H   UNL     1      52.709   7.710  11.276  0.00  0.00    +0.000 HD
ENDBRANCH  14  15
ENDBRANCH  12  14
ENDBRANCH   6   8
BRANCH   1  17
ATOM     17  C   UNL     1      43.941   4.751  10.283  0.00  0.00    +0.000 C 
BRANCH  17  18
ATOM     18  N   UNL     1      44.431   4.681   8.913  0.00  0.00    +0.000 N 
ATOM     19  H   UNL     1      44.783   5.588   8.611  0.00  0.00    +0.000 HD
BRANCH  18  26
ATOM     20  C   UNL     1      44.140   1.672   9.688  0.00  0.00    +0.000 C 
ATOM     21  C   UNL     1      45.199   2.272   8.814  0.00  0.00    +0.000 A 
ATOM     22  N   UNL     1      46.050   1.330   8.310  0.00  0.00    +0.000 NA
ATOM     23  C   UNL     1      47.018   1.727   7.465  0.00  0.00    +0.000 A 
ATOM     24  C   UNL     1      47.198   3.039   7.092  0.00  0.00    +0.000 A 
ATOM     25  C   UNL     1      46.326   3.993   7.614  0.00  0.00    +0.000 A 
ATOM     26  C   UNL     1      45.304   3.647   8.521  0.00  0.00    +0.000 A 
ENDBRANCH  18  26
ENDBRANCH  17  18
ENDBRANCH   1  17
TORSDOF 6
ENDMDL
MODEL 8
REMARK VINA RESULT:    -6.814      1.973      2.683
REMARK INTER + INTRA:          -9.932
REMARK INTER:                  -9.347
REMARK INTRA:                  -0.585
REMARK UNBOUND:                -0.927
REMARK  Name = 
REMARK  7 active torsions:
REMARK  status: ('A' for Active; 'I' for Inactive)
REMARK    1  A    between atoms: C_1  and  C_2
REMARK    2  A    between atoms: C_7  and  N_8
REMARK    3  A    between atoms: N_8  and  C_9
REMARK    4  A    between atoms: C_9  and  C_10
REMARK    5  A    between atoms: C_15  and  C_16
REMARK    6  A    between atoms: C_20  and  C_21
REMARK    7  A    between atoms: C_21  and  O_22
REMARK                            x       y       z     vdW  Elec       q    Type
REMARK                         _______ _______ _______ _____ _____    ______ ____
ROOT
ATOM      1  C   UNL     1      45.597   6.170  12.288  0.00  0.00    +0.000 A 
ATOM      2  C   UNL     1      46.341   7.002  11.453  0.00  0.00    +0.000 A 
ATOM      3  C   UNL     1      47.620   7.391  11.828  0.00  0.00    +0.000 A 
ATOM      4  F   UNL     1      48.339   8.164  11.002  0.00  0.00    +0.000 F 
ATOM      5  C   UNL     1      48.180   6.981  13.036  0.00  0.00    +0.000 A 
ATOM      6  C   UNL     1      47.465   6.147  13.909  0.00  0.00    +0.000 A 
ATOM      7  C   UNL     1      46.168   5.761  13.514  0.00  0.00    +0.000 A 
ENDROOT
BRANCH   6   8
ATOM      8  C   UNL     1      48.052   5.669  15.180  0.00  0.00    +0.000 A 
ATOM      9  C   UNL     1      49.021   6.399  15.875  0.00  0.00    +0.000 A 
ATOM     10  N   UNL     1      49.577   6.037  17.057  0.00  0.00    +0.000 NA
ATOM     11  C   UNL     1      49.154   4.875  17.593  0.00  0.00    +0.000 A 
ATOM     12  C   UNL     1      48.193   4.056  17.015  0.00  0.00    +0.000 A 
ATOM     13  C   UNL     1      47.660   4.462  15.785  0.00  0.00    +0.000 A 
BRANCH  12  14
ATOM     14  C   UNL     1      47.817   2.760  17.671  0.00  0.00    +0.000 C 
BRANCH  14  15
ATOM     15  O   UNL     1      46.405   2.606  17.758  0.00  0.00    +0.000 OA
ATOM     16  H   UNL     1      46.044   3.465  18.036  0.00  0.00    +0.000 HD
ENDBRANCH  14  15
ENDBRANCH  12  14
ENDBRANCH   6   8
BRANCH   1  17
ATOM     17  C   UNL     1      44.225   5.679  11.883  0.00  0.00    +0.000 C 
BRANCH  17  18
ATOM     18  N   UNL     1      44.147   5.498  10.440  0.00  0.00    +0.000 N 
ATOM     19  H   UNL     1      44.498   6.324   9.956  0.00  0.00    +0.000 HD
BRANCH  18  26
ATOM     20  C   UNL     1      43.455   2.591  11.337  0.00  0.00    +0.000 C 
ATOM     21  C   UNL     1      44.328   2.988  10.186  0.00  0.00    +0.000 A 
ATOM     22  N   UNL     1      44.784   1.907   9.484  0.00  0.00    +0.000 NA
ATOM     23  C   UNL     1      45.536   2.124   8.391  0.00  0.00    +0.000 A 
ATOM     24  C   UNL     1      45.878   3.382   7.951  0.00  0.00    +0.000 A 
ATOM     25  C   UNL     1      45.410   4.478   8.675  0.00  0.00    +0.000 A 
ATOM     26  C   UNL     1      44.635   4.321   9.842  0.00  0.00    +0.000 A 
ENDBRANCH  18  26
ENDBRANCH  17  18
ENDBRANCH   1  17
TORSDOF 6
ENDMDL
MODEL 9
REMARK VINA RESULT:    -6.724      2.658      4.011
REMARK INTER + INTRA:          -9.813
REMARK INTER:                  -8.942
REMARK INTRA:                  -0.871
REMARK UNBOUND:                -0.927
REMARK  Name = 
REMARK  7 active torsions:
REMARK  status: ('A' for Active; 'I' for Inactive)
REMARK    1  A    between atoms: C_1  and  C_2
REMARK    2  A    between atoms: C_7  and  N_8
REMARK    3  A    between atoms: N_8  and  C_9
REMARK    4  A    between atoms: C_9  and  C_10
REMARK    5  A    between atoms: C_15  and  C_16
REMARK    6  A    between atoms: C_20  and  C_21
REMARK    7  A    between atoms: C_21  and  O_22
REMARK                            x       y       z     vdW  Elec       q    Type
REMARK                         _______ _______ _______ _____ _____    ______ ____
ROOT
ATOM      1  C   UNL     1      46.694   7.294  12.284  0.00  0.00    +0.000 A 
ATOM      2  C   UNL     1      47.795   7.633  11.498  0.00  0.00    +0.000 A 
ATOM      3  C   UNL     1      49.077   7.491  12.010  0.00  0.00    +0.000 A 
ATOM      4  F   UNL     1      50.129   7.789  11.235  0.00  0.00    +0.000 F 
ATOM      5  C   UNL     1      49.296   7.030  13.306  0.00  0.00    +0.000 A 
ATOM      6  C   UNL     1      48.218   6.682  14.133  0.00  0.00    +0.000 A 
ATOM      7  C   UNL     1      46.921   6.831  13.599  0.00  0.00    +0.000 A 
ENDROOT
BRANCH   6   8
ATOM      8  C   UNL     1      48.425   6.156  15.501  0.00  0.00    +0.000 A 
ATOM      9  C   UNL     1      49.011   6.922  16.512  0.00  0.00    +0.000 A 
ATOM     10  N   UNL     1      49.203   6.516  17.792  0.00  0.00    +0.000 NA
ATOM     11  C   UNL     1      48.794   5.268  18.098  0.00  0.00    +0.000 A 
ATOM     12  C   UNL     1      48.190   4.404  17.194  0.00  0.00    +0.000 A 
ATOM     13  C   UNL     1      48.029   4.862  15.879  0.00  0.00    +0.000 A 
BRANCH  12  14
ATOM     14  C   UNL     1      47.804   3.018  17.620  0.00  0.00    +0.000 C 
BRANCH  14  15
ATOM     15  O   UNL     1      46.392   2.853  17.652  0.00  0.00    +0.000 OA
ATOM     16  H   UNL     1      46.090   3.169  18.521  0.00  0.00    +0.000 HD
ENDBRANCH  14  15
ENDBRANCH  12  14
ENDBRANCH   6   8
BRANCH   1  17
ATOM     17  C   UNL     1      45.286   7.379  11.736  0.00  0.00    +0.000 C 
BRANCH  17  18
ATOM     18  N   UNL     1      45.095   6.423  10.653  0.00  0.00    +0.000 N 
ATOM     19  H   UNL     1      45.961   6.296  10.131  0.00  0.00    +0.000 HD
BRANCH  18  26
ATOM     20  C   UNL     1      44.887   4.067   8.619  0.00  0.00    +0.000 C 
ATOM     21  C   UNL     1      44.378   4.080  10.027  0.00  0.00    +0.000 A 
ATOM     22  N   UNL     1      43.826   2.883  10.389  0.00  0.00    +0.000 NA
ATOM     23  C   UNL     1      43.376   2.740  11.648  0.00  0.00    +0.000 A 
ATOM     24  C   UNL     1      43.436   3.745  12.587  0.00  0.00    +0.000 A 
ATOM     25  C   UNL     1      43.998   4.962  12.206  0.00  0.00    +0.000 A 
ATOM     26  C   UNL     1      44.469   5.186  10.897  0.00  0.00    +0.000 A 
ENDBRANCH  18  26
ENDBRANCH  17  18
ENDBRANCH   1  17
TORSDOF 6
ENDMDL
