MODEL 1
REMARK VINA RESULT:    -8.559      0.000      0.000
REMARK INTER + INTRA:         -11.594
REMARK INTER:                 -11.060
REMARK INTRA:                  -0.533
REMARK UNBOUND:                -0.533
REMARK  Name = 
REMARK  5 active torsions:
REMARK  status: ('A' for Active; 'I' for Inactive)
REMARK    1  A    between atoms: C_2  and  C_4
REMARK    2  A    between atoms: C_7  and  O_8
REMARK    3  A    between atoms: O_8  and  C_9
REMARK    4  A    between atoms: C_9  and  C_10
REMARK    5  A    between atoms: C_14  and  C_15
REMARK                            x       y       z     vdW  Elec       q    Type
REMARK                         _______ _______ _______ _____ _____    ______ ____
ROOT
ATOM      1  C   UNL     1      43.808   4.741  11.369  0.00  0.00    +0.000 C 
ATOM      2  C   UNL     1      42.587   5.118  12.198  0.00  0.00    +0.000 C 
ATOM      3  C   UNL     1      43.016   5.999  11.068  0.00  0.00    +0.000 C 
ENDROOT
BRANCH   1   4
ATOM      4  C   UNL     1      45.152   4.802  12.106  0.00  0.00    +0.000 A 
ATOM      5  N   UNL     1      45.441   3.843  13.008  0.00  0.00    +0.000 NA
ATOM      6  C   UNL     1      46.592   3.971  13.691  0.00  0.00    +0.000 A 
ATOM      7  C   UNL     1      47.467   5.014  13.517  0.00  0.00    +0.000 A 
ATOM      8  C   UNL     1      47.135   5.936  12.546  0.00  0.00    +0.000 A 
ATOM      9  N   UNL     1      45.974   5.844  11.856  0.00  0.00    +0.000 NA
BRANCH   8  10
ATOM     10  C   UNL     1      48.037   7.137  12.261  0.00  0.00    +0.000 C 
ATOM     11  C   UNL     1      49.214   7.295  13.233  0.00  0.00    +0.000 C 
ATOM     12  C   UNL     1      48.737   7.734  14.612  0.00  0.00    +0.000 C 
ATOM     13  C   UNL     1      47.848   8.966  14.517  0.00  0.00    +0.000 C 
ATOM     14  C   UNL     1      46.810   8.867  13.408  0.00  0.00    +0.000 C 
ATOM     15  O   UNL     1      47.335   8.390  12.170  0.00  0.00    +0.000 OA
ENDBRANCH   8  10
ENDBRANCH   1   4
BRANCH   1  16
ATOM     16  O   UNL     1      43.557   3.624  10.476  0.00  0.00    +0.000 OA
BRANCH  16  20
ATOM     17  C   UNL     1      46.320   2.682   7.582  0.00  0.00    +0.000 A 
ATOM     18  C   UNL     1      45.850   1.695   8.438  0.00  0.00    +0.000 A 
ATOM     19  C   UNL     1      44.906   2.052   9.396  0.00  0.00    +0.000 A 
ATOM     20  C   UNL     1      44.453   3.369   9.472  0.00  0.00    +0.000 A 
ATOM     21  C   UNL     1      44.945   4.276   8.541  0.00  0.00    +0.000 A 
ATOM     22  N   UNL     1      45.878   3.972   7.599  0.00  0.00    +0.000 NA
BRANCH  17  24
ATOM     23  N   UNL     1      47.411   3.103   5.459  0.00  0.00    +0.000 N 
ATOM     24  C   UNL     1      47.408   2.354   6.605  0.00  0.00    +0.000 C 
ATOM     25  O   UNL     1      48.250   1.490   6.813  0.00  0.00    +0.000 OA
ATOM     26  H   UNL     1      48.153   2.978   4.786  0.00  0.00    +0.000 HD
ATOM     27  H   UNL     1      46.718   3.833   5.335  0.00  0.00    +0.000 HD
ENDBRANCH  17  24
ENDBRANCH  16  20
ENDBRANCH   1  16
TORSDOF 5
ENDMDL
MODEL 2
REMARK VINA RESULT:    -8.529      0.872      1.432
REMARK INTER + INTRA:         -11.555
REMARK INTER:                 -11.047
REMARK INTRA:                  -0.509
REMARK UNBOUND:                -0.533
REMARK  Name = 
REMARK  5 active torsions:
REMARK  status: ('A' for Active; 'I' for Inactive)
REMARK    1  A    between atoms: C_2  and  C_4
REMARK    2  A    between atoms: C_7  and  O_8
REMARK    3  A    between atoms: O_8  and  C_9
REMARK    4  A    between atoms: C_9  and  C_10
REMARK    5  A    between atoms: C_14  and  C_15
REMARK                            x       y       z     vdW  Elec       q    Type
REMARK                         _______ _______ _______ _____ _____    ______ ____
ROOT
ATOM      1  C   UNL     1      43.904   4.692  11.562  0.00  0.00    +0.000 C 
ATOM      2  C   UNL     1      42.653   5.163  12.295  0.00  0.00    +0.000 C 
ATOM      3  C   UNL     1      43.259   6.025  11.233  0.00  0.00    +0.000 C 
ENDROOT
BRANCH   1   4
ATOM      4  C   UNL     1      45.177   4.612  12.415  0.00  0.00    +0.000 A 
ATOM      5  N   UNL     1      45.615   3.401  12.814  0.00  0.00    +0.000 NA
ATOM      6  C   UNL     1      46.688   3.374  13.623  0.00  0.00    +0.000 A 
ATOM      7  C   UNL     1      47.344   4.500  14.055  0.00  0.00    +0.000 A 
ATOM      8  C   UNL     1      46.874   5.705  13.573  0.00  0.00    +0.000 A 
ATOM      9  N   UNL     1      45.784   5.764  12.772  0.00  0.00    +0.000 NA
BRANCH   8  10
ATOM     10  C   UNL     1      47.528   7.024  13.981  0.00  0.00    +0.000 C 
ATOM     11  C   UNL     1      46.924   8.268  13.316  0.00  0.00    +0.000 C 
ATOM     12  C   UNL     1      47.275   8.328  11.834  0.00  0.00    +0.000 C 
ATOM     13  C   UNL     1      48.775   8.184  11.621  0.00  0.00    +0.000 C 
ATOM     14  C   UNL     1      49.390   7.063  12.449  0.00  0.00    +0.000 C 
ATOM     15  O   UNL     1      48.957   7.049  13.808  0.00  0.00    +0.000 OA
ENDBRANCH   8  10
ENDBRANCH   1   4
BRANCH   1  16
ATOM     16  O   UNL     1      43.633   3.624  10.619  0.00  0.00    +0.000 OA
BRANCH  16  20
ATOM     17  C   UNL     1      46.351   2.782   7.652  0.00  0.00    +0.000 A 
ATOM     18  C   UNL     1      45.805   1.750   8.403  0.00  0.00    +0.000 A 
ATOM     19  C   UNL     1      44.879   2.076   9.390  0.00  0.00    +0.000 A 
ATOM     20  C   UNL     1      44.518   3.407   9.596  0.00  0.00    +0.000 A 
ATOM     21  C   UNL     1      45.082   4.365   8.762  0.00  0.00    +0.000 A 
ATOM     22  N   UNL     1      46.000   4.092   7.797  0.00  0.00    +0.000 NA
BRANCH  17  24
ATOM     23  N   UNL     1      47.383   3.226   5.504  0.00  0.00    +0.000 N 
ATOM     24  C   UNL     1      47.423   2.477   6.649  0.00  0.00    +0.000 C 
ATOM     25  O   UNL     1      48.288   1.632   6.838  0.00  0.00    +0.000 OA
ATOM     26  H   UNL     1      48.111   3.116   4.814  0.00  0.00    +0.000 HD
ATOM     27  H   UNL     1      46.671   3.939   5.396  0.00  0.00    +0.000 HD
ENDBRANCH  17  24
ENDBRANCH  16  20
ENDBRANCH   1  16
TORSDOF 5
ENDMDL
MODEL 3
REMARK VINA RESULT:    -7.067      1.397      2.287
REMARK INTER + INTRA:          -9.666
REMARK INTER:                 -10.401
REMARK INTRA:                   0.735
REMARK UNBOUND:                -0.533
REMARK  Name = 
REMARK  5 active torsions:
REMARK  status: ('A' for Active; 'I' for Inactive)
REMARK    1  A    between atoms: C_2  and  C_4
REMARK    2  A    between atoms: C_7  and  O_8
REMARK    3  A    between atoms: O_8  and  C_9
REMARK    4  A    between atoms: C_9  and  C_10
REMARK    5  A    between atoms: C_14  and  C_15
REMARK                            x       y       z     vdW  Elec       q    Type
REMARK                         _______ _______ _______ _____ _____    ______ ____
ROOT
ATOM      1  C   UNL     1      44.229   4.501  11.701  0.00  0.00    +0.000 C 
ATOM      2  C   UNL     1      45.107   3.439  12.351  0.00  0.00    +0.000 C 
ATOM      3  C   UNL     1      43.723   3.673  12.867  0.00  0.00    +0.000 C 
ENDROOT
BRANCH   1   4
ATOM      4  C   UNL     1      44.694   5.950  11.894  0.00  0.00    +0.000 A 
ATOM      5  N   UNL     1      44.024   6.935  11.264  0.00  0.00    +0.000 NA
ATOM      6  C   UNL     1      44.505   8.184  11.394  0.00  0.00    +0.000 A 
ATOM      7  C   UNL     1      45.627   8.495  12.122  0.00  0.00    +0.000 A 
ATOM      8  C   UNL     1      46.239   7.447  12.780  0.00  0.00    +0.000 A 
ATOM      9  N   UNL     1      45.789   6.177  12.652  0.00  0.00    +0.000 NA
BRANCH   8  10
ATOM     10  C   UNL     1      47.493   7.675  13.624  0.00  0.00    +0.000 C 
ATOM     11  C   UNL     1      47.983   9.128  13.659  0.00  0.00    +0.000 C 
ATOM     12  C   UNL     1      48.575   9.545  12.318  0.00  0.00    +0.000 C 
ATOM     13  C   UNL     1      49.629   8.551  11.853  0.00  0.00    +0.000 C 
ATOM     14  C   UNL     1      49.194   7.101  12.015  0.00  0.00    +0.000 C 
ATOM     15  O   UNL     1      48.596   6.818  13.279  0.00  0.00    +0.000 OA
ENDBRANCH   8  10
ENDBRANCH   1   4
BRANCH   1  16
ATOM     16  O   UNL     1      43.735   4.099  10.396  0.00  0.00    +0.000 OA
BRANCH  16  20
ATOM     17  C   UNL     1      46.449   2.608   7.694  0.00  0.00    +0.000 A 
ATOM     18  C   UNL     1      45.694   1.737   8.468  0.00  0.00    +0.000 A 
ATOM     19  C   UNL     1      44.777   2.282   9.362  0.00  0.00    +0.000 A 
ATOM     20  C   UNL     1      44.632   3.666   9.457  0.00  0.00    +0.000 A 
ATOM     21  C   UNL     1      45.398   4.455   8.606  0.00  0.00    +0.000 A 
ATOM     22  N   UNL     1      46.314   3.964   7.729  0.00  0.00    +0.000 NA
BRANCH  17  24
ATOM     23  N   UNL     1      48.532   2.923   6.495  0.00  0.00    +0.000 N 
ATOM     24  C   UNL     1      47.514   2.058   6.793  0.00  0.00    +0.000 C 
ATOM     25  O   UNL     1      47.492   0.913   6.361  0.00  0.00    +0.000 OA
ATOM     26  H   UNL     1      49.313   2.599   5.944  0.00  0.00    +0.000 HD
ATOM     27  H   UNL     1      48.534   3.854   6.897  0.00  0.00    +0.000 HD
ENDBRANCH  17  24
ENDBRANCH  16  20
ENDBRANCH   1  16
TORSDOF 5
ENDMDL
MODEL 4
REMARK VINA RESULT:    -6.786      5.090      8.230
REMARK INTER + INTRA:          -9.302
REMARK INTER:                  -9.820
REMARK INTRA:                   0.517
REMARK UNBOUND:                -0.533
REMARK  Name = 
REMARK  5 active torsions:
REMARK  status: ('A' for Active; 'I' for Inactive)
REMARK    1  A    between atoms: C_2  and  C_4
REMARK    2  A    between atoms: C_7  and  O_8
REMARK    3  A    between atoms: O_8  and  C_9
REMARK    4  A    between atoms: C_9  and  C_10
REMARK    5  A    between atoms: C_14  and  C_15
REMARK                            x       y       z     vdW  Elec       q    Type
REMARK                         _______ _______ _______ _____ _____    ______ ____
ROOT
ATOM      1  C   UNL     1      47.956   4.387  16.608  0.00  0.00    +0.000 C 
ATOM      2  C   UNL     1      46.928   4.698  17.689  0.00  0.00    +0.000 C 
ATOM      3  C   UNL     1      47.233   3.275  17.344  0.00  0.00    +0.000 C 
ENDROOT
BRANCH   1   4
ATOM      4  C   UNL     1      47.556   4.790  15.182  0.00  0.00    +0.000 A 
ATOM      5  N   UNL     1      48.092   5.906  14.649  0.00  0.00    +0.000 NA
ATOM      6  C   UNL     1      47.661   6.270  13.429  0.00  0.00    +0.000 A 
ATOM      7  C   UNL     1      46.717   5.573  12.716  0.00  0.00    +0.000 A 
ATOM      8  C   UNL     1      46.243   4.415  13.298  0.00  0.00    +0.000 A 
ATOM      9  N   UNL     1      46.644   4.034  14.534  0.00  0.00    +0.000 NA
BRANCH   8  10
ATOM     10  C   UNL     1      45.193   3.555  12.595  0.00  0.00    +0.000 C 
ATOM     11  C   UNL     1      44.980   3.893  11.113  0.00  0.00    +0.000 C 
ATOM     12  C   UNL     1      44.274   5.233  10.948  0.00  0.00    +0.000 C 
ATOM     13  C   UNL     1      43.002   5.289  11.780  0.00  0.00    +0.000 C 
ATOM     14  C   UNL     1      43.192   4.760  13.195  0.00  0.00    +0.000 C 
ATOM     15  O   UNL     1      43.915   3.531  13.257  0.00  0.00    +0.000 OA
ENDBRANCH   8  10
ENDBRANCH   1   4
BRANCH   1  16
ATOM     16  O   UNL     1      49.319   4.633  17.041  0.00  0.00    +0.000 OA
BRANCH  16  20
ATOM     17  C   UNL     1      52.018   1.574  17.542  0.00  0.00    +0.000 A 
ATOM     18  C   UNL     1      52.327   2.850  17.991  0.00  0.00    +0.000 A 
ATOM     19  C   UNL     1      51.381   3.856  17.814  0.00  0.00    +0.000 A 
ATOM     20  C   UNL     1      50.160   3.565  17.206  0.00  0.00    +0.000 A 
ATOM     21  C   UNL     1      49.922   2.247  16.833  0.00  0.00    +0.000 A 
ATOM     22  N   UNL     1      50.823   1.240  16.975  0.00  0.00    +0.000 NA
BRANCH  17  24
ATOM     23  N   UNL     1      52.784  -0.503  18.531  0.00  0.00    +0.000 N 
ATOM     24  C   UNL     1      53.050   0.491  17.628  0.00  0.00    +0.000 C 
ATOM     25  O   UNL     1      54.058   0.477  16.932  0.00  0.00    +0.000 OA
ATOM     26  H   UNL     1      53.406  -1.295  18.596  0.00  0.00    +0.000 HD
ATOM     27  H   UNL     1      51.923  -0.475  19.067  0.00  0.00    +0.000 HD
ENDBRANCH  17  24
ENDBRANCH  16  20
ENDBRANCH   1  16
TORSDOF 5
ENDMDL
MODEL 5
REMARK VINA RESULT:    -6.675      3.034      5.557
REMARK INTER + INTRA:          -9.159
REMARK INTER:                  -9.055
REMARK INTRA:                  -0.104
REMARK UNBOUND:                -0.533
REMARK  Name = 
REMARK  5 active torsions:
REMARK  status: ('A' for Active; 'I' for Inactive)
REMARK    1  A    between atoms: C_2  and  C_4
REMARK    2  A    between atoms: C_7  and  O_8
REMARK    3  A    between atoms: O_8  and  C_9
REMARK    4  A    between atoms: C_9  and  C_10
REMARK    5  A    between atoms: C_14  and  C_15
REMARK                            x       y       z     vdW  Elec       q    Type
REMARK                         _______ _______ _______ _____ _____    ______ ____
ROOT
ATOM      1  C   UNL     1      48.105   7.442  13.189  0.00  0.00    +0.000 C 
ATOM      2  C   UNL     1      48.494   8.678  12.388  0.00  0.00    +0.000 C 
ATOM      3  C   UNL     1      48.667   7.321  11.785  0.00  0.00    +0.000 C 
ENDROOT
BRANCH   1   4
ATOM      4  C   UNL     1      48.971   7.155  14.422  0.00  0.00    +0.000 A 
ATOM      5  N   UNL     1      50.256   7.562  14.421  0.00  0.00    +0.000 NA
ATOM      6  C   UNL     1      51.006   7.226  15.485  0.00  0.00    +0.000 A 
ATOM      7  C   UNL     1      50.534   6.499  16.549  0.00  0.00    +0.000 A 
ATOM      8  C   UNL     1      49.199   6.154  16.510  0.00  0.00    +0.000 A 
ATOM      9  N   UNL     1      48.424   6.461  15.444  0.00  0.00    +0.000 NA
BRANCH   8  10
ATOM     10  C   UNL     1      48.561   5.348  17.642  0.00  0.00    +0.000 C 
ATOM     11  C   UNL     1      49.519   4.386  18.358  0.00  0.00    +0.000 C 
ATOM     12  C   UNL     1      49.888   3.208  17.466  0.00  0.00    +0.000 C 
ATOM     13  C   UNL     1      48.643   2.533  16.907  0.00  0.00    +0.000 C 
ATOM     14  C   UNL     1      47.614   3.524  16.380  0.00  0.00    +0.000 C 
ATOM     15  O   UNL     1      47.378   4.626  17.255  0.00  0.00    +0.000 OA
ENDBRANCH   8  10
ENDBRANCH   1   4
BRANCH   1  16
ATOM     16  O   UNL     1      46.667   7.273  13.297  0.00  0.00    +0.000 OA
BRANCH  16  20
ATOM     17  C   UNL     1      44.821   3.991  11.650  0.00  0.00    +0.000 A 
ATOM     18  C   UNL     1      44.823   5.199  10.967  0.00  0.00    +0.000 A 
ATOM     19  C   UNL     1      45.470   6.284  11.553  0.00  0.00    +0.000 A 
ATOM     20  C   UNL     1      46.098   6.136  12.789  0.00  0.00    +0.000 A 
ATOM     21  C   UNL     1      46.084   4.874  13.374  0.00  0.00    +0.000 A 
ATOM     22  N   UNL     1      45.452   3.794  12.842  0.00  0.00    +0.000 NA
BRANCH  17  24
ATOM     23  N   UNL     1      44.614   2.221  10.006  0.00  0.00    +0.000 N 
ATOM     24  C   UNL     1      44.050   2.831  11.094  0.00  0.00    +0.000 C 
ATOM     25  O   UNL     1      42.998   2.438  11.582  0.00  0.00    +0.000 OA
ATOM     26  H   UNL     1      44.181   1.395   9.621  0.00  0.00    +0.000 HD
ATOM     27  H   UNL     1      45.503   2.553   9.650  0.00  0.00    +0.000 HD
ENDBRANCH  17  24
ENDBRANCH  16  20
ENDBRANCH   1  16
TORSDOF 5
ENDMDL
MODEL 6
REMARK VINA RESULT:    -5.929      3.407      5.200
REMARK INTER + INTRA:          -8.195
REMARK INTER:                  -7.973
REMARK INTRA:                  -0.223
REMARK UNBOUND:                -0.533
REMARK  Name = 
REMARK  5 active torsions:
REMARK  status: ('A' for Active; 'I' for Inactive)
REMARK    1  A    between atoms: C_2  and  C_4
REMARK    2  A    between atoms: C_7  and  O_8
REMARK    3  A    between atoms: O_8  and  C_9
REMARK    4  A    between atoms: C_9  and  C_10
REMARK    5  A    between atoms: C_14  and  C_15
REMARK                            x       y       z     vdW  Elec       q    Type
REMARK                         _______ _______ _______ _____ _____    ______ ____
ROOT
ATOM      1  C   UNL     1      47.775   4.224  15.868  0.00  0.00    +0.000 C 
ATOM      2  C   UNL     1      48.254   3.188  16.877  0.00  0.00    +0.000 C 
ATOM      3  C   UNL     1      46.846   3.687  16.941  0.00  0.00    +0.000 C 
ENDROOT
BRANCH   1   4
ATOM      4  C   UNL     1      48.417   5.612  15.991  0.00  0.00    +0.000 A 
ATOM      5  N   UNL     1      48.327   6.266  17.166  0.00  0.00    +0.000 NA
ATOM      6  C   UNL     1      48.833   7.511  17.215  0.00  0.00    +0.000 A 
ATOM      7  C   UNL     1      49.424   8.134  16.144  0.00  0.00    +0.000 A 
ATOM      8  C   UNL     1      49.527   7.392  14.985  0.00  0.00    +0.000 A 
ATOM      9  N   UNL     1      49.009   6.144  14.900  0.00  0.00    +0.000 NA
BRANCH   8  10
ATOM     10  C   UNL     1      50.171   7.981  13.729  0.00  0.00    +0.000 C 
ATOM     11  C   UNL     1      50.004   9.499  13.579  0.00  0.00    +0.000 C 
ATOM     12  C   UNL     1      48.562   9.866  13.248  0.00  0.00    +0.000 C 
ATOM     13  C   UNL     1      48.055   9.071  12.054  0.00  0.00    +0.000 C 
ATOM     14  C   UNL     1      48.408   7.591  12.130  0.00  0.00    +0.000 C 
ATOM     15  O   UNL     1      49.762   7.343  12.506  0.00  0.00    +0.000 OA
ENDBRANCH   8  10
ENDBRANCH   1   4
BRANCH   1  16
ATOM     16  O   UNL     1      47.576   3.668  14.542  0.00  0.00    +0.000 OA
BRANCH  16  20
ATOM     17  C   UNL     1      44.398   4.769  12.180  0.00  0.00    +0.000 A 
ATOM     18  C   UNL     1      44.888   3.472  12.120  0.00  0.00    +0.000 A 
ATOM     19  C   UNL     1      45.957   3.135  12.945  0.00  0.00    +0.000 A 
ATOM     20  C   UNL     1      46.501   4.088  13.806  0.00  0.00    +0.000 A 
ATOM     21  C   UNL     1      45.911   5.347  13.830  0.00  0.00    +0.000 A 
ATOM     22  N   UNL     1      44.876   5.720  13.032  0.00  0.00    +0.000 NA
BRANCH  17  24
ATOM     23  N   UNL     1      42.336   5.981  11.782  0.00  0.00    +0.000 N 
ATOM     24  C   UNL     1      43.313   5.192  11.236  0.00  0.00    +0.000 C 
ATOM     25  O   UNL     1      43.300   4.874  10.054  0.00  0.00    +0.000 OA
ATOM     26  H   UNL     1      41.609   6.353  11.189  0.00  0.00    +0.000 HD
ATOM     27  H   UNL     1      42.397   6.251  12.758  0.00  0.00    +0.000 HD
ENDBRANCH  17  24
ENDBRANCH  16  20
ENDBRANCH   1  16
TORSDOF 5
ENDMDL
MODEL 7
REMARK VINA RESULT:    -5.712      2.741      7.573
REMARK INTER + INTRA:          -7.915
REMARK INTER:                  -7.922
REMARK INTRA:                   0.007
REMARK UNBOUND:                -0.533
REMARK  Name = 
REMARK  5 active torsions:
REMARK  status: ('A' for Active; 'I' for Inactive)
REMARK    1  A    between atoms: C_2  and  C_4
REMARK    2  A    between atoms: C_7  and  O_8
REMARK    3  A    between atoms: O_8  and  C_9
REMARK    4  A    between atoms: C_9  and  C_10
REMARK    5  A    between atoms: C_14  and  C_15
REMARK                            x       y       z     vdW  Elec       q    Type
REMARK                         _______ _______ _______ _____ _____    ______ ____
ROOT
ATOM      1  C   UNL     1      46.135   6.989  12.192  0.00  0.00    +0.000 C 
ATOM      2  C   UNL     1      45.518   8.124  11.384  0.00  0.00    +0.000 C 
ATOM      3  C   UNL     1      45.242   8.024  12.850  0.00  0.00    +0.000 C 
ENDROOT
BRANCH   1   4
ATOM      4  C   UNL     1      45.616   5.584  11.859  0.00  0.00    +0.000 A 
ATOM      5  N   UNL     1      45.576   4.659  12.837  0.00  0.00    +0.000 NA
ATOM      6  C   UNL     1      45.190   3.418  12.492  0.00  0.00    +0.000 A 
ATOM      7  C   UNL     1      44.843   3.058  11.213  0.00  0.00    +0.000 A 
ATOM      8  C   UNL     1      44.860   4.063  10.268  0.00  0.00    +0.000 A 
ATOM      9  N   UNL     1      45.264   5.316  10.582  0.00  0.00    +0.000 NA
BRANCH   8  10
ATOM     10  C   UNL     1      44.489   3.780   8.813  0.00  0.00    +0.000 C 
ATOM     11  C   UNL     1      44.492   2.294   8.431  0.00  0.00    +0.000 C 
ATOM     12  C   UNL     1      45.910   1.739   8.380  0.00  0.00    +0.000 C 
ATOM     13  C   UNL     1      46.804   2.602   7.501  0.00  0.00    +0.000 C 
ATOM     14  C   UNL     1      46.637   4.092   7.762  0.00  0.00    +0.000 C 
ATOM     15  O   UNL     1      45.276   4.510   7.854  0.00  0.00    +0.000 OA
ENDBRANCH   8  10
ENDBRANCH   1   4
BRANCH   1  16
ATOM     16  O   UNL     1      47.558   7.168  12.415  0.00  0.00    +0.000 OA
BRANCH  16  20
ATOM     17  C   UNL     1      49.113   7.148  16.220  0.00  0.00    +0.000 A 
ATOM     18  C   UNL     1      48.998   8.345  15.526  0.00  0.00    +0.000 A 
ATOM     19  C   UNL     1      48.454   8.310  14.244  0.00  0.00    +0.000 A 
ATOM     20  C   UNL     1      48.037   7.098  13.696  0.00  0.00    +0.000 A 
ATOM     21  C   UNL     1      48.148   5.960  14.487  0.00  0.00    +0.000 A 
ATOM     22  N   UNL     1      48.686   5.948  15.735  0.00  0.00    +0.000 NA
BRANCH  17  24
ATOM     23  N   UNL     1      49.362   8.102  18.435  0.00  0.00    +0.000 N 
ATOM     24  C   UNL     1      49.783   7.136  17.561  0.00  0.00    +0.000 C 
ATOM     25  O   UNL     1      50.636   6.313  17.869  0.00  0.00    +0.000 OA
ATOM     26  H   UNL     1      49.727   8.111  19.376  0.00  0.00    +0.000 HD
ATOM     27  H   UNL     1      48.630   8.745  18.156  0.00  0.00    +0.000 HD
ENDBRANCH  17  24
ENDBRANCH  16  20
ENDBRANCH   1  16
TORSDOF 5
ENDMDL
MODEL 8
REMARK VINA RESULT:    -5.660      4.827      8.856
REMARK INTER + INTRA:          -7.847
REMARK INTER:                  -8.188
REMARK INTRA:                   0.341
REMARK UNBOUND:                -0.533
REMARK  Name = 
REMARK  5 active torsions:
REMARK  status: ('A' for Active; 'I' for Inactive)
REMARK    1  A    between atoms: C_2  and  C_4
REMARK    2  A    between atoms: C_7  and  O_8
REMARK    3  A    between atoms: O_8  and  C_9
REMARK    4  A    between atoms: C_9  and  C_10
REMARK    5  A    between atoms: C_14  and  C_15
REMARK                            x       y       z     vdW  Elec       q    Type
REMARK                         _______ _______ _______ _____ _____    ______ ____
ROOT
ATOM      1  C   UNL     1      47.837   4.332  16.511  0.00  0.00    +0.000 C 
ATOM      2  C   UNL     1      46.900   3.344  17.195  0.00  0.00    +0.000 C 
ATOM      3  C   UNL     1      48.287   2.919  16.833  0.00  0.00    +0.000 C 
ENDROOT
BRANCH   1   4
ATOM      4  C   UNL     1      47.442   4.738  15.086  0.00  0.00    +0.000 A 
ATOM      5  N   UNL     1      47.974   5.858  14.559  0.00  0.00    +0.000 NA
ATOM      6  C   UNL     1      47.546   6.225  13.338  0.00  0.00    +0.000 A 
ATOM      7  C   UNL     1      46.610   5.525  12.619  0.00  0.00    +0.000 A 
ATOM      8  C   UNL     1      46.140   4.362  13.194  0.00  0.00    +0.000 A 
ATOM      9  N   UNL     1      46.537   3.979  14.430  0.00  0.00    +0.000 NA
BRANCH   8  10
ATOM     10  C   UNL     1      45.098   3.498  12.483  0.00  0.00    +0.000 C 
ATOM     11  C   UNL     1      44.834   3.891  11.023  0.00  0.00    +0.000 C 
ATOM     12  C   UNL     1      44.083   5.213  10.933  0.00  0.00    +0.000 C 
ATOM     13  C   UNL     1      42.832   5.193  11.800  0.00  0.00    +0.000 C 
ATOM     14  C   UNL     1      43.077   4.611  13.186  0.00  0.00    +0.000 C 
ATOM     15  O   UNL     1      43.840   3.406  13.176  0.00  0.00    +0.000 OA
ENDBRANCH   8  10
ENDBRANCH   1   4
BRANCH   1  16
ATOM     16  O   UNL     1      48.326   5.358  17.413  0.00  0.00    +0.000 OA
BRANCH  16  20
ATOM     17  C   UNL     1      52.205   4.980  18.719  0.00  0.00    +0.000 A 
ATOM     18  C   UNL     1      51.949   5.420  17.427  0.00  0.00    +0.000 A 
ATOM     19  C   UNL     1      50.622   5.547  17.028  0.00  0.00    +0.000 A 
ATOM     20  C   UNL     1      49.593   5.242  17.919  0.00  0.00    +0.000 A 
ATOM     21  C   UNL     1      49.948   4.856  19.206  0.00  0.00    +0.000 A 
ATOM     22  N   UNL     1      51.230   4.706  19.632  0.00  0.00    +0.000 NA
BRANCH  17  24
ATOM     23  N   UNL     1      53.995   3.424  19.222  0.00  0.00    +0.000 N 
ATOM     24  C   UNL     1      53.621   4.739  19.149  0.00  0.00    +0.000 C 
ATOM     25  O   UNL     1      54.401   5.648  19.404  0.00  0.00    +0.000 OA
ATOM     26  H   UNL     1      54.952   3.193  19.444  0.00  0.00    +0.000 HD
ATOM     27  H   UNL     1      53.331   2.700  18.971  0.00  0.00    +0.000 HD
ENDBRANCH  17  24
ENDBRANCH  16  20
ENDBRANCH   1  16
TORSDOF 5
ENDMDL
