MODEL 1
REMARK VINA RESULT:    -8.172      0.000      0.000
REMARK INTER + INTRA:         -12.444
REMARK INTER:                 -11.517
REMARK INTRA:                  -0.927
REMARK UNBOUND:                -0.927
REMARK  Name = 
REMARK  8 active torsions:
REMARK  status: ('A' for Active; 'I' for Inactive)
REMARK    1  A    between atoms: C_1  and  O_2
REMARK    2  A    between atoms: O_2  and  C_3
REMARK    3  A    between atoms: C_3  and  C_4
REMARK    4  A    between atoms: C_4  and  N_5
REMARK    5  A    between atoms: C_4  and  C_18
REMARK    6  A    between atoms: C_6  and  C_8
REMARK    7  A    between atoms: C_21  and  C_22
REMARK    8  A    between atoms: C_22  and  C_23
REMARK                            x       y       z     vdW  Elec       q    Type
REMARK                         _______ _______ _______ _____ _____    ______ ____
ROOT
ATOM      1  C   UNL     1      46.439   7.909  12.609  0.00  0.00    +0.000 C 
ENDROOT
BRANCH   1   2
ATOM      2  C   UNL     1      45.970   6.716  11.788  0.00  0.00    +0.000 A 
ATOM      3  C   UNL     1      45.052   5.808  12.326  0.00  0.00    +0.000 A 
ATOM      4  C   UNL     1      44.598   4.721  11.572  0.00  0.00    +0.000 A 
ATOM      5  C   UNL     1      45.032   4.531  10.252  0.00  0.00    +0.000 A 
ATOM      6  C   UNL     1      45.949   5.437   9.710  0.00  0.00    +0.000 A 
ATOM      7  C   UNL     1      46.418   6.509  10.472  0.00  0.00    +0.000 A 
BRANCH   5   8
ATOM      8  C   UNL     1      44.525   3.368   9.428  0.00  0.00    +0.000 C 
BRANCH   8   9
ATOM      9  C   UNL     1      45.508   2.769   8.444  0.00  0.00    +0.000 A 
ATOM     10  C   UNL     1      45.898   3.464   7.300  0.00  0.00    +0.000 A 
ATOM     11  C   UNL     1      46.689   2.822   6.350  0.00  0.00    +0.000 A 
ATOM     12  C   UNL     1      47.073   1.505   6.561  0.00  0.00    +0.000 A 
ATOM     13  C   UNL     1      46.661   0.888   7.729  0.00  0.00    +0.000 A 
ATOM     14  N   UNL     1      45.891   1.484   8.668  0.00  0.00    +0.000 NA
ENDBRANCH   8   9
ENDBRANCH   5   8
ENDBRANCH   1   2
BRANCH   1  15
ATOM     15  N   UNL     1      47.031   7.442  13.853  0.00  0.00    +0.000 N 
ATOM     16  C   UNL     1      48.287   6.905  13.932  0.00  0.00    +0.000 C 
ATOM     17  O   UNL     1      49.064   6.878  12.981  0.00  0.00    +0.000 OA
ATOM     18  H   UNL     1      46.388   7.292  14.621  0.00  0.00    +0.000 HD
BRANCH  16  19
ATOM     19  C   UNL     1      48.681   6.401  15.255  0.00  0.00    +0.000 A 
ATOM     20  C   UNL     1      49.682   7.041  15.973  0.00  0.00    +0.000 A 
ATOM     21  S   UNL     1      49.996   6.325  17.489  0.00  0.00    +0.000 S 
ATOM     22  C   UNL     1      48.846   5.101  17.213  0.00  0.00    +0.000 A 
ATOM     23  N   UNL     1      48.643   4.110  18.124  0.00  0.00    +0.000 NA
ATOM     24  C   UNL     1      47.783   3.218  17.758  0.00  0.00    +0.000 A 
ATOM     25  N   UNL     1      47.094   3.237  16.575  0.00  0.00    +0.000 N 
ATOM     26  C   UNL     1      47.191   4.270  15.677  0.00  0.00    +0.000 A 
ATOM     27  O   UNL     1      46.428   4.345  14.719  0.00  0.00    +0.000 OA
ATOM     28  C   UNL     1      48.200   5.261  16.001  0.00  0.00    +0.000 A 
ATOM     29  H   UNL     1      46.401   2.531  16.369  0.00  0.00    +0.000 HD
ENDBRANCH  16  19
ENDBRANCH   1  15
BRANCH   1  30
ATOM     30  C   UNL     1      45.270   8.885  12.882  0.00  0.00    +0.000 C 
BRANCH  30  32
ATOM     31  C   UNL     1      45.349  10.745  11.433  0.00  0.00    +0.000 C 
ATOM     32  O   UNL     1      44.788   9.458  11.659  0.00  0.00    +0.000 OA
ENDBRANCH  30  32
ENDBRANCH   1  30
TORSDOF 7
ENDMDL
MODEL 2
REMARK VINA RESULT:    -7.866      1.635      2.418
REMARK INTER + INTRA:         -12.013
REMARK INTER:                 -10.989
REMARK INTRA:                  -1.024
REMARK UNBOUND:                -0.927
REMARK  Name = 
REMARK  8 active torsions:
REMARK  status: ('A' for Active; 'I' for Inactive)
REMARK    1  A    between atoms: C_1  and  O_2
REMARK    2  A    between atoms: O_2  and  C_3
REMARK    3  A    between atoms: C_3  and  C_4
REMARK    4  A    between atoms: C_4  and  N_5
REMARK    5  A    between atoms: C_4  and  C_18
REMARK    6  A    between atoms: C_6  and  C_8
REMARK    7  A    between atoms: C_21  and  C_22
REMARK    8  A    between atoms: C_22  and  C_23
REMARK                            x       y       z     vdW  Elec       q    Type
REMARK                         _______ _______ _______ _____ _____    ______ ____
ROOT
ATOM      1  C   UNL     1      46.529   7.049  12.797  0.00  0.00    +0.000 C 
ENDROOT
BRANCH   1   2
ATOM      2  C   UNL     1      45.992   6.055  11.777  0.00  0.00    +0.000 A 
ATOM      3  C   UNL     1      46.169   6.286  10.408  0.00  0.00    +0.000 A 
ATOM      4  C   UNL     1      45.699   5.368   9.464  0.00  0.00    +0.000 A 
ATOM      5  C   UNL     1      45.063   4.185   9.866  0.00  0.00    +0.000 A 
ATOM      6  C   UNL     1      44.886   3.950  11.233  0.00  0.00    +0.000 A 
ATOM      7  C   UNL     1      45.336   4.878  12.174  0.00  0.00    +0.000 A 
BRANCH   5   8
ATOM      8  C   UNL     1      44.573   3.181   8.846  0.00  0.00    +0.000 C 
BRANCH   8   9
ATOM      9  C   UNL     1      45.604   2.677   7.858  0.00  0.00    +0.000 A 
ATOM     10  C   UNL     1      46.316   1.502   8.094  0.00  0.00    +0.000 A 
ATOM     11  C   UNL     1      47.354   1.150   7.233  0.00  0.00    +0.000 A 
ATOM     12  C   UNL     1      47.657   1.975   6.159  0.00  0.00    +0.000 A 
ATOM     13  C   UNL     1      46.893   3.115   5.980  0.00  0.00    +0.000 A 
ATOM     14  N   UNL     1      45.882   3.483   6.800  0.00  0.00    +0.000 NA
ENDBRANCH   8   9
ENDBRANCH   5   8
ENDBRANCH   1   2
BRANCH   1  15
ATOM     15  N   UNL     1      46.712   6.382  14.078  0.00  0.00    +0.000 N 
ATOM     16  C   UNL     1      47.932   5.981  14.548  0.00  0.00    +0.000 C 
ATOM     17  O   UNL     1      48.989   6.252  13.983  0.00  0.00    +0.000 OA
ATOM     18  H   UNL     1      45.876   5.995  14.499  0.00  0.00    +0.000 HD
BRANCH  16  19
ATOM     19  C   UNL     1      47.912   5.240  15.817  0.00  0.00    +0.000 A 
ATOM     20  C   UNL     1      47.390   3.954  15.863  0.00  0.00    +0.000 A 
ATOM     21  S   UNL     1      47.460   3.245  17.413  0.00  0.00    +0.000 S 
ATOM     22  C   UNL     1      48.137   4.653  18.088  0.00  0.00    +0.000 A 
ATOM     23  N   UNL     1      48.410   4.732  19.419  0.00  0.00    +0.000 NA
ATOM     24  C   UNL     1      48.867   5.878  19.803  0.00  0.00    +0.000 A 
ATOM     25  N   UNL     1      49.095   6.944  18.974  0.00  0.00    +0.000 N 
ATOM     26  C   UNL     1      48.933   6.874  17.613  0.00  0.00    +0.000 A 
ATOM     27  O   UNL     1      49.318   7.783  16.885  0.00  0.00    +0.000 OA
ATOM     28  C   UNL     1      48.348   5.634  17.136  0.00  0.00    +0.000 A 
ATOM     29  H   UNL     1      49.497   7.799  19.331  0.00  0.00    +0.000 HD
ENDBRANCH  16  19
ENDBRANCH   1  15
BRANCH   1  30
ATOM     30  C   UNL     1      45.582   8.264  12.935  0.00  0.00    +0.000 C 
BRANCH  30  32
ATOM     31  C   UNL     1      47.362   9.704  12.360  0.00  0.00    +0.000 C 
ATOM     32  O   UNL     1      46.012   9.343  12.092  0.00  0.00    +0.000 OA
ENDBRANCH  30  32
ENDBRANCH   1  30
TORSDOF 7
ENDMDL
MODEL 3
REMARK VINA RESULT:    -7.700      2.577      4.300
REMARK INTER + INTRA:         -11.778
REMARK INTER:                 -10.504
REMARK INTRA:                  -1.274
REMARK UNBOUND:                -0.927
REMARK  Name = 
REMARK  8 active torsions:
REMARK  status: ('A' for Active; 'I' for Inactive)
REMARK    1  A    between atoms: C_1  and  O_2
REMARK    2  A    between atoms: O_2  and  C_3
REMARK    3  A    between atoms: C_3  and  C_4
REMARK    4  A    between atoms: C_4  and  N_5
REMARK    5  A    between atoms: C_4  and  C_18
REMARK    6  A    between atoms: C_6  and  C_8
REMARK    7  A    between atoms: C_21  and  C_22
REMARK    8  A    between atoms: C_22  and  C_23
REMARK                            x       y       z     vdW  Elec       q    Type
REMARK                         _______ _______ _______ _____ _____    ______ ____
ROOT
ATOM      1  C   UNL     1      46.341   5.679  13.616  0.00  0.00    +0.000 C 
ENDROOT
BRANCH   1   2
ATOM      2  C   UNL     1      45.842   5.105  12.297  0.00  0.00    +0.000 A 
ATOM      3  C   UNL     1      45.978   5.837  11.113  0.00  0.00    +0.000 A 
ATOM      4  C   UNL     1      45.544   5.310   9.893  0.00  0.00    +0.000 A 
ATOM      5  C   UNL     1      44.985   4.025   9.824  0.00  0.00    +0.000 A 
ATOM      6  C   UNL     1      44.848   3.289  11.005  0.00  0.00    +0.000 A 
ATOM      7  C   UNL     1      45.263   3.826  12.225  0.00  0.00    +0.000 A 
BRANCH   5   8
ATOM      8  C   UNL     1      44.535   3.445   8.502  0.00  0.00    +0.000 C 
BRANCH   8   9
ATOM      9  C   UNL     1      45.617   2.833   7.638  0.00  0.00    +0.000 A 
ATOM     10  C   UNL     1      46.293   1.679   8.036  0.00  0.00    +0.000 A 
ATOM     11  C   UNL     1      47.376   1.232   7.285  0.00  0.00    +0.000 A 
ATOM     12  C   UNL     1      47.762   1.942   6.156  0.00  0.00    +0.000 A 
ATOM     13  C   UNL     1      47.032   3.066   5.815  0.00  0.00    +0.000 A 
ATOM     14  N   UNL     1      45.977   3.526   6.526  0.00  0.00    +0.000 NA
ENDBRANCH   8   9
ENDBRANCH   5   8
ENDBRANCH   1   2
BRANCH   1  15
ATOM     15  N   UNL     1      47.594   6.385  13.397  0.00  0.00    +0.000 N 
ATOM     16  C   UNL     1      47.684   7.748  13.318  0.00  0.00    +0.000 C 
ATOM     17  O   UNL     1      46.734   8.494  13.538  0.00  0.00    +0.000 OA
ATOM     18  H   UNL     1      48.364   5.825  13.052  0.00  0.00    +0.000 HD
BRANCH  16  19
ATOM     19  C   UNL     1      49.016   8.279  12.999  0.00  0.00    +0.000 A 
ATOM     20  C   UNL     1      49.210   9.024  11.844  0.00  0.00    +0.000 A 
ATOM     21  S   UNL     1      50.814   9.567  11.644  0.00  0.00    +0.000 S 
ATOM     22  C   UNL     1      51.318   8.777  13.065  0.00  0.00    +0.000 A 
ATOM     23  N   UNL     1      52.621   8.806  13.460  0.00  0.00    +0.000 NA
ATOM     24  C   UNL     1      52.871   8.116  14.523  0.00  0.00    +0.000 A 
ATOM     25  N   UNL     1      51.935   7.419  15.239  0.00  0.00    +0.000 N 
ATOM     26  C   UNL     1      50.596   7.449  14.937  0.00  0.00    +0.000 A 
ATOM     27  O   UNL     1      49.767   6.964  15.700  0.00  0.00    +0.000 OA
ATOM     28  C   UNL     1      50.269   8.145  13.706  0.00  0.00    +0.000 A 
ATOM     29  H   UNL     1      52.188   6.936  16.089  0.00  0.00    +0.000 HD
ENDBRANCH  16  19
ENDBRANCH   1  15
BRANCH   1  30
ATOM     30  C   UNL     1      46.510   4.563  14.674  0.00  0.00    +0.000 C 
BRANCH  30  32
ATOM     31  C   UNL     1      47.945   3.999  16.461  0.00  0.00    +0.000 C 
ATOM     32  O   UNL     1      47.868   4.495  15.130  0.00  0.00    +0.000 OA
ENDBRANCH  30  32
ENDBRANCH   1  30
TORSDOF 7
ENDMDL
MODEL 4
REMARK VINA RESULT:    -7.371      2.413      3.240
REMARK INTER + INTRA:         -11.314
REMARK INTER:                  -9.889
REMARK INTRA:                  -1.425
REMARK UNBOUND:                -0.927
REMARK  Name = 
REMARK  8 active torsions:
REMARK  status: ('A' for Active; 'I' for Inactive)
REMARK    1  A    between atoms: C_1  and  O_2
REMARK    2  A    between atoms: O_2  and  C_3
REMARK    3  A    between atoms: C_3  and  C_4
REMARK    4  A    between atoms: C_4  and  N_5
REMARK    5  A    between atoms: C_4  and  C_18
REMARK    6  A    between atoms: C_6  and  C_8
REMARK    7  A    between atoms: C_21  and  C_22
REMARK    8  A    between atoms: C_22  and  C_23
REMARK                            x       y       z     vdW  Elec       q    Type
REMARK                         _______ _______ _______ _____ _____    ______ ____
ROOT
ATOM      1  C   UNL     1      48.080   7.605  13.971  0.00  0.00    +0.000 C 
ENDROOT
BRANCH   1   2
ATOM      2  C   UNL     1      47.075   6.875  13.092  0.00  0.00    +0.000 A 
ATOM      3  C   UNL     1      46.387   7.562  12.087  0.00  0.00    +0.000 A 
ATOM      4  C   UNL     1      45.478   6.895  11.259  0.00  0.00    +0.000 A 
ATOM      5  C   UNL     1      45.254   5.518  11.402  0.00  0.00    +0.000 A 
ATOM      6  C   UNL     1      45.940   4.827  12.404  0.00  0.00    +0.000 A 
ATOM      7  C   UNL     1      46.832   5.499  13.244  0.00  0.00    +0.000 A 
BRANCH   5   8
ATOM      8  C   UNL     1      44.288   4.791  10.493  0.00  0.00    +0.000 C 
BRANCH   8   9
ATOM      9  C   UNL     1      44.906   3.913   9.427  0.00  0.00    +0.000 A 
ATOM     10  C   UNL     1      44.913   2.523   9.550  0.00  0.00    +0.000 A 
ATOM     11  C   UNL     1      45.617   1.761   8.621  0.00  0.00    +0.000 A 
ATOM     12  C   UNL     1      46.296   2.398   7.592  0.00  0.00    +0.000 A 
ATOM     13  C   UNL     1      46.227   3.778   7.525  0.00  0.00    +0.000 A 
ATOM     14  N   UNL     1      45.555   4.545   8.413  0.00  0.00    +0.000 NA
ENDBRANCH   8   9
ENDBRANCH   5   8
ENDBRANCH   1   2
BRANCH   1  15
ATOM     15  N   UNL     1      48.038   7.057  15.319  0.00  0.00    +0.000 N 
ATOM     16  C   UNL     1      49.131   6.529  15.948  0.00  0.00    +0.000 C 
ATOM     17  O   UNL     1      50.264   6.576  15.475  0.00  0.00    +0.000 OA
ATOM     18  H   UNL     1      47.117   6.847  15.683  0.00  0.00    +0.000 HD
BRANCH  16  19
ATOM     19  C   UNL     1      48.879   5.937  17.270  0.00  0.00    +0.000 A 
ATOM     20  C   UNL     1      49.093   4.581  17.476  0.00  0.00    +0.000 A 
ATOM     21  S   UNL     1      48.760   4.074  19.071  0.00  0.00    +0.000 S 
ATOM     22  C   UNL     1      48.264   5.637  19.524  0.00  0.00    +0.000 A 
ATOM     23  N   UNL     1      47.802   5.890  20.780  0.00  0.00    +0.000 NA
ATOM     24  C   UNL     1      47.406   7.106  20.967  0.00  0.00    +0.000 A 
ATOM     25  N   UNL     1      47.448   8.095  20.021  0.00  0.00    +0.000 N 
ATOM     26  C   UNL     1      48.002   7.910  18.778  0.00  0.00    +0.000 A 
ATOM     27  O   UNL     1      48.188   8.859  18.024  0.00  0.00    +0.000 OA
ATOM     28  C   UNL     1      48.392   6.543  18.487  0.00  0.00    +0.000 A 
ATOM     29  H   UNL     1      47.164   9.038  20.245  0.00  0.00    +0.000 HD
ENDBRANCH  16  19
ENDBRANCH   1  15
BRANCH   1  30
ATOM     30  C   UNL     1      47.800   9.127  13.983  0.00  0.00    +0.000 C 
BRANCH  30  32
ATOM     31  C   UNL     1      49.860   9.505  12.895  0.00  0.00    +0.000 C 
ATOM     32  O   UNL     1      49.026   9.870  13.989  0.00  0.00    +0.000 OA
ENDBRANCH  30  32
ENDBRANCH   1  30
TORSDOF 7
ENDMDL
MODEL 5
REMARK VINA RESULT:    -7.085      3.087      7.501
REMARK INTER + INTRA:         -10.912
REMARK INTER:                  -9.589
REMARK INTRA:                  -1.323
REMARK UNBOUND:                -0.927
REMARK  Name = 
REMARK  8 active torsions:
REMARK  status: ('A' for Active; 'I' for Inactive)
REMARK    1  A    between atoms: C_1  and  O_2
REMARK    2  A    between atoms: O_2  and  C_3
REMARK    3  A    between atoms: C_3  and  C_4
REMARK    4  A    between atoms: C_4  and  N_5
REMARK    5  A    between atoms: C_4  and  C_18
REMARK    6  A    between atoms: C_6  and  C_8
REMARK    7  A    between atoms: C_21  and  C_22
REMARK    8  A    between atoms: C_22  and  C_23
REMARK                            x       y       z     vdW  Elec       q    Type
REMARK                         _______ _______ _______ _____ _____    ______ ____
ROOT
ATOM      1  C   UNL     1      48.249   7.599  12.918  0.00  0.00    +0.000 C 
ENDROOT
BRANCH   1   2
ATOM      2  C   UNL     1      48.672   6.958  14.232  0.00  0.00    +0.000 A 
ATOM      3  C   UNL     1      47.885   5.957  14.813  0.00  0.00    +0.000 A 
ATOM      4  C   UNL     1      48.276   5.346  16.009  0.00  0.00    +0.000 A 
ATOM      5  C   UNL     1      49.475   5.704  16.640  0.00  0.00    +0.000 A 
ATOM      6  C   UNL     1      50.265   6.703  16.063  0.00  0.00    +0.000 A 
ATOM      7  C   UNL     1      49.862   7.327  14.880  0.00  0.00    +0.000 A 
BRANCH   5   8
ATOM      8  C   UNL     1      49.910   5.030  17.922  0.00  0.00    +0.000 C 
BRANCH   8   9
ATOM      9  C   UNL     1      50.782   3.801  17.768  0.00  0.00    +0.000 A 
ATOM     10  C   UNL     1      50.245   2.582  17.356  0.00  0.00    +0.000 A 
ATOM     11  C   UNL     1      51.050   1.446  17.365  0.00  0.00    +0.000 A 
ATOM     12  C   UNL     1      52.370   1.549  17.782  0.00  0.00    +0.000 A 
ATOM     13  C   UNL     1      52.836   2.797  18.158  0.00  0.00    +0.000 A 
ATOM     14  N   UNL     1      52.077   3.917  18.162  0.00  0.00    +0.000 NA
ENDBRANCH   8   9
ENDBRANCH   5   8
ENDBRANCH   1   2
BRANCH   1  15
ATOM     15  N   UNL     1      47.535   6.623  12.107  0.00  0.00    +0.000 N 
ATOM     16  C   UNL     1      46.243   6.794  11.693  0.00  0.00    +0.000 C 
ATOM     17  O   UNL     1      45.614   7.834  11.874  0.00  0.00    +0.000 OA
ATOM     18  H   UNL     1      47.941   5.697  12.070  0.00  0.00    +0.000 HD
BRANCH  16  19
ATOM     19  C   UNL     1      45.655   5.662  10.963  0.00  0.00    +0.000 A 
ATOM     20  C   UNL     1      45.763   5.596   9.580  0.00  0.00    +0.000 A 
ATOM     21  S   UNL     1      45.034   4.209   8.906  0.00  0.00    +0.000 S 
ATOM     22  C   UNL     1      44.499   3.679  10.432  0.00  0.00    +0.000 A 
ATOM     23  N   UNL     1      43.755   2.546  10.561  0.00  0.00    +0.000 NA
ATOM     24  C   UNL     1      43.370   2.296  11.768  0.00  0.00    +0.000 A 
ATOM     25  N   UNL     1      43.677   3.062  12.860  0.00  0.00    +0.000 N 
ATOM     26  C   UNL     1      44.509   4.152  12.792  0.00  0.00    +0.000 A 
ATOM     27  O   UNL     1      44.908   4.705  13.811  0.00  0.00    +0.000 OA
ATOM     28  C   UNL     1      44.908   4.524  11.447  0.00  0.00    +0.000 A 
ATOM     29  H   UNL     1      43.381   2.786  13.785  0.00  0.00    +0.000 HD
ENDBRANCH  16  19
ENDBRANCH   1  15
BRANCH   1  30
ATOM     30  C   UNL     1      49.475   8.160  12.159  0.00  0.00    +0.000 C 
BRANCH  30  32
ATOM     31  C   UNL     1      48.236  10.151  12.421  0.00  0.00    +0.000 C 
ATOM     32  O   UNL     1      49.192   9.460  11.625  0.00  0.00    +0.000 OA
ENDBRANCH  30  32
ENDBRANCH   1  30
TORSDOF 7
ENDMDL
MODEL 6
REMARK VINA RESULT:    -6.984      2.702      4.859
REMARK INTER + INTRA:         -10.769
REMARK INTER:                  -9.546
REMARK INTRA:                  -1.223
REMARK UNBOUND:                -0.927
REMARK  Name = 
REMARK  8 active torsions:
REMARK  status: ('A' for Active; 'I' for Inactive)
REMARK    1  A    between atoms: C_1  and  O_2
REMARK    2  A    between atoms: O_2  and  C_3
REMARK    3  A    between atoms: C_3  and  C_4
REMARK    4  A    between atoms: C_4  and  N_5
REMARK    5  A    between atoms: C_4  and  C_18
REMARK    6  A    between atoms: C_6  and  C_8
REMARK    7  A    between atoms: C_21  and  C_22
REMARK    8  A    between atoms: C_22  and  C_23
REMARK                            x       y       z     vdW  Elec       q    Type
REMARK                         _______ _______ _______ _____ _____    ______ ____
ROOT
ATOM      1  C   UNL     1      47.292   5.652  14.736  0.00  0.00    +0.000 C 
ENDROOT
BRANCH   1   2
ATOM      2  C   UNL     1      46.589   5.296  13.433  0.00  0.00    +0.000 A 
ATOM      3  C   UNL     1      45.918   4.075  13.305  0.00  0.00    +0.000 A 
ATOM      4  C   UNL     1      45.251   3.748  12.120  0.00  0.00    +0.000 A 
ATOM      5  C   UNL     1      45.217   4.646  11.043  0.00  0.00    +0.000 A 
ATOM      6  C   UNL     1      45.885   5.868  11.168  0.00  0.00    +0.000 A 
ATOM      7  C   UNL     1      46.570   6.183  12.344  0.00  0.00    +0.000 A 
BRANCH   5   8
ATOM      8  C   UNL     1      44.478   4.303   9.769  0.00  0.00    +0.000 C 
BRANCH   8   9
ATOM      9  C   UNL     1      45.251   3.500   8.744  0.00  0.00    +0.000 A 
ATOM     10  C   UNL     1      45.431   2.125   8.891  0.00  0.00    +0.000 A 
ATOM     11  C   UNL     1      46.267   1.450   8.005  0.00  0.00    +0.000 A 
ATOM     12  C   UNL     1      46.903   2.158   6.994  0.00  0.00    +0.000 A 
ATOM     13  C   UNL     1      46.659   3.517   6.902  0.00  0.00    +0.000 A 
ATOM     14  N   UNL     1      45.855   4.200   7.748  0.00  0.00    +0.000 NA
ENDBRANCH   8   9
ENDBRANCH   5   8
ENDBRANCH   1   2
BRANCH   1  15
ATOM     15  N   UNL     1      48.597   6.227  14.444  0.00  0.00    +0.000 N 
ATOM     16  C   UNL     1      48.932   7.518  14.745  0.00  0.00    +0.000 C 
ATOM     17  O   UNL     1      48.201   8.267  15.388  0.00  0.00    +0.000 OA
ATOM     18  H   UNL     1      49.167   5.717  13.781  0.00  0.00    +0.000 HD
BRANCH  16  19
ATOM     19  C   UNL     1      50.261   7.952  14.291  0.00  0.00    +0.000 A 
ATOM     20  C   UNL     1      51.374   7.733  15.091  0.00  0.00    +0.000 A 
ATOM     21  S   UNL     1      52.830   8.290  14.399  0.00  0.00    +0.000 S 
ATOM     22  C   UNL     1      52.015   8.895  13.033  0.00  0.00    +0.000 A 
ATOM     23  N   UNL     1      52.688   9.550  12.047  0.00  0.00    +0.000 NA
ATOM     24  C   UNL     1      51.936  10.005  11.100  0.00  0.00    +0.000 A 
ATOM     25  N   UNL     1      50.577   9.848  11.039  0.00  0.00    +0.000 N 
ATOM     26  C   UNL     1      49.874   9.106  11.955  0.00  0.00    +0.000 A 
ATOM     27  O   UNL     1      48.692   8.834  11.772  0.00  0.00    +0.000 OA
ATOM     28  C   UNL     1      50.658   8.636  13.083  0.00  0.00    +0.000 A 
ATOM     29  H   UNL     1      50.053  10.190  10.247  0.00  0.00    +0.000 HD
ENDBRANCH  16  19
ENDBRANCH   1  15
BRANCH   1  30
ATOM     30  C   UNL     1      47.424   4.410  15.648  0.00  0.00    +0.000 C 
BRANCH  30  32
ATOM     31  C   UNL     1      48.210   4.053  17.845  0.00  0.00    +0.000 C 
ATOM     32  O   UNL     1      47.296   4.777  17.029  0.00  0.00    +0.000 OA
ENDBRANCH  30  32
ENDBRANCH   1  30
TORSDOF 7
ENDMDL
MODEL 7
REMARK VINA RESULT:    -6.698      3.295      5.776
REMARK INTER + INTRA:         -10.366
REMARK INTER:                  -9.300
REMARK INTRA:                  -1.067
REMARK UNBOUND:                -0.927
REMARK  Name = 
REMARK  8 active torsions:
REMARK  status: ('A' for Active; 'I' for Inactive)
REMARK    1  A    between atoms: C_1  and  O_2
REMARK    2  A    between atoms: O_2  and  C_3
REMARK    3  A    between atoms: C_3  and  C_4
REMARK    4  A    between atoms: C_4  and  N_5
REMARK    5  A    between atoms: C_4  and  C_18
REMARK    6  A    between atoms: C_6  and  C_8
REMARK    7  A    between atoms: C_21  and  C_22
REMARK    8  A    between atoms: C_22  and  C_23
REMARK                            x       y       z     vdW  Elec       q    Type
REMARK                         _______ _______ _______ _____ _____    ______ ____
ROOT
ATOM      1  C   UNL     1      46.183   5.060  13.974  0.00  0.00    +0.000 C 
ENDROOT
BRANCH   1   2
ATOM      2  C   UNL     1      46.082   6.422  13.302  0.00  0.00    +0.000 A 
ATOM      3  C   UNL     1      45.004   6.715  12.459  0.00  0.00    +0.000 A 
ATOM      4  C   UNL     1      44.890   7.970  11.855  0.00  0.00    +0.000 A 
ATOM      5  C   UNL     1      45.839   8.974  12.099  0.00  0.00    +0.000 A 
ATOM      6  C   UNL     1      46.917   8.686  12.942  0.00  0.00    +0.000 A 
ATOM      7  C   UNL     1      47.040   7.424  13.527  0.00  0.00    +0.000 A 
BRANCH   5   8
ATOM      8  C   UNL     1      45.706  10.339  11.463  0.00  0.00    +0.000 C 
BRANCH   8   9
ATOM      9  C   UNL     1      44.341  10.688  10.909  0.00  0.00    +0.000 A 
ATOM     10  C   UNL     1      43.276  10.997  11.755  0.00  0.00    +0.000 A 
ATOM     11  C   UNL     1      42.005  11.170  11.214  0.00  0.00    +0.000 A 
ATOM     12  C   UNL     1      41.823  11.032   9.844  0.00  0.00    +0.000 A 
ATOM     13  C   UNL     1      42.931  10.743   9.068  0.00  0.00    +0.000 A 
ATOM     14  N   UNL     1      44.176  10.566   9.566  0.00  0.00    +0.000 NA
ENDBRANCH   8   9
ENDBRANCH   5   8
ENDBRANCH   1   2
BRANCH   1  15
ATOM     15  N   UNL     1      47.341   5.036  14.854  0.00  0.00    +0.000 N 
ATOM     16  C   UNL     1      47.349   4.402  16.067  0.00  0.00    +0.000 C 
ATOM     17  O   UNL     1      46.419   3.704  16.463  0.00  0.00    +0.000 OA
ATOM     18  H   UNL     1      48.062   5.718  14.656  0.00  0.00    +0.000 HD
BRANCH  16  19
ATOM     19  C   UNL     1      48.576   4.563  16.860  0.00  0.00    +0.000 A 
ATOM     20  C   UNL     1      48.849   5.775  17.480  0.00  0.00    +0.000 A 
ATOM     21  S   UNL     1      50.307   5.774  18.365  0.00  0.00    +0.000 S 
ATOM     22  C   UNL     1      50.652   4.173  17.903  0.00  0.00    +0.000 A 
ATOM     23  N   UNL     1      51.804   3.562  18.294  0.00  0.00    +0.000 NA
ATOM     24  C   UNL     1      51.962   2.369  17.823  0.00  0.00    +0.000 A 
ATOM     25  N   UNL     1      51.064   1.724  17.015  0.00  0.00    +0.000 N 
ATOM     26  C   UNL     1      49.845   2.262  16.683  0.00  0.00    +0.000 A 
ATOM     27  O   UNL     1      48.994   1.588  16.112  0.00  0.00    +0.000 OA
ATOM     28  C   UNL     1      49.648   3.631  17.121  0.00  0.00    +0.000 A 
ATOM     29  H   UNL     1      51.227   0.774  16.717  0.00  0.00    +0.000 HD
ENDBRANCH  16  19
ENDBRANCH   1  15
BRANCH   1  30
ATOM     30  C   UNL     1      46.263   3.930  12.920  0.00  0.00    +0.000 C 
BRANCH  30  32
ATOM     31  C   UNL     1      44.442   3.201  11.608  0.00  0.00    +0.000 C 
ATOM     32  O   UNL     1      45.047   3.170  12.896  0.00  0.00    +0.000 OA
ENDBRANCH  30  32
ENDBRANCH   1  30
TORSDOF 7
ENDMDL
MODEL 8
REMARK VINA RESULT:    -6.362      2.757      8.353
REMARK INTER + INTRA:          -9.893
REMARK INTER:                  -8.741
REMARK INTRA:                  -1.153
REMARK UNBOUND:                -0.927
REMARK  Name = 
REMARK  8 active torsions:
REMARK  status: ('A' for Active; 'I' for Inactive)
REMARK    1  A    between atoms: C_1  and  O_2
REMARK    2  A    between atoms: O_2  and  C_3
REMARK    3  A    between atoms: C_3  and  C_4
REMARK    4  A    between atoms: C_4  and  N_5
REMARK    5  A    between atoms: C_4  and  C_18
REMARK    6  A    between atoms: C_6  and  C_8
REMARK    7  A    between atoms: C_21  and  C_22
REMARK    8  A    between atoms: C_22  and  C_23
REMARK                            x       y       z     vdW  Elec       q    Type
REMARK                         _______ _______ _______ _____ _____    ______ ____
ROOT
ATOM      1  C   UNL     1      47.228   7.968  12.798  0.00  0.00    +0.000 C 
ENDROOT
BRANCH   1   2
ATOM      2  C   UNL     1      47.935   7.830  14.138  0.00  0.00    +0.000 A 
ATOM      3  C   UNL     1      47.997   8.916  15.018  0.00  0.00    +0.000 A 
ATOM      4  C   UNL     1      48.625   8.793  16.261  0.00  0.00    +0.000 A 
ATOM      5  C   UNL     1      49.184   7.572  16.666  0.00  0.00    +0.000 A 
ATOM      6  C   UNL     1      49.123   6.484  15.791  0.00  0.00    +0.000 A 
ATOM      7  C   UNL     1      48.514   6.615  14.540  0.00  0.00    +0.000 A 
BRANCH   5   8
ATOM      8  C   UNL     1      49.844   7.431  18.019  0.00  0.00    +0.000 C 
BRANCH   8   9
ATOM      9  C   UNL     1      49.094   6.608  19.045  0.00  0.00    +0.000 A 
ATOM     10  C   UNL     1      47.899   7.063  19.602  0.00  0.00    +0.000 A 
ATOM     11  C   UNL     1      47.317   6.345  20.644  0.00  0.00    +0.000 A 
ATOM     12  C   UNL     1      47.937   5.193  21.107  0.00  0.00    +0.000 A 
ATOM     13  C   UNL     1      49.111   4.795  20.492  0.00  0.00    +0.000 A 
ATOM     14  N   UNL     1      49.701   5.472  19.480  0.00  0.00    +0.000 NA
ENDBRANCH   8   9
ENDBRANCH   5   8
ENDBRANCH   1   2
BRANCH   1  15
ATOM     15  N   UNL     1      46.562   6.717  12.466  0.00  0.00    +0.000 N 
ATOM     16  C   UNL     1      45.375   6.655  11.789  0.00  0.00    +0.000 C 
ATOM     17  O   UNL     1      44.829   7.642  11.304  0.00  0.00    +0.000 OA
ATOM     18  H   UNL     1      46.877   5.900  12.974  0.00  0.00    +0.000 HD
BRANCH  16  19
ATOM     19  C   UNL     1      44.806   5.310  11.627  0.00  0.00    +0.000 A 
ATOM     20  C   UNL     1      44.106   4.720  12.671  0.00  0.00    +0.000 A 
ATOM     21  S   UNL     1      43.509   3.166  12.298  0.00  0.00    +0.000 S 
ATOM     22  C   UNL     1      44.215   3.204  10.750  0.00  0.00    +0.000 A 
ATOM     23  N   UNL     1      44.117   2.139   9.908  0.00  0.00    +0.000 NA
ATOM     24  C   UNL     1      44.748   2.284   8.790  0.00  0.00    +0.000 A 
ATOM     25  N   UNL     1      45.449   3.403   8.429  0.00  0.00    +0.000 N 
ATOM     26  C   UNL     1      45.486   4.537   9.202  0.00  0.00    +0.000 A 
ATOM     27  O   UNL     1      45.969   5.579   8.769  0.00  0.00    +0.000 OA
ATOM     28  C   UNL     1      44.859   4.403  10.503  0.00  0.00    +0.000 A 
ATOM     29  H   UNL     1      45.884   3.470   7.520  0.00  0.00    +0.000 HD
ENDBRANCH  16  19
ENDBRANCH   1  15
BRANCH   1  30
ATOM     30  C   UNL     1      48.225   8.377  11.688  0.00  0.00    +0.000 C 
BRANCH  30  32
ATOM     31  C   UNL     1      47.268  10.534  11.713  0.00  0.00    +0.000 C 
ATOM     32  O   UNL     1      48.480   9.788  11.727  0.00  0.00    +0.000 OA
ENDBRANCH  30  32
ENDBRANCH   1  30
TORSDOF 7
ENDMDL
MODEL 9
REMARK VINA RESULT:    -6.353      2.933      4.635
REMARK INTER + INTRA:          -9.879
REMARK INTER:                  -8.874
REMARK INTRA:                  -1.005
REMARK UNBOUND:                -0.927
REMARK  Name = 
REMARK  8 active torsions:
REMARK  status: ('A' for Active; 'I' for Inactive)
REMARK    1  A    between atoms: C_1  and  O_2
REMARK    2  A    between atoms: O_2  and  C_3
REMARK    3  A    between atoms: C_3  and  C_4
REMARK    4  A    between atoms: C_4  and  N_5
REMARK    5  A    between atoms: C_4  and  C_18
REMARK    6  A    between atoms: C_6  and  C_8
REMARK    7  A    between atoms: C_21  and  C_22
REMARK    8  A    between atoms: C_22  and  C_23
REMARK                            x       y       z     vdW  Elec       q    Type
REMARK                         _______ _______ _______ _____ _____    ______ ____
ROOT
ATOM      1  C   UNL     1      47.665   5.377  15.527  0.00  0.00    +0.000 C 
ENDROOT
BRANCH   1   2
ATOM      2  C   UNL     1      47.013   5.395  14.152  0.00  0.00    +0.000 A 
ATOM      3  C   UNL     1      46.130   4.376  13.777  0.00  0.00    +0.000 A 
ATOM      4  C   UNL     1      45.508   4.395  12.525  0.00  0.00    +0.000 A 
ATOM      5  C   UNL     1      45.735   5.448  11.626  0.00  0.00    +0.000 A 
ATOM      6  C   UNL     1      46.615   6.469  11.997  0.00  0.00    +0.000 A 
ATOM      7  C   UNL     1      47.252   6.437  13.240  0.00  0.00    +0.000 A 
BRANCH   5   8
ATOM      8  C   UNL     1      45.046   5.481  10.280  0.00  0.00    +0.000 C 
BRANCH   8   9
ATOM      9  C   UNL     1      45.392   4.358   9.325  0.00  0.00    +0.000 A 
ATOM     10  C   UNL     1      45.089   3.031   9.631  0.00  0.00    +0.000 A 
ATOM     11  C   UNL     1      45.551   2.018   8.795  0.00  0.00    +0.000 A 
ATOM     12  C   UNL     1      46.302   2.347   7.676  0.00  0.00    +0.000 A 
ATOM     13  C   UNL     1      46.546   3.686   7.429  0.00  0.00    +0.000 A 
ATOM     14  N   UNL     1      46.113   4.692   8.223  0.00  0.00    +0.000 NA
ENDBRANCH   8   9
ENDBRANCH   5   8
ENDBRANCH   1   2
BRANCH   1  15
ATOM     15  N   UNL     1      49.053   5.803  15.413  0.00  0.00    +0.000 N 
ATOM     16  C   UNL     1      49.498   7.027  15.831  0.00  0.00    +0.000 C 
ATOM     17  O   UNL     1      48.790   7.824  16.441  0.00  0.00    +0.000 OA
ATOM     18  H   UNL     1      49.632   5.262  14.783  0.00  0.00    +0.000 HD
BRANCH  16  19
ATOM     19  C   UNL     1      50.911   7.318  15.551  0.00  0.00    +0.000 A 
ATOM     20  C   UNL     1      51.249   8.293  14.621  0.00  0.00    +0.000 A 
ATOM     21  S   UNL     1      52.931   8.502  14.435  0.00  0.00    +0.000 S 
ATOM     22  C   UNL     1      53.267   7.258  15.547  0.00  0.00    +0.000 A 
ATOM     23  N   UNL     1      54.547   6.887  15.821  0.00  0.00    +0.000 NA
ATOM     24  C   UNL     1      54.652   5.892  16.638  0.00  0.00    +0.000 A 
ATOM     25  N   UNL     1      53.594   5.248  17.222  0.00  0.00    +0.000 N 
ATOM     26  C   UNL     1      52.293   5.655  17.055  0.00  0.00    +0.000 A 
ATOM     27  O   UNL     1      51.391   5.173  17.732  0.00  0.00    +0.000 OA
ATOM     28  C   UNL     1      52.112   6.720  16.086  0.00  0.00    +0.000 A 
ATOM     29  H   UNL     1      53.745   4.505  17.888  0.00  0.00    +0.000 HD
ENDBRANCH  16  19
ENDBRANCH   1  15
BRANCH   1  30
ATOM     30  C   UNL     1      47.567   3.972  16.166  0.00  0.00    +0.000 C 
BRANCH  30  32
ATOM     31  C   UNL     1      49.013   2.132  16.475  0.00  0.00    +0.000 C 
ATOM     32  O   UNL     1      48.850   3.536  16.638  0.00  0.00    +0.000 OA
ENDBRANCH  30  32
ENDBRANCH   1  30
TORSDOF 7
ENDMDL
