MODEL 1
REMARK VINA RESULT:    -7.966      0.000      0.000
REMARK INTER + INTRA:         -11.011
REMARK INTER:                 -10.295
REMARK INTRA:                  -0.716
REMARK UNBOUND:                -0.716
REMARK  Name = 
REMARK  5 active torsions:
REMARK  status: ('A' for Active; 'I' for Inactive)
REMARK    1  A    between atoms: C_5  and  N_6
REMARK    2  A    between atoms: N_6  and  C_7
REMARK    3  A    between atoms: C_7  and  C_8
REMARK    4  A    between atoms: C_8  and  C_9
REMARK    5  A    between atoms: C_13  and  C_14
REMARK                            x       y       z     vdW  Elec       q    Type
REMARK                         _______ _______ _______ _____ _____    ______ ____
ROOT
ATOM      1  C   UNL     1      44.789   6.751  11.148  0.00  0.00    +0.000 C 
ENDROOT
BRANCH   1   2
ATOM      2  C   UNL     1      44.566   5.325  10.716  0.00  0.00    +0.000 A 
ATOM      3  C   UNL     1      43.601   4.532  11.320  0.00  0.00    +0.000 A 
ATOM      4  N   UNL     1      43.359   3.252  10.974  0.00  0.00    +0.000 NA
ATOM      5  C   UNL     1      44.114   2.736   9.972  0.00  0.00    +0.000 A 
ATOM      6  C   UNL     1      45.100   3.428   9.262  0.00  0.00    +0.000 A 
ATOM      7  C   UNL     1      45.304   4.759   9.666  0.00  0.00    +0.000 A 
BRANCH   6   8
ATOM      8  C   UNL     1      45.871   2.808   8.162  0.00  0.00    +0.000 A 
ATOM      9  C   UNL     1      46.237   3.530   7.015  0.00  0.00    +0.000 A 
ATOM     10  C   UNL     1      46.970   2.905   6.014  0.00  0.00    +0.000 A 
ATOM     11  N   UNL     1      47.373   1.621   6.070  0.00  0.00    +0.000 NA
ATOM     12  C   UNL     1      47.021   0.931   7.170  0.00  0.00    +0.000 A 
ATOM     13  C   UNL     1      46.283   1.467   8.217  0.00  0.00    +0.000 A 
ENDBRANCH   6   8
ENDBRANCH   1   2
BRANCH   1  14
ATOM     14  C   UNL     1      45.457   6.834  12.525  0.00  0.00    +0.000 C 
BRANCH  14  15
ATOM     15  N   UNL     1      46.822   6.298  12.468  0.00  0.00    +0.000 N 
ATOM     16  H   UNL     1      47.524   7.017  12.302  0.00  0.00    +0.000 HD
BRANCH  15  21
ATOM     17  N   UNL     1      48.120   2.783  16.522  0.00  0.00    +0.000 N 
ATOM     18  C   UNL     1      47.815   3.662  15.504  0.00  0.00    +0.000 A 
ATOM     19  N   UNL     1      48.079   4.953  15.711  0.00  0.00    +0.000 NA
ATOM     20  C   UNL     1      47.761   5.799  14.705  0.00  0.00    +0.000 A 
ATOM     21  C   UNL     1      47.213   5.425  13.490  0.00  0.00    +0.000 A 
ATOM     22  C   UNL     1      46.933   4.068  13.440  0.00  0.00    +0.000 A 
ATOM     23  N   UNL     1      47.228   3.174  14.413  0.00  0.00    +0.000 NA
ATOM     24  H   UNL     1      48.140   3.285  17.398  0.00  0.00    +0.000 HD
ATOM     25  H   UNL     1      47.513   1.978  16.465  0.00  0.00    +0.000 HD
ENDBRANCH  15  21
ENDBRANCH  14  15
ENDBRANCH   1  14
TORSDOF 5
ENDMDL
MODEL 2
REMARK VINA RESULT:    -7.608      1.880      7.120
REMARK INTER + INTRA:         -10.548
REMARK INTER:                  -9.973
REMARK INTRA:                  -0.575
REMARK UNBOUND:                -0.716
REMARK  Name = 
REMARK  5 active torsions:
REMARK  status: ('A' for Active; 'I' for Inactive)
REMARK    1  A    between atoms: C_5  and  N_6
REMARK    2  A    between atoms: N_6  and  C_7
REMARK    3  A    between atoms: C_7  and  C_8
REMARK    4  A    between atoms: C_8  and  C_9
REMARK    5  A    between atoms: C_13  and  C_14
REMARK                            x       y       z     vdW  Elec       q    Type
REMARK                         _______ _______ _______ _____ _____    ______ ____
ROOT
ATOM      1  C   UNL     1      44.075   3.213  11.591  0.00  0.00    +0.000 C 
ENDROOT
BRANCH   1   2
ATOM      2  C   UNL     1      45.194   3.997  12.224  0.00  0.00    +0.000 A 
ATOM      3  C   UNL     1      46.153   3.377  13.014  0.00  0.00    +0.000 A 
ATOM      4  N   UNL     1      47.174   4.029  13.603  0.00  0.00    +0.000 NA
ATOM      5  C   UNL     1      47.248   5.368  13.394  0.00  0.00    +0.000 A 
ATOM      6  C   UNL     1      46.368   6.113  12.603  0.00  0.00    +0.000 A 
ATOM      7  C   UNL     1      45.326   5.377  12.012  0.00  0.00    +0.000 A 
BRANCH   6   8
ATOM      8  C   UNL     1      46.523   7.571  12.399  0.00  0.00    +0.000 A 
ATOM      9  C   UNL     1      47.784   8.167  12.243  0.00  0.00    +0.000 A 
ATOM     10  C   UNL     1      47.875   9.539  12.044  0.00  0.00    +0.000 A 
ATOM     11  N   UNL     1      46.809  10.360  11.981  0.00  0.00    +0.000 NA
ATOM     12  C   UNL     1      45.602   9.786  12.131  0.00  0.00    +0.000 A 
ATOM     13  C   UNL     1      45.412   8.428  12.343  0.00  0.00    +0.000 A 
ENDBRANCH   6   8
ENDBRANCH   1   2
BRANCH   1  14
ATOM     14  C   UNL     1      44.153   3.236  10.061  0.00  0.00    +0.000 C 
BRANCH  14  15
ATOM     15  N   UNL     1      44.781   2.009   9.558  0.00  0.00    +0.000 N 
ATOM     16  H   UNL     1      44.107   1.267   9.370  0.00  0.00    +0.000 HD
BRANCH  15  21
ATOM     17  N   UNL     1      48.232   2.590   5.289  0.00  0.00    +0.000 N 
ATOM     18  C   UNL     1      47.385   2.446   6.369  0.00  0.00    +0.000 A 
ATOM     19  N   UNL     1      47.318   1.241   6.936  0.00  0.00    +0.000 NA
ATOM     20  C   UNL     1      46.472   1.118   7.984  0.00  0.00    +0.000 A 
ATOM     21  C   UNL     1      45.704   2.140   8.515  0.00  0.00    +0.000 A 
ATOM     22  C   UNL     1      45.825   3.315   7.788  0.00  0.00    +0.000 A 
ATOM     23  N   UNL     1      46.653   3.497   6.733  0.00  0.00    +0.000 NA
ATOM     24  H   UNL     1      48.380   1.688   4.861  0.00  0.00    +0.000 HD
ATOM     25  H   UNL     1      47.896   3.335   4.695  0.00  0.00    +0.000 HD
ENDBRANCH  15  21
ENDBRANCH  14  15
ENDBRANCH   1  14
TORSDOF 5
ENDMDL
MODEL 3
REMARK VINA RESULT:    -7.511      1.550      7.458
REMARK INTER + INTRA:         -10.422
REMARK INTER:                  -9.857
REMARK INTRA:                  -0.565
REMARK UNBOUND:                -0.716
REMARK  Name = 
REMARK  5 active torsions:
REMARK  status: ('A' for Active; 'I' for Inactive)
REMARK    1  A    between atoms: C_5  and  N_6
REMARK    2  A    between atoms: N_6  and  C_7
REMARK    3  A    between atoms: C_7  and  C_8
REMARK    4  A    between atoms: C_8  and  C_9
REMARK    5  A    between atoms: C_13  and  C_14
REMARK                            x       y       z     vdW  Elec       q    Type
REMARK                         _______ _______ _______ _____ _____    ______ ____
ROOT
ATOM      1  C   UNL     1      44.251   3.259  11.629  0.00  0.00    +0.000 C 
ENDROOT
BRANCH   1   2
ATOM      2  C   UNL     1      45.243   4.305  12.063  0.00  0.00    +0.000 A 
ATOM      3  C   UNL     1      45.517   5.412  11.271  0.00  0.00    +0.000 A 
ATOM      4  N   UNL     1      46.393   6.377  11.610  0.00  0.00    +0.000 NA
ATOM      5  C   UNL     1      47.029   6.237  12.800  0.00  0.00    +0.000 A 
ATOM      6  C   UNL     1      46.831   5.190  13.704  0.00  0.00    +0.000 A 
ATOM      7  C   UNL     1      45.903   4.216  13.297  0.00  0.00    +0.000 A 
BRANCH   6   8
ATOM      8  C   UNL     1      47.544   5.111  15.000  0.00  0.00    +0.000 A 
ATOM      9  C   UNL     1      48.427   6.118  15.421  0.00  0.00    +0.000 A 
ATOM     10  C   UNL     1      49.064   6.003  16.650  0.00  0.00    +0.000 A 
ATOM     11  N   UNL     1      48.884   4.968  17.494  0.00  0.00    +0.000 NA
ATOM     12  C   UNL     1      48.038   4.005  17.088  0.00  0.00    +0.000 A 
ATOM     13  C   UNL     1      47.364   4.028  15.874  0.00  0.00    +0.000 A 
ENDBRANCH   6   8
ENDBRANCH   1   2
BRANCH   1  14
ATOM     14  C   UNL     1      44.142   3.171  10.103  0.00  0.00    +0.000 C 
BRANCH  14  15
ATOM     15  N   UNL     1      44.790   1.950   9.610  0.00  0.00    +0.000 N 
ATOM     16  H   UNL     1      44.137   1.179   9.479  0.00  0.00    +0.000 HD
BRANCH  15  21
ATOM     17  N   UNL     1      48.399   2.364   5.453  0.00  0.00    +0.000 N 
ATOM     18  C   UNL     1      47.482   2.262   6.479  0.00  0.00    +0.000 A 
ATOM     19  N   UNL     1      46.892   3.386   6.885  0.00  0.00    +0.000 NA
ATOM     20  C   UNL     1      46.006   3.265   7.900  0.00  0.00    +0.000 A 
ATOM     21  C   UNL     1      45.658   2.078   8.519  0.00  0.00    +0.000 A 
ATOM     22  C   UNL     1      46.394   1.004   8.040  0.00  0.00    +0.000 A 
ATOM     23  N   UNL     1      47.292   1.064   7.029  0.00  0.00    +0.000 NA
ATOM     24  H   UNL     1      48.761   3.307   5.425  0.00  0.00    +0.000 HD
ATOM     25  H   UNL     1      49.070   1.613   5.526  0.00  0.00    +0.000 HD
ENDBRANCH  15  21
ENDBRANCH  14  15
ENDBRANCH   1  14
TORSDOF 5
ENDMDL
MODEL 4
REMARK VINA RESULT:    -7.441      2.004      2.766
REMARK INTER + INTRA:         -10.332
REMARK INTER:                  -9.714
REMARK INTRA:                  -0.618
REMARK UNBOUND:                -0.716
REMARK  Name = 
REMARK  5 active torsions:
REMARK  status: ('A' for Active; 'I' for Inactive)
REMARK    1  A    between atoms: C_5  and  N_6
REMARK    2  A    between atoms: N_6  and  C_7
REMARK    3  A    between atoms: C_7  and  C_8
REMARK    4  A    between atoms: C_8  and  C_9
REMARK    5  A    between atoms: C_13  and  C_14
REMARK                            x       y       z     vdW  Elec       q    Type
REMARK                         _______ _______ _______ _____ _____    ______ ____
ROOT
ATOM      1  C   UNL     1      44.347   6.405  11.372  0.00  0.00    +0.000 C 
ENDROOT
BRANCH   1   2
ATOM      2  C   UNL     1      44.284   4.978  10.894  0.00  0.00    +0.000 A 
ATOM      3  C   UNL     1      43.410   4.064  11.468  0.00  0.00    +0.000 A 
ATOM      4  N   UNL     1      43.312   2.777  11.081  0.00  0.00    +0.000 NA
ATOM      5  C   UNL     1      44.122   2.379  10.068  0.00  0.00    +0.000 A 
ATOM      6  C   UNL     1      45.026   3.198   9.386  0.00  0.00    +0.000 A 
ATOM      7  C   UNL     1      45.081   4.530   9.832  0.00  0.00    +0.000 A 
BRANCH   6   8
ATOM      8  C   UNL     1      45.865   2.701   8.271  0.00  0.00    +0.000 A 
ATOM      9  C   UNL     1      46.303   3.547   7.241  0.00  0.00    +0.000 A 
ATOM     10  C   UNL     1      47.096   3.034   6.222  0.00  0.00    +0.000 A 
ATOM     11  N   UNL     1      47.492   1.748   6.154  0.00  0.00    +0.000 NA
ATOM     12  C   UNL     1      47.070   0.940   7.143  0.00  0.00    +0.000 A 
ATOM     13  C   UNL     1      46.269   1.358   8.196  0.00  0.00    +0.000 A 
ENDBRANCH   6   8
ENDBRANCH   1   2
BRANCH   1  14
ATOM     14  C   UNL     1      44.734   6.498  12.852  0.00  0.00    +0.000 C 
BRANCH  14  15
ATOM     15  N   UNL     1      45.546   7.695  13.098  0.00  0.00    +0.000 N 
ATOM     16  H   UNL     1      45.374   8.110  14.013  0.00  0.00    +0.000 HD
BRANCH  15  21
ATOM     17  N   UNL     1      50.892   7.379  11.759  0.00  0.00    +0.000 N 
ATOM     18  C   UNL     1      49.561   7.463  12.113  0.00  0.00    +0.000 A 
ATOM     19  N   UNL     1      49.041   6.433  12.780  0.00  0.00    +0.000 NA
ATOM     20  C   UNL     1      47.732   6.530  13.106  0.00  0.00    +0.000 A 
ATOM     21  C   UNL     1      46.916   7.611  12.821  0.00  0.00    +0.000 A 
ATOM     22  C   UNL     1      47.570   8.575  12.070  0.00  0.00    +0.000 A 
ATOM     23  N   UNL     1      48.876   8.534  11.715  0.00  0.00    +0.000 NA
ATOM     24  H   UNL     1      51.165   6.408  11.724  0.00  0.00    +0.000 HD
ATOM     25  H   UNL     1      51.056   7.937  10.933  0.00  0.00    +0.000 HD
ENDBRANCH  15  21
ENDBRANCH  14  15
ENDBRANCH   1  14
TORSDOF 5
ENDMDL
MODEL 5
REMARK VINA RESULT:    -7.348      2.396      6.908
REMARK INTER + INTRA:         -10.211
REMARK INTER:                  -9.648
REMARK INTRA:                  -0.563
REMARK UNBOUND:                -0.716
REMARK  Name = 
REMARK  5 active torsions:
REMARK  status: ('A' for Active; 'I' for Inactive)
REMARK    1  A    between atoms: C_5  and  N_6
REMARK    2  A    between atoms: N_6  and  C_7
REMARK    3  A    between atoms: C_7  and  C_8
REMARK    4  A    between atoms: C_8  and  C_9
REMARK    5  A    between atoms: C_13  and  C_14
REMARK                            x       y       z     vdW  Elec       q    Type
REMARK                         _______ _______ _______ _____ _____    ______ ____
ROOT
ATOM      1  C   UNL     1      44.229   4.695  10.932  0.00  0.00    +0.000 C 
ENDROOT
BRANCH   1   2
ATOM      2  C   UNL     1      45.310   5.134  11.884  0.00  0.00    +0.000 A 
ATOM      3  C   UNL     1      45.507   4.490  13.098  0.00  0.00    +0.000 A 
ATOM      4  N   UNL     1      46.458   4.841  13.986  0.00  0.00    +0.000 NA
ATOM      5  C   UNL     1      47.257   5.883  13.648  0.00  0.00    +0.000 A 
ATOM      6  C   UNL     1      47.186   6.602  12.451  0.00  0.00    +0.000 A 
ATOM      7  C   UNL     1      46.177   6.188  11.564  0.00  0.00    +0.000 A 
BRANCH   6   8
ATOM      8  C   UNL     1      48.108   7.717  12.137  0.00  0.00    +0.000 A 
ATOM      9  C   UNL     1      49.461   7.496  11.836  0.00  0.00    +0.000 A 
ATOM     10  C   UNL     1      50.284   8.575  11.538  0.00  0.00    +0.000 A 
ATOM     11  N   UNL     1      49.862   9.855  11.509  0.00  0.00    +0.000 NA
ATOM     12  C   UNL     1      48.565  10.063  11.798  0.00  0.00    +0.000 A 
ATOM     13  C   UNL     1      47.670   9.051  12.117  0.00  0.00    +0.000 A 
ENDBRANCH   6   8
ENDBRANCH   1   2
BRANCH   1  14
ATOM     14  C   UNL     1      44.268   3.184  10.678  0.00  0.00    +0.000 C 
BRANCH  14  15
ATOM     15  N   UNL     1      44.136   2.900   9.244  0.00  0.00    +0.000 N 
ATOM     16  H   UNL     1      43.484   3.526   8.774  0.00  0.00    +0.000 HD
BRANCH  15  21
ATOM     17  N   UNL     1      48.665   2.350   6.135  0.00  0.00    +0.000 N 
ATOM     18  C   UNL     1      47.544   2.488   6.929  0.00  0.00    +0.000 A 
ATOM     19  N   UNL     1      47.102   1.397   7.556  0.00  0.00    +0.000 NA
ATOM     20  C   UNL     1      45.996   1.552   8.318  0.00  0.00    +0.000 A 
ATOM     21  C   UNL     1      45.317   2.742   8.509  0.00  0.00    +0.000 A 
ATOM     22  C   UNL     1      45.847   3.773   7.748  0.00  0.00    +0.000 A 
ATOM     23  N   UNL     1      46.950   3.679   6.968  0.00  0.00    +0.000 NA
ATOM     24  H   UNL     1      48.752   1.385   5.851  0.00  0.00    +0.000 HD
ATOM     25  H   UNL     1      48.647   3.048   5.405  0.00  0.00    +0.000 HD
ENDBRANCH  15  21
ENDBRANCH  14  15
ENDBRANCH   1  14
TORSDOF 5
ENDMDL
MODEL 6
REMARK VINA RESULT:    -7.293      2.540      7.027
REMARK INTER + INTRA:         -10.141
REMARK INTER:                  -9.614
REMARK INTRA:                  -0.527
REMARK UNBOUND:                -0.716
REMARK  Name = 
REMARK  5 active torsions:
REMARK  status: ('A' for Active; 'I' for Inactive)
REMARK    1  A    between atoms: C_5  and  N_6
REMARK    2  A    between atoms: N_6  and  C_7
REMARK    3  A    between atoms: C_7  and  C_8
REMARK    4  A    between atoms: C_8  and  C_9
REMARK    5  A    between atoms: C_13  and  C_14
REMARK                            x       y       z     vdW  Elec       q    Type
REMARK                         _______ _______ _______ _____ _____    ______ ____
ROOT
ATOM      1  C   UNL     1      44.889   3.333  11.461  0.00  0.00    +0.000 C 
ENDROOT
BRANCH   1   2
ATOM      2  C   UNL     1      45.185   4.796  11.659  0.00  0.00    +0.000 A 
ATOM      3  C   UNL     1      44.219   5.765  11.423  0.00  0.00    +0.000 A 
ATOM      4  N   UNL     1      44.429   7.086  11.584  0.00  0.00    +0.000 NA
ATOM      5  C   UNL     1      45.663   7.463  12.005  0.00  0.00    +0.000 A 
ATOM      6  C   UNL     1      46.717   6.595  12.302  0.00  0.00    +0.000 A 
ATOM      7  C   UNL     1      46.436   5.229  12.119  0.00  0.00    +0.000 A 
BRANCH   6   8
ATOM      8  C   UNL     1      48.033   7.075  12.780  0.00  0.00    +0.000 A 
ATOM      9  C   UNL     1      48.973   7.646  11.908  0.00  0.00    +0.000 A 
ATOM     10  C   UNL     1      50.191   8.091  12.407  0.00  0.00    +0.000 A 
ATOM     11  N   UNL     1      50.541   8.019  13.707  0.00  0.00    +0.000 NA
ATOM     12  C   UNL     1      49.637   7.471  14.540  0.00  0.00    +0.000 A 
ATOM     13  C   UNL     1      48.400   6.991  14.132  0.00  0.00    +0.000 A 
ENDBRANCH   6   8
ENDBRANCH   1   2
BRANCH   1  14
ATOM     14  C   UNL     1      44.111   3.075  10.165  0.00  0.00    +0.000 C 
BRANCH  14  15
ATOM     15  N   UNL     1      44.581   1.844   9.519  0.00  0.00    +0.000 N 
ATOM     16  H   UNL     1      43.819   1.262   9.174  0.00  0.00    +0.000 HD
BRANCH  15  21
ATOM     17  N   UNL     1      48.442   2.406   5.614  0.00  0.00    +0.000 N 
ATOM     18  C   UNL     1      47.492   2.265   6.604  0.00  0.00    +0.000 A 
ATOM     19  N   UNL     1      47.298   1.040   7.094  0.00  0.00    +0.000 NA
ATOM     20  C   UNL     1      46.353   0.922   8.055  0.00  0.00    +0.000 A 
ATOM     21  C   UNL     1      45.604   1.965   8.571  0.00  0.00    +0.000 A 
ATOM     22  C   UNL     1      45.864   3.164   7.925  0.00  0.00    +0.000 A 
ATOM     23  N   UNL     1      46.796   3.343   6.960  0.00  0.00    +0.000 NA
ATOM     24  H   UNL     1      48.573   1.518   5.151  0.00  0.00    +0.000 HD
ATOM     25  H   UNL     1      48.209   3.200   5.035  0.00  0.00    +0.000 HD
ENDBRANCH  15  21
ENDBRANCH  14  15
ENDBRANCH   1  14
TORSDOF 5
ENDMDL
MODEL 7
REMARK VINA RESULT:    -7.068      1.979      7.071
REMARK INTER + INTRA:          -9.850
REMARK INTER:                  -9.252
REMARK INTRA:                  -0.598
REMARK UNBOUND:                -0.716
REMARK  Name = 
REMARK  5 active torsions:
REMARK  status: ('A' for Active; 'I' for Inactive)
REMARK    1  A    between atoms: C_5  and  N_6
REMARK    2  A    between atoms: N_6  and  C_7
REMARK    3  A    between atoms: C_7  and  C_8
REMARK    4  A    between atoms: C_8  and  C_9
REMARK    5  A    between atoms: C_13  and  C_14
REMARK                            x       y       z     vdW  Elec       q    Type
REMARK                         _______ _______ _______ _____ _____    ______ ____
ROOT
ATOM      1  C   UNL     1      44.898   5.720  10.831  0.00  0.00    +0.000 C 
ENDROOT
BRANCH   1   2
ATOM      2  C   UNL     1      45.675   5.343  12.065  0.00  0.00    +0.000 A 
ATOM      3  C   UNL     1      45.379   4.189  12.777  0.00  0.00    +0.000 A 
ATOM      4  N   UNL     1      46.041   3.803  13.886  0.00  0.00    +0.000 NA
ATOM      5  C   UNL     1      47.051   4.605  14.306  0.00  0.00    +0.000 A 
ATOM      6  C   UNL     1      47.470   5.778  13.672  0.00  0.00    +0.000 A 
ATOM      7  C   UNL     1      46.745   6.126  12.519  0.00  0.00    +0.000 A 
BRANCH   6   8
ATOM      8  C   UNL     1      48.599   6.594  14.174  0.00  0.00    +0.000 A 
ATOM      9  C   UNL     1      49.376   7.389  13.318  0.00  0.00    +0.000 A 
ATOM     10  C   UNL     1      50.418   8.145  13.840  0.00  0.00    +0.000 A 
ATOM     11  N   UNL     1      50.741   8.176  15.147  0.00  0.00    +0.000 NA
ATOM     12  C   UNL     1      49.994   7.413  15.966  0.00  0.00    +0.000 A 
ATOM     13  C   UNL     1      48.940   6.619  15.536  0.00  0.00    +0.000 A 
ENDBRANCH   6   8
ENDBRANCH   1   2
BRANCH   1  14
ATOM     14  C   UNL     1      43.858   4.657  10.461  0.00  0.00    +0.000 C 
BRANCH  14  15
ATOM     15  N   UNL     1      43.854   4.423   9.012  0.00  0.00    +0.000 N 
ATOM     16  H   UNL     1      43.765   5.282   8.472  0.00  0.00    +0.000 HD
BRANCH  15  21
ATOM     17  N   UNL     1      47.871   1.098   7.202  0.00  0.00    +0.000 N 
ATOM     18  C   UNL     1      46.857   1.927   7.636  0.00  0.00    +0.000 A 
ATOM     19  N   UNL     1      46.880   3.192   7.215  0.00  0.00    +0.000 NA
ATOM     20  C   UNL     1      45.885   3.991   7.663  0.00  0.00    +0.000 A 
ATOM     21  C   UNL     1      44.852   3.591   8.493  0.00  0.00    +0.000 A 
ATOM     22  C   UNL     1      44.991   2.273   8.901  0.00  0.00    +0.000 A 
ATOM     23  N   UNL     1      45.963   1.427   8.488  0.00  0.00    +0.000 NA
ATOM     24  H   UNL     1      48.671   1.658   6.946  0.00  0.00    +0.000 HD
ATOM     25  H   UNL     1      48.018   0.363   7.879  0.00  0.00    +0.000 HD
ENDBRANCH  15  21
ENDBRANCH  14  15
ENDBRANCH   1  14
TORSDOF 5
ENDMDL
MODEL 8
REMARK VINA RESULT:    -6.998      1.473      2.278
REMARK INTER + INTRA:          -9.759
REMARK INTER:                  -9.345
REMARK INTRA:                  -0.414
REMARK UNBOUND:                -0.716
REMARK  Name = 
REMARK  5 active torsions:
REMARK  status: ('A' for Active; 'I' for Inactive)
REMARK    1  A    between atoms: C_5  and  N_6
REMARK    2  A    between atoms: N_6  and  C_7
REMARK    3  A    between atoms: C_7  and  C_8
REMARK    4  A    between atoms: C_8  and  C_9
REMARK    5  A    between atoms: C_13  and  C_14
REMARK                            x       y       z     vdW  Elec       q    Type
REMARK                         _______ _______ _______ _____ _____    ______ ____
ROOT
ATOM      1  C   UNL     1      45.302   5.235  13.227  0.00  0.00    +0.000 C 
ENDROOT
BRANCH   1   2
ATOM      2  C   UNL     1      44.786   4.222  12.239  0.00  0.00    +0.000 A 
ATOM      3  C   UNL     1      43.635   3.489  12.493  0.00  0.00    +0.000 A 
ATOM      4  N   UNL     1      43.129   2.572  11.645  0.00  0.00    +0.000 NA
ATOM      5  C   UNL     1      43.801   2.375  10.483  0.00  0.00    +0.000 A 
ATOM      6  C   UNL     1      44.954   3.060  10.090  0.00  0.00    +0.000 A 
ATOM      7  C   UNL     1      45.432   4.006  11.013  0.00  0.00    +0.000 A 
BRANCH   6   8
ATOM      8  C   UNL     1      45.625   2.811   8.794  0.00  0.00    +0.000 A 
ATOM      9  C   UNL     1      45.856   3.841   7.870  0.00  0.00    +0.000 A 
ATOM     10  C   UNL     1      46.498   3.558   6.671  0.00  0.00    +0.000 A 
ATOM     11  N   UNL     1      46.933   2.331   6.325  0.00  0.00    +0.000 NA
ATOM     12  C   UNL     1      46.710   1.345   7.212  0.00  0.00    +0.000 A 
ATOM     13  C   UNL     1      46.069   1.529   8.429  0.00  0.00    +0.000 A 
ENDBRANCH   6   8
ENDBRANCH   1   2
BRANCH   1  14
ATOM     14  C   UNL     1      46.631   4.799  13.852  0.00  0.00    +0.000 C 
BRANCH  14  15
ATOM     15  N   UNL     1      46.486   4.626  15.303  0.00  0.00    +0.000 N 
ATOM     16  H   UNL     1      45.628   4.141  15.560  0.00  0.00    +0.000 HD
BRANCH  15  21
ATOM     17  N   UNL     1      50.987   2.795  17.923  0.00  0.00    +0.000 N 
ATOM     18  C   UNL     1      49.850   3.247  17.284  0.00  0.00    +0.000 A 
ATOM     19  N   UNL     1      49.096   2.338  16.665  0.00  0.00    +0.000 NA
ATOM     20  C   UNL     1      47.994   2.803  16.034  0.00  0.00    +0.000 A 
ATOM     21  C   UNL     1      47.589   4.126  16.005  0.00  0.00    +0.000 A 
ATOM     22  C   UNL     1      48.499   4.964  16.631  0.00  0.00    +0.000 A 
ATOM     23  N   UNL     1      49.616   4.558  17.278  0.00  0.00    +0.000 NA
ATOM     24  H   UNL     1      51.273   1.920  17.510  0.00  0.00    +0.000 HD
ATOM     25  H   UNL     1      51.671   3.538  17.956  0.00  0.00    +0.000 HD
ENDBRANCH  15  21
ENDBRANCH  14  15
ENDBRANCH   1  14
TORSDOF 5
ENDMDL
MODEL 9
REMARK VINA RESULT:    -6.923      2.586      6.989
REMARK INTER + INTRA:          -9.663
REMARK INTER:                  -9.036
REMARK INTRA:                  -0.627
REMARK UNBOUND:                -0.716
REMARK  Name = 
REMARK  5 active torsions:
REMARK  status: ('A' for Active; 'I' for Inactive)
REMARK    1  A    between atoms: C_5  and  N_6
REMARK    2  A    between atoms: N_6  and  C_7
REMARK    3  A    between atoms: C_7  and  C_8
REMARK    4  A    between atoms: C_8  and  C_9
REMARK    5  A    between atoms: C_13  and  C_14
REMARK                            x       y       z     vdW  Elec       q    Type
REMARK                         _______ _______ _______ _____ _____    ______ ____
ROOT
ATOM      1  C   UNL     1      44.484   4.552  12.792  0.00  0.00    +0.000 C 
ENDROOT
BRANCH   1   2
ATOM      2  C   UNL     1      45.735   5.316  13.137  0.00  0.00    +0.000 A 
ATOM      3  C   UNL     1      46.677   4.797  14.015  0.00  0.00    +0.000 A 
ATOM      4  N   UNL     1      47.812   5.437  14.359  0.00  0.00    +0.000 NA
ATOM      5  C   UNL     1      48.024   6.654  13.798  0.00  0.00    +0.000 A 
ATOM      6  C   UNL     1      47.174   7.281  12.882  0.00  0.00    +0.000 A 
ATOM      7  C   UNL     1      46.008   6.564  12.560  0.00  0.00    +0.000 A 
BRANCH   6   8
ATOM      8  C   UNL     1      47.479   8.603  12.290  0.00  0.00    +0.000 A 
ATOM      9  C   UNL     1      46.509   9.613  12.193  0.00  0.00    +0.000 A 
ATOM     10  C   UNL     1      46.848  10.840  11.638  0.00  0.00    +0.000 A 
ATOM     11  N   UNL     1      48.079  11.142  11.180  0.00  0.00    +0.000 NA
ATOM     12  C   UNL     1      49.007  10.173  11.274  0.00  0.00    +0.000 A 
ATOM     13  C   UNL     1      48.760   8.914  11.804  0.00  0.00    +0.000 A 
ENDBRANCH   6   8
ENDBRANCH   1   2
BRANCH   1  14
ATOM     14  C   UNL     1      44.798   3.205  12.132  0.00  0.00    +0.000 C 
BRANCH  14  15
ATOM     15  N   UNL     1      44.062   3.066  10.870  0.00  0.00    +0.000 N 
ATOM     16  H   UNL     1      43.194   3.601  10.856  0.00  0.00    +0.000 HD
BRANCH  15  21
ATOM     17  N   UNL     1      47.107   3.588   6.295  0.00  0.00    +0.000 N 
ATOM     18  C   UNL     1      46.329   3.461   7.428  0.00  0.00    +0.000 A 
ATOM     19  N   UNL     1      45.919   4.585   8.016  0.00  0.00    +0.000 NA
ATOM     20  C   UNL     1      45.168   4.439   9.131  0.00  0.00    +0.000 A 
ATOM     21  C   UNL     1      44.784   3.229   9.682  0.00  0.00    +0.000 A 
ATOM     22  C   UNL     1      45.335   2.150   9.007  0.00  0.00    +0.000 A 
ATOM     23  N   UNL     1      46.091   2.234   7.888  0.00  0.00    +0.000 NA
ATOM     24  H   UNL     1      47.557   4.491   6.302  0.00  0.00    +0.000 HD
ATOM     25  H   UNL     1      47.700   2.775   6.203  0.00  0.00    +0.000 HD
ENDBRANCH  15  21
ENDBRANCH  14  15
ENDBRANCH   1  14
TORSDOF 5
ENDMDL
