MODEL 1
REMARK VINA RESULT:    -7.729      0.000      0.000
REMARK INTER + INTRA:         -10.945
REMARK INTER:                  -9.988
REMARK INTRA:                  -0.957
REMARK UNBOUND:                -0.957
REMARK  Name = 
REMARK  6 active torsions:
REMARK  status: ('A' for Active; 'I' for Inactive)
REMARK    1  A    between atoms: C_1  and  C_2
REMARK    2  A    between atoms: C_2  and  N_3
REMARK    3  A    between atoms: C_2  and  C_24
REMARK    4  A    between atoms: C_7  and  C_8
REMARK    5  A    between atoms: C_8  and  N_9
REMARK    6  A    between atoms: C_10  and  C_12
REMARK                            x       y       z     vdW  Elec       q    Type
REMARK                         _______ _______ _______ _____ _____    ______ ____
ROOT
ATOM      1  N   UNL     1      45.409   3.974  12.974  0.00  0.00    +0.000 N 
ATOM      2  C   UNL     1      46.393   4.659  13.702  0.00  0.00    +0.000 A 
ATOM      3  C   UNL     1      46.784   4.117  14.923  0.00  0.00    +0.000 A 
ATOM      4  C   UNL     1      47.708   4.798  15.712  0.00  0.00    +0.000 A 
ATOM      5  C   UNL     1      48.278   5.977  15.241  0.00  0.00    +0.000 A 
ATOM      6  C   UNL     1      47.870   6.415  13.987  0.00  0.00    +0.000 A 
ATOM      7  N   UNL     1      46.948   5.786  13.218  0.00  0.00    +0.000 NA
ATOM      8  H   UNL     1      45.880   3.216  12.483  0.00  0.00    +0.000 HD
ENDROOT
BRANCH   1  10
ATOM      9  C   UNL     1      43.138   4.781  12.382  0.00  0.00    +0.000 C 
ATOM     10  C   UNL     1      44.633   4.786  12.022  0.00  0.00    +0.000 C 
BRANCH  10  11
ATOM     11  C   UNL     1      44.795   4.208  10.612  0.00  0.00    +0.000 A 
ATOM     12  C   UNL     1      45.446   4.937   9.611  0.00  0.00    +0.000 A 
ATOM     13  C   UNL     1      45.665   4.344   8.370  0.00  0.00    +0.000 A 
ATOM     14  C   UNL     1      45.216   3.050   8.148  0.00  0.00    +0.000 A 
ATOM     15  C   UNL     1      44.553   2.403   9.177  0.00  0.00    +0.000 A 
ATOM     16  N   UNL     1      44.335   2.947  10.395  0.00  0.00    +0.000 NA
ENDBRANCH  10  11
ENDBRANCH   1  10
BRANCH   5  17
ATOM     17  C   UNL     1      49.255   6.758  16.064  0.00  0.00    +0.000 C 
BRANCH  17  18
ATOM     18  N   UNL     1      50.314   5.922  16.574  0.00  0.00    +0.000 N 
ATOM     19  C   UNL     1      50.451   5.625  17.907  0.00  0.00    +0.000 C 
ATOM     20  O   UNL     1      49.681   6.067  18.756  0.00  0.00    +0.000 OA
ATOM     21  H   UNL     1      51.066   5.689  15.934  0.00  0.00    +0.000 HD
BRANCH  19  22
ATOM     22  C   UNL     1      51.525   4.687  18.264  0.00  0.00    +0.000 A 
ATOM     23  C   UNL     1      52.626   5.148  18.974  0.00  0.00    +0.000 A 
ATOM     24  S   UNL     1      53.764   3.933  19.342  0.00  0.00    +0.000 S 
ATOM     25  C   UNL     1      52.851   2.754  18.527  0.00  0.00    +0.000 A 
ATOM     26  N   UNL     1      53.288   1.468  18.440  0.00  0.00    +0.000 NA
ATOM     27  C   UNL     1      52.517   0.686  17.762  0.00  0.00    +0.000 A 
ATOM     28  N   UNL     1      51.340   1.069  17.172  0.00  0.00    +0.000 N 
ATOM     29  C   UNL     1      50.825   2.339  17.297  0.00  0.00    +0.000 A 
ATOM     30  O   UNL     1      49.707   2.618  16.864  0.00  0.00    +0.000 OA
ATOM     31  C   UNL     1      51.678   3.271  18.005  0.00  0.00    +0.000 A 
ATOM     32  H   UNL     1      50.768   0.400  16.679  0.00  0.00    +0.000 HD
ENDBRANCH  19  22
ENDBRANCH  17  18
ENDBRANCH   5  17
TORSDOF 5
ENDMDL
MODEL 2
REMARK VINA RESULT:    -7.048      4.155      4.942
REMARK INTER + INTRA:         -10.065
REMARK INTER:                  -9.035
REMARK INTRA:                  -1.030
REMARK UNBOUND:                -0.957
REMARK  Name = 
REMARK  6 active torsions:
REMARK  status: ('A' for Active; 'I' for Inactive)
REMARK    1  A    between atoms: C_1  and  C_2
REMARK    2  A    between atoms: C_2  and  N_3
REMARK    3  A    between atoms: C_2  and  C_24
REMARK    4  A    between atoms: C_7  and  C_8
REMARK    5  A    between atoms: C_8  and  N_9
REMARK    6  A    between atoms: C_10  and  C_12
REMARK                            x       y       z     vdW  Elec       q    Type
REMARK                         _______ _______ _______ _____ _____    ______ ____
ROOT
ATOM      1  N   UNL     1      45.644   3.886  12.036  0.00  0.00    +0.000 N 
ATOM      2  C   UNL     1      46.207   5.093  12.479  0.00  0.00    +0.000 A 
ATOM      3  C   UNL     1      46.794   5.102  13.741  0.00  0.00    +0.000 A 
ATOM      4  C   UNL     1      47.306   6.293  14.252  0.00  0.00    +0.000 A 
ATOM      5  C   UNL     1      47.281   7.444  13.468  0.00  0.00    +0.000 A 
ATOM      6  C   UNL     1      46.726   7.328  12.200  0.00  0.00    +0.000 A 
ATOM      7  N   UNL     1      46.194   6.188  11.697  0.00  0.00    +0.000 NA
ATOM      8  H   UNL     1      46.411   3.317  11.680  0.00  0.00    +0.000 HD
ENDROOT
BRANCH   1  10
ATOM      9  C   UNL     1      43.353   3.176  11.398  0.00  0.00    +0.000 C 
ATOM     10  C   UNL     1      44.589   4.007  11.016  0.00  0.00    +0.000 C 
BRANCH  10  11
ATOM     11  C   UNL     1      45.123   3.497   9.673  0.00  0.00    +0.000 A 
ATOM     12  C   UNL     1      45.528   4.393   8.678  0.00  0.00    +0.000 A 
ATOM     13  C   UNL     1      46.100   3.900   7.509  0.00  0.00    +0.000 A 
ATOM     14  C   UNL     1      46.238   2.527   7.347  0.00  0.00    +0.000 A 
ATOM     15  C   UNL     1      45.785   1.703   8.363  0.00  0.00    +0.000 A 
ATOM     16  N   UNL     1      45.236   2.152   9.514  0.00  0.00    +0.000 NA
ENDBRANCH  10  11
ENDBRANCH   1  10
BRANCH   5  17
ATOM     17  C   UNL     1      47.793   8.753  13.983  0.00  0.00    +0.000 C 
BRANCH  17  18
ATOM     18  N   UNL     1      47.567   8.895  15.401  0.00  0.00    +0.000 N 
ATOM     19  C   UNL     1      48.393   9.627  16.216  0.00  0.00    +0.000 C 
ATOM     20  O   UNL     1      49.390  10.201  15.788  0.00  0.00    +0.000 OA
ATOM     21  H   UNL     1      46.865   8.293  15.818  0.00  0.00    +0.000 HD
BRANCH  19  22
ATOM     22  C   UNL     1      47.983   9.754  17.623  0.00  0.00    +0.000 A 
ATOM     23  C   UNL     1      47.642  11.003  18.123  0.00  0.00    +0.000 A 
ATOM     24  S   UNL     1      47.154  10.978  19.757  0.00  0.00    +0.000 S 
ATOM     25  C   UNL     1      47.424   9.304  19.870  0.00  0.00    +0.000 A 
ATOM     26  N   UNL     1      47.219   8.640  21.040  0.00  0.00    +0.000 NA
ATOM     27  C   UNL     1      47.499   7.381  20.995  0.00  0.00    +0.000 A 
ATOM     28  N   UNL     1      47.953   6.720  19.883  0.00  0.00    +0.000 N 
ATOM     29  C   UNL     1      48.103   7.337  18.662  0.00  0.00    +0.000 A 
ATOM     30  O   UNL     1      48.390   6.691  17.655  0.00  0.00    +0.000 OA
ATOM     31  C   UNL     1      47.853   8.763  18.670  0.00  0.00    +0.000 A 
ATOM     32  H   UNL     1      48.125   5.726  19.907  0.00  0.00    +0.000 HD
ENDBRANCH  19  22
ENDBRANCH  17  18
ENDBRANCH   5  17
TORSDOF 5
ENDMDL
MODEL 3
REMARK VINA RESULT:    -7.018      2.822      3.595
REMARK INTER + INTRA:         -10.027
REMARK INTER:                 -10.636
REMARK INTRA:                   0.609
REMARK UNBOUND:                -0.957
REMARK  Name = 
REMARK  6 active torsions:
REMARK  status: ('A' for Active; 'I' for Inactive)
REMARK    1  A    between atoms: C_1  and  C_2
REMARK    2  A    between atoms: C_2  and  N_3
REMARK    3  A    between atoms: C_2  and  C_24
REMARK    4  A    between atoms: C_7  and  C_8
REMARK    5  A    between atoms: C_8  and  N_9
REMARK    6  A    between atoms: C_10  and  C_12
REMARK                            x       y       z     vdW  Elec       q    Type
REMARK                         _______ _______ _______ _____ _____    ______ ____
ROOT
ATOM      1  N   UNL     1      43.666   5.441  10.815  0.00  0.00    +0.000 N 
ATOM      2  C   UNL     1      44.820   5.727  11.561  0.00  0.00    +0.000 A 
ATOM      3  C   UNL     1      45.396   6.984  11.397  0.00  0.00    +0.000 A 
ATOM      4  C   UNL     1      46.580   7.290  12.064  0.00  0.00    +0.000 A 
ATOM      5  C   UNL     1      47.137   6.359  12.937  0.00  0.00    +0.000 A 
ATOM      6  C   UNL     1      46.464   5.152  13.081  0.00  0.00    +0.000 A 
ATOM      7  N   UNL     1      45.330   4.822  12.417  0.00  0.00    +0.000 NA
ATOM      8  H   UNL     1      42.883   5.861  11.313  0.00  0.00    +0.000 HD
ENDROOT
BRANCH   1  10
ATOM      9  C   UNL     1      43.568   3.191  11.857  0.00  0.00    +0.000 C 
ATOM     10  C   UNL     1      43.400   4.014  10.569  0.00  0.00    +0.000 C 
BRANCH  10  11
ATOM     11  C   UNL     1      44.388   3.487   9.523  0.00  0.00    +0.000 A 
ATOM     12  C   UNL     1      45.003   4.358   8.617  0.00  0.00    +0.000 A 
ATOM     13  C   UNL     1      45.969   3.863   7.745  0.00  0.00    +0.000 A 
ATOM     14  C   UNL     1      46.288   2.513   7.782  0.00  0.00    +0.000 A 
ATOM     15  C   UNL     1      45.616   1.708   8.684  0.00  0.00    +0.000 A 
ATOM     16  N   UNL     1      44.681   2.159   9.550  0.00  0.00    +0.000 NA
ENDBRANCH  10  11
ENDBRANCH   1  10
BRANCH   5  17
ATOM     17  C   UNL     1      48.422   6.631  13.654  0.00  0.00    +0.000 C 
BRANCH  17  18
ATOM     18  N   UNL     1      48.239   6.665  15.085  0.00  0.00    +0.000 N 
ATOM     19  C   UNL     1      49.288   6.664  15.969  0.00  0.00    +0.000 C 
ATOM     20  O   UNL     1      50.457   6.622  15.595  0.00  0.00    +0.000 OA
ATOM     21  H   UNL     1      47.297   6.518  15.433  0.00  0.00    +0.000 HD
BRANCH  19  22
ATOM     22  C   UNL     1      48.946   6.792  17.394  0.00  0.00    +0.000 A 
ATOM     23  C   UNL     1      48.749   8.055  17.936  0.00  0.00    +0.000 A 
ATOM     24  S   UNL     1      48.323   8.034  19.587  0.00  0.00    +0.000 S 
ATOM     25  C   UNL     1      48.431   6.339  19.651  0.00  0.00    +0.000 A 
ATOM     26  N   UNL     1      48.206   5.667  20.812  0.00  0.00    +0.000 NA
ATOM     27  C   UNL     1      48.358   4.388  20.728  0.00  0.00    +0.000 A 
ATOM     28  N   UNL     1      48.703   3.717  19.584  0.00  0.00    +0.000 N 
ATOM     29  C   UNL     1      48.866   4.348  18.372  0.00  0.00    +0.000 A 
ATOM     30  O   UNL     1      49.050   3.705  17.339  0.00  0.00    +0.000 OA
ATOM     31  C   UNL     1      48.759   5.791  18.422  0.00  0.00    +0.000 A 
ATOM     32  H   UNL     1      48.777   2.710  19.578  0.00  0.00    +0.000 HD
ENDBRANCH  19  22
ENDBRANCH  17  18
ENDBRANCH   5  17
TORSDOF 5
ENDMDL
MODEL 4
REMARK VINA RESULT:    -7.014      3.463      4.963
REMARK INTER + INTRA:         -10.021
REMARK INTER:                 -10.400
REMARK INTRA:                   0.379
REMARK UNBOUND:                -0.957
REMARK  Name = 
REMARK  6 active torsions:
REMARK  status: ('A' for Active; 'I' for Inactive)
REMARK    1  A    between atoms: C_1  and  C_2
REMARK    2  A    between atoms: C_2  and  N_3
REMARK    3  A    between atoms: C_2  and  C_24
REMARK    4  A    between atoms: C_7  and  C_8
REMARK    5  A    between atoms: C_8  and  N_9
REMARK    6  A    between atoms: C_10  and  C_12
REMARK                            x       y       z     vdW  Elec       q    Type
REMARK                         _______ _______ _______ _____ _____    ______ ____
ROOT
ATOM      1  N   UNL     1      44.075   5.532  10.603  0.00  0.00    +0.000 N 
ATOM      2  C   UNL     1      45.122   5.651  11.530  0.00  0.00    +0.000 A 
ATOM      3  C   UNL     1      45.842   6.842  11.536  0.00  0.00    +0.000 A 
ATOM      4  C   UNL     1      46.933   6.980  12.392  0.00  0.00    +0.000 A 
ATOM      5  C   UNL     1      47.248   5.951  13.275  0.00  0.00    +0.000 A 
ATOM      6  C   UNL     1      46.441   4.821  13.238  0.00  0.00    +0.000 A 
ATOM      7  N   UNL     1      45.396   4.653  12.391  0.00  0.00    +0.000 NA
ATOM      8  H   UNL     1      43.271   6.012  11.004  0.00  0.00    +0.000 HD
ENDROOT
BRANCH   1  10
ATOM      9  C   UNL     1      43.605   3.253  11.466  0.00  0.00    +0.000 C 
ATOM     10  C   UNL     1      43.705   4.157  10.226  0.00  0.00    +0.000 C 
BRANCH  10  11
ATOM     11  C   UNL     1      44.774   3.583   9.291  0.00  0.00    +0.000 A 
ATOM     12  C   UNL     1      45.091   2.221   9.318  0.00  0.00    +0.000 A 
ATOM     13  C   UNL     1      45.995   1.712   8.389  0.00  0.00    +0.000 A 
ATOM     14  C   UNL     1      46.576   2.572   7.467  0.00  0.00    +0.000 A 
ATOM     15  C   UNL     1      46.236   3.913   7.521  0.00  0.00    +0.000 A 
ATOM     16  N   UNL     1      45.355   4.434   8.404  0.00  0.00    +0.000 NA
ENDBRANCH  10  11
ENDBRANCH   1  10
BRANCH   5  17
ATOM     17  C   UNL     1      48.427   6.042  14.194  0.00  0.00    +0.000 C 
BRANCH  17  18
ATOM     18  N   UNL     1      48.028   6.342  15.548  0.00  0.00    +0.000 N 
ATOM     19  C   UNL     1      48.804   6.035  16.637  0.00  0.00    +0.000 C 
ATOM     20  O   UNL     1      49.889   5.471  16.527  0.00  0.00    +0.000 OA
ATOM     21  H   UNL     1      47.069   6.641  15.690  0.00  0.00    +0.000 HD
BRANCH  19  22
ATOM     22  C   UNL     1      48.306   6.485  17.945  0.00  0.00    +0.000 A 
ATOM     23  C   UNL     1      48.064   5.548  18.941  0.00  0.00    +0.000 A 
ATOM     24  S   UNL     1      47.527   6.229  20.409  0.00  0.00    +0.000 S 
ATOM     25  C   UNL     1      47.553   7.797  19.755  0.00  0.00    +0.000 A 
ATOM     26  N   UNL     1      47.171   8.872  20.498  0.00  0.00    +0.000 NA
ATOM     27  C   UNL     1      47.203   9.997  19.866  0.00  0.00    +0.000 A 
ATOM     28  N   UNL     1      47.596  10.149  18.562  0.00  0.00    +0.000 N 
ATOM     29  C   UNL     1      48.060   9.102  17.798  0.00  0.00    +0.000 A 
ATOM     30  O   UNL     1      48.524   9.292  16.675  0.00  0.00    +0.000 OA
ATOM     31  C   UNL     1      47.994   7.808  18.442  0.00  0.00    +0.000 A 
ATOM     32  H   UNL     1      47.627  11.064  18.135  0.00  0.00    +0.000 HD
ENDBRANCH  19  22
ENDBRANCH  17  18
ENDBRANCH   5  17
TORSDOF 5
ENDMDL
MODEL 5
REMARK VINA RESULT:    -6.937      3.662      9.208
REMARK INTER + INTRA:          -9.921
REMARK INTER:                  -9.105
REMARK INTRA:                  -0.816
REMARK UNBOUND:                -0.957
REMARK  Name = 
REMARK  6 active torsions:
REMARK  status: ('A' for Active; 'I' for Inactive)
REMARK    1  A    between atoms: C_1  and  C_2
REMARK    2  A    between atoms: C_2  and  N_3
REMARK    3  A    between atoms: C_2  and  C_24
REMARK    4  A    between atoms: C_7  and  C_8
REMARK    5  A    between atoms: C_8  and  N_9
REMARK    6  A    between atoms: C_10  and  C_12
REMARK                            x       y       z     vdW  Elec       q    Type
REMARK                         _______ _______ _______ _____ _____    ______ ____
ROOT
ATOM      1  N   UNL     1      51.245   7.020  16.350  0.00  0.00    +0.000 N 
ATOM      2  C   UNL     1      50.314   7.135  15.307  0.00  0.00    +0.000 A 
ATOM      3  C   UNL     1      50.512   8.153  14.379  0.00  0.00    +0.000 A 
ATOM      4  C   UNL     1      49.577   8.349  13.365  0.00  0.00    +0.000 A 
ATOM      5  C   UNL     1      48.492   7.484  13.254  0.00  0.00    +0.000 A 
ATOM      6  C   UNL     1      48.404   6.462  14.191  0.00  0.00    +0.000 A 
ATOM      7  N   UNL     1      49.285   6.274  15.204  0.00  0.00    +0.000 NA
ATOM      8  H   UNL     1      52.048   6.517  15.974  0.00  0.00    +0.000 HD
ENDROOT
BRANCH   1  10
ATOM      9  C   UNL     1      51.325   7.036  18.831  0.00  0.00    +0.000 C 
ATOM     10  C   UNL     1      50.761   6.356  17.572  0.00  0.00    +0.000 C 
BRANCH  10  11
ATOM     11  C   UNL     1      51.213   4.892  17.566  0.00  0.00    +0.000 A 
ATOM     12  C   UNL     1      52.533   4.550  17.882  0.00  0.00    +0.000 A 
ATOM     13  C   UNL     1      52.887   3.206  17.964  0.00  0.00    +0.000 A 
ATOM     14  C   UNL     1      51.928   2.235  17.714  0.00  0.00    +0.000 A 
ATOM     15  C   UNL     1      50.651   2.650  17.378  0.00  0.00    +0.000 A 
ATOM     16  N   UNL     1      50.274   3.946  17.300  0.00  0.00    +0.000 NA
ENDBRANCH  10  11
ENDBRANCH   1  10
BRANCH   5  17
ATOM     17  C   UNL     1      47.446   7.671  12.199  0.00  0.00    +0.000 C 
BRANCH  17  18
ATOM     18  N   UNL     1      46.740   6.443  11.922  0.00  0.00    +0.000 N 
ATOM     19  C   UNL     1      45.373   6.378  11.820  0.00  0.00    +0.000 C 
ATOM     20  O   UNL     1      44.660   7.367  11.971  0.00  0.00    +0.000 OA
ATOM     21  H   UNL     1      47.276   5.583  11.971  0.00  0.00    +0.000 HD
BRANCH  19  22
ATOM     22  C   UNL     1      44.804   5.075  11.445  0.00  0.00    +0.000 A 
ATOM     23  C   UNL     1      44.007   4.392  12.355  0.00  0.00    +0.000 A 
ATOM     24  S   UNL     1      43.394   2.918  11.758  0.00  0.00    +0.000 S 
ATOM     25  C   UNL     1      44.208   3.114  10.278  0.00  0.00    +0.000 A 
ATOM     26  N   UNL     1      44.124   2.168   9.303  0.00  0.00    +0.000 NA
ATOM     27  C   UNL     1      44.821   2.426   8.248  0.00  0.00    +0.000 A 
ATOM     28  N   UNL     1      45.584   3.552   8.071  0.00  0.00    +0.000 N 
ATOM     29  C   UNL     1      45.637   4.567   8.999  0.00  0.00    +0.000 A 
ATOM     30  O   UNL     1      46.228   5.618   8.758  0.00  0.00    +0.000 OA
ATOM     31  C   UNL     1      44.915   4.303  10.226  0.00  0.00    +0.000 A 
ATOM     32  H   UNL     1      46.082   3.707   7.208  0.00  0.00    +0.000 HD
ENDBRANCH  19  22
ENDBRANCH  17  18
ENDBRANCH   5  17
TORSDOF 5
ENDMDL
MODEL 6
REMARK VINA RESULT:    -6.820      1.744      2.065
REMARK INTER + INTRA:          -9.771
REMARK INTER:                  -8.901
REMARK INTRA:                  -0.869
REMARK UNBOUND:                -0.957
REMARK  Name = 
REMARK  6 active torsions:
REMARK  status: ('A' for Active; 'I' for Inactive)
REMARK    1  A    between atoms: C_1  and  C_2
REMARK    2  A    between atoms: C_2  and  N_3
REMARK    3  A    between atoms: C_2  and  C_24
REMARK    4  A    between atoms: C_7  and  C_8
REMARK    5  A    between atoms: C_8  and  N_9
REMARK    6  A    between atoms: C_10  and  C_12
REMARK                            x       y       z     vdW  Elec       q    Type
REMARK                         _______ _______ _______ _____ _____    ______ ____
ROOT
ATOM      1  N   UNL     1      45.321   4.611  12.289  0.00  0.00    +0.000 N 
ATOM      2  C   UNL     1      46.396   5.436  12.654  0.00  0.00    +0.000 A 
ATOM      3  C   UNL     1      46.844   5.363  13.970  0.00  0.00    +0.000 A 
ATOM      4  C   UNL     1      47.863   6.211  14.397  0.00  0.00    +0.000 A 
ATOM      5  C   UNL     1      48.465   7.075  13.486  0.00  0.00    +0.000 A 
ATOM      6  C   UNL     1      47.992   7.040  12.180  0.00  0.00    +0.000 A 
ATOM      7  N   UNL     1      46.980   6.247  11.752  0.00  0.00    +0.000 NA
ATOM      8  H   UNL     1      45.709   3.688  12.102  0.00  0.00    +0.000 HD
ENDROOT
BRANCH   1  10
ATOM      9  C   UNL     1      43.020   4.928  11.414  0.00  0.00    +0.000 C 
ATOM     10  C   UNL     1      44.527   5.067  11.136  0.00  0.00    +0.000 C 
BRANCH  10  11
ATOM     11  C   UNL     1      44.876   4.214   9.911  0.00  0.00    +0.000 A 
ATOM     12  C   UNL     1      45.631   4.747   8.861  0.00  0.00    +0.000 A 
ATOM     13  C   UNL     1      46.015   3.919   7.810  0.00  0.00    +0.000 A 
ATOM     14  C   UNL     1      45.625   2.587   7.818  0.00  0.00    +0.000 A 
ATOM     15  C   UNL     1      44.852   2.140   8.876  0.00  0.00    +0.000 A 
ATOM     16  N   UNL     1      44.472   2.916   9.916  0.00  0.00    +0.000 NA
ENDBRANCH  10  11
ENDBRANCH   1  10
BRANCH   5  17
ATOM     17  C   UNL     1      49.545   8.024  13.903  0.00  0.00    +0.000 C 
BRANCH  17  18
ATOM     18  N   UNL     1      50.653   7.336  14.520  0.00  0.00    +0.000 N 
ATOM     19  C   UNL     1      50.905   7.392  15.868  0.00  0.00    +0.000 C 
ATOM     20  O   UNL     1      50.204   8.045  16.636  0.00  0.00    +0.000 OA
ATOM     21  H   UNL     1      51.351   6.939  13.901  0.00  0.00    +0.000 HD
BRANCH  19  22
ATOM     22  C   UNL     1      52.016   6.565  16.363  0.00  0.00    +0.000 A 
ATOM     23  C   UNL     1      53.323   6.939  16.077  0.00  0.00    +0.000 A 
ATOM     24  S   UNL     1      54.496   5.901  16.751  0.00  0.00    +0.000 S 
ATOM     25  C   UNL     1      53.301   4.889  17.411  0.00  0.00    +0.000 A 
ATOM     26  N   UNL     1      53.640   3.770  18.109  0.00  0.00    +0.000 NA
ATOM     27  C   UNL     1      52.635   3.073  18.521  0.00  0.00    +0.000 A 
ATOM     28  N   UNL     1      51.320   3.399  18.312  0.00  0.00    +0.000 N 
ATOM     29  C   UNL     1      50.933   4.558  17.678  0.00  0.00    +0.000 A 
ATOM     30  O   UNL     1      49.749   4.884  17.618  0.00  0.00    +0.000 OA
ATOM     31  C   UNL     1      52.023   5.350  17.148  0.00  0.00    +0.000 A 
ATOM     32  H   UNL     1      50.580   2.825  18.688  0.00  0.00    +0.000 HD
ENDBRANCH  19  22
ENDBRANCH  17  18
ENDBRANCH   5  17
TORSDOF 5
ENDMDL
MODEL 7
REMARK VINA RESULT:    -6.650      3.444      8.778
REMARK INTER + INTRA:          -9.551
REMARK INTER:                  -8.875
REMARK INTRA:                  -0.675
REMARK UNBOUND:                -0.957
REMARK  Name = 
REMARK  6 active torsions:
REMARK  status: ('A' for Active; 'I' for Inactive)
REMARK    1  A    between atoms: C_1  and  C_2
REMARK    2  A    between atoms: C_2  and  N_3
REMARK    3  A    between atoms: C_2  and  C_24
REMARK    4  A    between atoms: C_7  and  C_8
REMARK    5  A    between atoms: C_8  and  N_9
REMARK    6  A    between atoms: C_10  and  C_12
REMARK                            x       y       z     vdW  Elec       q    Type
REMARK                         _______ _______ _______ _____ _____    ______ ____
ROOT
ATOM      1  N   UNL     1      50.759   6.559  16.418  0.00  0.00    +0.000 N 
ATOM      2  C   UNL     1      49.797   7.012  15.502  0.00  0.00    +0.000 A 
ATOM      3  C   UNL     1      50.088   8.168  14.785  0.00  0.00    +0.000 A 
ATOM      4  C   UNL     1      49.136   8.694  13.914  0.00  0.00    +0.000 A 
ATOM      5  C   UNL     1      47.932   8.021  13.724  0.00  0.00    +0.000 A 
ATOM      6  C   UNL     1      47.750   6.844  14.440  0.00  0.00    +0.000 A 
ATOM      7  N   UNL     1      48.650   6.333  15.316  0.00  0.00    +0.000 NA
ATOM      8  H   UNL     1      51.457   6.046  15.881  0.00  0.00    +0.000 HD
ENDROOT
BRANCH   1  10
ATOM      9  C   UNL     1      50.538   6.368  18.882  0.00  0.00    +0.000 C 
ATOM     10  C   UNL     1      50.252   5.720  17.517  0.00  0.00    +0.000 C 
BRANCH  10  11
ATOM     11  C   UNL     1      50.945   4.354  17.473  0.00  0.00    +0.000 A 
ATOM     12  C   UNL     1      52.277   4.214  17.876  0.00  0.00    +0.000 A 
ATOM     13  C   UNL     1      52.847   2.944  17.918  0.00  0.00    +0.000 A 
ATOM     14  C   UNL     1      52.085   1.846  17.541  0.00  0.00    +0.000 A 
ATOM     15  C   UNL     1      50.784   2.067  17.125  0.00  0.00    +0.000 A 
ATOM     16  N   UNL     1      50.200   3.286  17.083  0.00  0.00    +0.000 NA
ENDBRANCH  10  11
ENDBRANCH   1  10
BRANCH   5  17
ATOM     17  C   UNL     1      46.868   8.561  12.821  0.00  0.00    +0.000 C 
BRANCH  17  18
ATOM     18  N   UNL     1      46.156   7.505  12.142  0.00  0.00    +0.000 N 
ATOM     19  C   UNL     1      46.755   6.671  11.232  0.00  0.00    +0.000 C 
ATOM     20  O   UNL     1      47.939   6.780  10.928  0.00  0.00    +0.000 OA
ATOM     21  H   UNL     1      45.145   7.500  12.230  0.00  0.00    +0.000 HD
BRANCH  19  22
ATOM     22  C   UNL     1      45.923   5.585  10.691  0.00  0.00    +0.000 A 
ATOM     23  C   UNL     1      45.890   5.371   9.319  0.00  0.00    +0.000 A 
ATOM     24  S   UNL     1      44.912   4.055   8.853  0.00  0.00    +0.000 S 
ATOM     25  C   UNL     1      44.459   3.751  10.463  0.00  0.00    +0.000 A 
ATOM     26  N   UNL     1      43.592   2.746  10.768  0.00  0.00    +0.000 NA
ATOM     27  C   UNL     1      43.305   2.651  12.023  0.00  0.00    +0.000 A 
ATOM     28  N   UNL     1      43.816   3.459  13.005  0.00  0.00    +0.000 N 
ATOM     29  C   UNL     1      44.751   4.437  12.750  0.00  0.00    +0.000 A 
ATOM     30  O   UNL     1      45.284   5.060  13.667  0.00  0.00    +0.000 OA
ATOM     31  C   UNL     1      45.068   4.622  11.350  0.00  0.00    +0.000 A 
ATOM     32  H   UNL     1      43.573   3.312  13.973  0.00  0.00    +0.000 HD
ENDBRANCH  19  22
ENDBRANCH  17  18
ENDBRANCH   5  17
TORSDOF 5
ENDMDL
MODEL 8
REMARK VINA RESULT:    -6.414      4.008      5.305
REMARK INTER + INTRA:          -9.246
REMARK INTER:                  -8.146
REMARK INTRA:                  -1.100
REMARK UNBOUND:                -0.957
REMARK  Name = 
REMARK  6 active torsions:
REMARK  status: ('A' for Active; 'I' for Inactive)
REMARK    1  A    between atoms: C_1  and  C_2
REMARK    2  A    between atoms: C_2  and  N_3
REMARK    3  A    between atoms: C_2  and  C_24
REMARK    4  A    between atoms: C_7  and  C_8
REMARK    5  A    between atoms: C_8  and  N_9
REMARK    6  A    between atoms: C_10  and  C_12
REMARK                            x       y       z     vdW  Elec       q    Type
REMARK                         _______ _______ _______ _____ _____    ______ ____
ROOT
ATOM      1  N   UNL     1      45.356   4.108  13.210  0.00  0.00    +0.000 N 
ATOM      2  C   UNL     1      46.426   4.832  13.757  0.00  0.00    +0.000 A 
ATOM      3  C   UNL     1      46.932   4.404  14.981  0.00  0.00    +0.000 A 
ATOM      4  C   UNL     1      47.948   5.131  15.597  0.00  0.00    +0.000 A 
ATOM      5  C   UNL     1      48.490   6.238  14.950  0.00  0.00    +0.000 A 
ATOM      6  C   UNL     1      47.961   6.561  13.706  0.00  0.00    +0.000 A 
ATOM      7  N   UNL     1      46.950   5.887  13.105  0.00  0.00    +0.000 NA
ATOM      8  H   UNL     1      45.757   3.290  12.753  0.00  0.00    +0.000 HD
ENDROOT
BRANCH   1  10
ATOM      9  C   UNL     1      43.018   4.724  12.651  0.00  0.00    +0.000 C 
ATOM     10  C   UNL     1      44.501   4.845  12.263  0.00  0.00    +0.000 C 
BRANCH  10  11
ATOM     11  C   UNL     1      44.685   4.265  10.857  0.00  0.00    +0.000 A 
ATOM     12  C   UNL     1      45.305   5.014   9.851  0.00  0.00    +0.000 A 
ATOM     13  C   UNL     1      45.547   4.423   8.613  0.00  0.00    +0.000 A 
ATOM     14  C   UNL     1      45.149   3.110   8.399  0.00  0.00    +0.000 A 
ATOM     15  C   UNL     1      44.514   2.444   9.432  0.00  0.00    +0.000 A 
ATOM     16  N   UNL     1      44.275   2.986  10.648  0.00  0.00    +0.000 NA
ENDBRANCH  10  11
ENDBRANCH   1  10
BRANCH   5  17
ATOM     17  C   UNL     1      49.563   7.067  15.583  0.00  0.00    +0.000 C 
BRANCH  17  18
ATOM     18  N   UNL     1      50.649   7.326  14.669  0.00  0.00    +0.000 N 
ATOM     19  C   UNL     1      51.067   8.593  14.351  0.00  0.00    +0.000 C 
ATOM     20  O   UNL     1      50.532   9.594  14.819  0.00  0.00    +0.000 OA
ATOM     21  H   UNL     1      50.993   6.539  14.128  0.00  0.00    +0.000 HD
BRANCH  19  22
ATOM     22  C   UNL     1      52.244   8.696  13.475  0.00  0.00    +0.000 A 
ATOM     23  C   UNL     1      53.444   9.162  13.996  0.00  0.00    +0.000 A 
ATOM     24  S   UNL     1      54.720   9.186  12.866  0.00  0.00    +0.000 S 
ATOM     25  C   UNL     1      53.706   8.618  11.625  0.00  0.00    +0.000 A 
ATOM     26  N   UNL     1      54.180   8.438  10.362  0.00  0.00    +0.000 NA
ATOM     27  C   UNL     1      53.295   8.039   9.512  0.00  0.00    +0.000 A 
ATOM     28  N   UNL     1      51.981   7.791   9.811  0.00  0.00    +0.000 N 
ATOM     29  C   UNL     1      51.478   7.888  11.088  0.00  0.00    +0.000 A 
ATOM     30  O   UNL     1      50.327   7.537  11.347  0.00  0.00    +0.000 OA
ATOM     31  C   UNL     1      52.417   8.384  12.072  0.00  0.00    +0.000 A 
ATOM     32  H   UNL     1      51.345   7.451   9.103  0.00  0.00    +0.000 HD
ENDBRANCH  19  22
ENDBRANCH  17  18
ENDBRANCH   5  17
TORSDOF 5
ENDMDL
MODEL 9
REMARK VINA RESULT:    -6.349      4.042      5.711
REMARK INTER + INTRA:          -9.162
REMARK INTER:                  -9.602
REMARK INTRA:                   0.440
REMARK UNBOUND:                -0.957
REMARK  Name = 
REMARK  6 active torsions:
REMARK  status: ('A' for Active; 'I' for Inactive)
REMARK    1  A    between atoms: C_1  and  C_2
REMARK    2  A    between atoms: C_2  and  N_3
REMARK    3  A    between atoms: C_2  and  C_24
REMARK    4  A    between atoms: C_7  and  C_8
REMARK    5  A    between atoms: C_8  and  N_9
REMARK    6  A    between atoms: C_10  and  C_12
REMARK                            x       y       z     vdW  Elec       q    Type
REMARK                         _______ _______ _______ _____ _____    ______ ____
ROOT
ATOM      1  N   UNL     1      44.280   4.905   9.713  0.00  0.00    +0.000 N 
ATOM      2  C   UNL     1      45.049   5.128  10.864  0.00  0.00    +0.000 A 
ATOM      3  C   UNL     1      45.648   6.377  11.005  0.00  0.00    +0.000 A 
ATOM      4  C   UNL     1      46.476   6.622  12.098  0.00  0.00    +0.000 A 
ATOM      5  C   UNL     1      46.643   5.639  13.069  0.00  0.00    +0.000 A 
ATOM      6  C   UNL     1      45.964   4.442  12.874  0.00  0.00    +0.000 A 
ATOM      7  N   UNL     1      45.179   4.172  11.802  0.00  0.00    +0.000 NA
ATOM      8  H   UNL     1      43.365   5.320   9.885  0.00  0.00    +0.000 HD
ENDROOT
BRANCH   1  10
ATOM      9  C   UNL     1      44.048   2.575  10.534  0.00  0.00    +0.000 C 
ATOM     10  C   UNL     1      44.127   3.498   9.307  0.00  0.00    +0.000 C 
BRANCH  10  11
ATOM     11  C   UNL     1      45.334   3.079   8.461  0.00  0.00    +0.000 A 
ATOM     12  C   UNL     1      45.818   1.768   8.505  0.00  0.00    +0.000 A 
ATOM     13  C   UNL     1      46.852   1.394   7.651  0.00  0.00    +0.000 A 
ATOM     14  C   UNL     1      47.394   2.337   6.788  0.00  0.00    +0.000 A 
ATOM     15  C   UNL     1      46.883   3.623   6.823  0.00  0.00    +0.000 A 
ATOM     16  N   UNL     1      45.872   4.013   7.632  0.00  0.00    +0.000 NA
ENDBRANCH  10  11
ENDBRANCH   1  10
BRANCH   5  17
ATOM     17  C   UNL     1      47.545   5.845  14.246  0.00  0.00    +0.000 C 
BRANCH  17  18
ATOM     18  N   UNL     1      48.757   6.534  13.875  0.00  0.00    +0.000 N 
ATOM     19  C   UNL     1      49.337   7.495  14.665  0.00  0.00    +0.000 C 
ATOM     20  O   UNL     1      48.849   7.839  15.738  0.00  0.00    +0.000 OA
ATOM     21  H   UNL     1      49.087   6.409  12.924  0.00  0.00    +0.000 HD
BRANCH  19  22
ATOM     22  C   UNL     1      50.619   8.044  14.198  0.00  0.00    +0.000 A 
ATOM     23  C   UNL     1      51.754   7.888  14.983  0.00  0.00    +0.000 A 
ATOM     24  S   UNL     1      53.165   8.544  14.287  0.00  0.00    +0.000 S 
ATOM     25  C   UNL     1      52.304   9.102  12.931  0.00  0.00    +0.000 A 
ATOM     26  N   UNL     1      52.931   9.791  11.940  0.00  0.00    +0.000 NA
ATOM     27  C   UNL     1      52.152  10.188  10.990  0.00  0.00    +0.000 A 
ATOM     28  N   UNL     1      50.804   9.947  10.934  0.00  0.00    +0.000 N 
ATOM     29  C   UNL     1      50.144   9.192  11.876  0.00  0.00    +0.000 A 
ATOM     30  O   UNL     1      48.960   8.888  11.732  0.00  0.00    +0.000 OA
ATOM     31  C   UNL     1      50.962   8.767  12.992  0.00  0.00    +0.000 A 
ATOM     32  H   UNL     1      50.256  10.261  10.146  0.00  0.00    +0.000 HD
ENDBRANCH  19  22
ENDBRANCH  17  18
ENDBRANCH   5  17
TORSDOF 5
ENDMDL
