MODEL 1
REMARK VINA RESULT:    -7.111      0.000      0.000
REMARK INTER + INTRA:          -9.748
REMARK INTER:                  -9.398
REMARK INTRA:                  -0.351
REMARK UNBOUND:                -0.351
REMARK  Name = 
REMARK  6 active torsions:
REMARK  status: ('A' for Active; 'I' for Inactive)
REMARK    1  A    between atoms: N_1  and  C_2
REMARK    2  A    between atoms: C_2  and  C_3
REMARK    3  A    between atoms: C_3  and  C_4
REMARK    4  A    between atoms: C_7  and  C_8
REMARK    5  A    between atoms: C_8  and  O_9
REMARK    6  A    between atoms: O_9  and  C_10
REMARK                            x       y       z     vdW  Elec       q    Type
REMARK                         _______ _______ _______ _____ _____    ______ ____
ROOT
ATOM      1  C   UNL     1      45.908   2.550   8.214  0.00  0.00    +0.000 A 
ATOM      2  C   UNL     1      45.866   3.924   8.018  0.00  0.00    +0.000 A 
ATOM      3  N   UNL     1      45.123   4.774   8.762  0.00  0.00    +0.000 NA
ATOM      4  C   UNL     1      44.376   4.251   9.779  0.00  0.00    +0.000 A 
ATOM      5  C   UNL     1      44.354   2.878  10.042  0.00  0.00    +0.000 A 
ATOM      6 CL   UNL     1      43.414   2.183  11.308  0.00  0.00    +0.000 Cl
ATOM      7  C   UNL     1      45.119   2.026   9.242  0.00  0.00    +0.000 A 
ENDROOT
BRANCH   1   8
ATOM      8  C   UNL     1      46.761   1.663   7.346  0.00  0.00    +0.000 C 
BRANCH   8   9
ATOM      9  C   UNL     1      47.984   2.397   6.786  0.00  0.00    +0.000 C 
BRANCH   9  10
ATOM     10  N   UNL     1      48.423   1.800   5.529  0.00  0.00    +0.000 NA
ATOM     11  H   UNL     1      47.664   1.244   5.134  0.00  0.00    +0.000 HD
ATOM     12  H   UNL     1      49.190   1.148   5.702  0.00  0.00    +0.000 HD
ENDBRANCH   9  10
ENDBRANCH   8   9
ENDBRANCH   1   8
BRANCH   4  13
ATOM     13  C   UNL     1      43.615   5.249  10.624  0.00  0.00    +0.000 C 
BRANCH  13  14
ATOM     14  O   UNL     1      44.528   6.242  11.096  0.00  0.00    +0.000 OA
BRANCH  14  15
ATOM     15  C   UNL     1      45.411   5.873  12.067  0.00  0.00    +0.000 A 
ATOM     16  C   UNL     1      46.735   6.281  12.192  0.00  0.00    +0.000 A 
ATOM     17  C   UNL     1      47.500   5.819  13.267  0.00  0.00    +0.000 A 
ATOM     18  C   UNL     1      46.912   4.957  14.179  0.00  0.00    +0.000 A 
ATOM     19  N   UNL     1      45.636   4.534  14.090  0.00  0.00    +0.000 NA
ATOM     20  C   UNL     1      44.920   5.002  13.037  0.00  0.00    +0.000 A 
ENDBRANCH  14  15
ENDBRANCH  13  14
ENDBRANCH   4  13
TORSDOF 6
ENDMDL
MODEL 2
REMARK VINA RESULT:    -6.824      1.896      5.871
REMARK INTER + INTRA:          -9.368
REMARK INTER:                  -9.060
REMARK INTRA:                  -0.309
REMARK UNBOUND:                -0.351
REMARK  Name = 
REMARK  6 active torsions:
REMARK  status: ('A' for Active; 'I' for Inactive)
REMARK    1  A    between atoms: N_1  and  C_2
REMARK    2  A    between atoms: C_2  and  C_3
REMARK    3  A    between atoms: C_3  and  C_4
REMARK    4  A    between atoms: C_7  and  C_8
REMARK    5  A    between atoms: C_8  and  O_9
REMARK    6  A    between atoms: O_9  and  C_10
REMARK                            x       y       z     vdW  Elec       q    Type
REMARK                         _______ _______ _______ _____ _____    ______ ____
ROOT
ATOM      1  C   UNL     1      46.538   5.855  12.785  0.00  0.00    +0.000 A 
ATOM      2  C   UNL     1      46.588   6.338  11.484  0.00  0.00    +0.000 A 
ATOM      3  N   UNL     1      45.873   5.826  10.457  0.00  0.00    +0.000 NA
ATOM      4  C   UNL     1      45.040   4.776  10.716  0.00  0.00    +0.000 A 
ATOM      5  C   UNL     1      44.933   4.222  11.994  0.00  0.00    +0.000 A 
ATOM      6 CL   UNL     1      43.902   2.889  12.355  0.00  0.00    +0.000 Cl
ATOM      7  C   UNL     1      45.699   4.764  13.029  0.00  0.00    +0.000 A 
ENDROOT
BRANCH   1   8
ATOM      8  C   UNL     1      47.361   6.477  13.881  0.00  0.00    +0.000 C 
BRANCH   8   9
ATOM      9  C   UNL     1      47.716   7.939  13.586  0.00  0.00    +0.000 C 
BRANCH   9  10
ATOM     10  N   UNL     1      46.668   8.838  14.058  0.00  0.00    +0.000 NA
ATOM     11  H   UNL     1      46.432   9.502  13.320  0.00  0.00    +0.000 HD
ATOM     12  H   UNL     1      47.014   9.396  14.839  0.00  0.00    +0.000 HD
ENDBRANCH   9  10
ENDBRANCH   8   9
ENDBRANCH   1   8
BRANCH   4  13
ATOM     13  C   UNL     1      44.214   4.281   9.549  0.00  0.00    +0.000 C 
BRANCH  13  14
ATOM     14  O   UNL     1      44.970   4.447   8.348  0.00  0.00    +0.000 OA
BRANCH  14  15
ATOM     15  C   UNL     1      45.727   3.392   7.930  0.00  0.00    +0.000 A 
ATOM     16  C   UNL     1      46.728   3.411   6.964  0.00  0.00    +0.000 A 
ATOM     17  C   UNL     1      47.423   2.235   6.669  0.00  0.00    +0.000 A 
ATOM     18  C   UNL     1      47.089   1.077   7.351  0.00  0.00    +0.000 A 
ATOM     19  N   UNL     1      46.123   1.015   8.288  0.00  0.00    +0.000 NA
ATOM     20  C   UNL     1      45.468   2.173   8.552  0.00  0.00    +0.000 A 
ENDBRANCH  14  15
ENDBRANCH  13  14
ENDBRANCH   4  13
TORSDOF 6
ENDMDL
MODEL 3
REMARK VINA RESULT:    -6.717      2.242      6.118
REMARK INTER + INTRA:          -9.227
REMARK INTER:                  -8.823
REMARK INTRA:                  -0.404
REMARK UNBOUND:                -0.351
REMARK  Name = 
REMARK  6 active torsions:
REMARK  status: ('A' for Active; 'I' for Inactive)
REMARK    1  A    between atoms: N_1  and  C_2
REMARK    2  A    between atoms: C_2  and  C_3
REMARK    3  A    between atoms: C_3  and  C_4
REMARK    4  A    between atoms: C_7  and  C_8
REMARK    5  A    between atoms: C_8  and  O_9
REMARK    6  A    between atoms: O_9  and  C_10
REMARK                            x       y       z     vdW  Elec       q    Type
REMARK                         _______ _______ _______ _____ _____    ______ ____
ROOT
ATOM      1  C   UNL     1      45.596   6.903  12.383  0.00  0.00    +0.000 A 
ATOM      2  C   UNL     1      45.902   6.768  11.036  0.00  0.00    +0.000 A 
ATOM      3  N   UNL     1      45.499   5.731  10.266  0.00  0.00    +0.000 NA
ATOM      4  C   UNL     1      44.732   4.762  10.846  0.00  0.00    +0.000 A 
ATOM      5  C   UNL     1      44.382   4.815  12.199  0.00  0.00    +0.000 A 
ATOM      6 CL   UNL     1      43.426   3.604  12.967  0.00  0.00    +0.000 Cl
ATOM      7  C   UNL     1      44.831   5.891  12.969  0.00  0.00    +0.000 A 
ENDROOT
BRANCH   1   8
ATOM      8  C   UNL     1      46.078   8.087  13.178  0.00  0.00    +0.000 C 
BRANCH   8   9
ATOM      9  C   UNL     1      45.868   9.412  12.438  0.00  0.00    +0.000 C 
BRANCH   9  10
ATOM     10  N   UNL     1      44.487   9.868  12.563  0.00  0.00    +0.000 NA
ATOM     11  H   UNL     1      44.477  10.872  12.745  0.00  0.00    +0.000 HD
ATOM     12  H   UNL     1      44.048   9.430  13.374  0.00  0.00    +0.000 HD
ENDBRANCH   9  10
ENDBRANCH   8   9
ENDBRANCH   1   8
BRANCH   4  13
ATOM     13  C   UNL     1      44.252   3.659   9.929  0.00  0.00    +0.000 C 
BRANCH  13  14
ATOM     14  O   UNL     1      44.679   3.951   8.597  0.00  0.00    +0.000 OA
BRANCH  14  15
ATOM     15  C   UNL     1      45.532   3.069   8.003  0.00  0.00    +0.000 A 
ATOM     16  C   UNL     1      46.333   3.301   6.889  0.00  0.00    +0.000 A 
ATOM     17  C   UNL     1      47.170   2.285   6.419  0.00  0.00    +0.000 A 
ATOM     18  C   UNL     1      47.173   1.067   7.079  0.00  0.00    +0.000 A 
ATOM     19  N   UNL     1      46.409   0.801   8.156  0.00  0.00    +0.000 NA
ATOM     20  C   UNL     1      45.609   1.808   8.589  0.00  0.00    +0.000 A 
ENDBRANCH  14  15
ENDBRANCH  13  14
ENDBRANCH   4  13
TORSDOF 6
ENDMDL
MODEL 4
REMARK VINA RESULT:    -6.596      2.073      5.913
REMARK INTER + INTRA:          -9.067
REMARK INTER:                  -8.738
REMARK INTRA:                  -0.328
REMARK UNBOUND:                -0.351
REMARK  Name = 
REMARK  6 active torsions:
REMARK  status: ('A' for Active; 'I' for Inactive)
REMARK    1  A    between atoms: N_1  and  C_2
REMARK    2  A    between atoms: C_2  and  C_3
REMARK    3  A    between atoms: C_3  and  C_4
REMARK    4  A    between atoms: C_7  and  C_8
REMARK    5  A    between atoms: C_8  and  O_9
REMARK    6  A    between atoms: O_9  and  C_10
REMARK                            x       y       z     vdW  Elec       q    Type
REMARK                         _______ _______ _______ _____ _____    ______ ____
ROOT
ATOM      1  C   UNL     1      46.578   5.567  13.361  0.00  0.00    +0.000 A 
ATOM      2  C   UNL     1      46.685   4.183  13.370  0.00  0.00    +0.000 A 
ATOM      3  N   UNL     1      45.781   3.348  12.810  0.00  0.00    +0.000 NA
ATOM      4  C   UNL     1      44.701   3.900  12.183  0.00  0.00    +0.000 A 
ATOM      5  C   UNL     1      44.510   5.283  12.132  0.00  0.00    +0.000 A 
ATOM      6 CL   UNL     1      43.153   6.014  11.362  0.00  0.00    +0.000 Cl
ATOM      7  C   UNL     1      45.455   6.116  12.738  0.00  0.00    +0.000 A 
ENDROOT
BRANCH   1   8
ATOM      8  C   UNL     1      47.626   6.435  14.004  0.00  0.00    +0.000 C 
BRANCH   8   9
ATOM      9  C   UNL     1      47.594   7.874  13.479  0.00  0.00    +0.000 C 
BRANCH   9  10
ATOM     10  N   UNL     1      47.152   8.801  14.517  0.00  0.00    +0.000 NA
ATOM     11  H   UNL     1      47.142   8.322  15.418  0.00  0.00    +0.000 HD
ATOM     12  H   UNL     1      46.188   9.087  14.340  0.00  0.00    +0.000 HD
ENDBRANCH   9  10
ENDBRANCH   8   9
ENDBRANCH   1   8
BRANCH   4  13
ATOM     13  C   UNL     1      43.753   2.928  11.516  0.00  0.00    +0.000 C 
BRANCH  13  14
ATOM     14  O   UNL     1      43.556   3.336  10.161  0.00  0.00    +0.000 OA
BRANCH  14  15
ATOM     15  C   UNL     1      44.565   3.091   9.277  0.00  0.00    +0.000 A 
ATOM     16  C   UNL     1      45.206   4.019   8.462  0.00  0.00    +0.000 A 
ATOM     17  C   UNL     1      46.242   3.600   7.623  0.00  0.00    +0.000 A 
ATOM     18  C   UNL     1      46.598   2.261   7.625  0.00  0.00    +0.000 A 
ATOM     19  N   UNL     1      45.998   1.331   8.393  0.00  0.00    +0.000 NA
ATOM     20  C   UNL     1      44.999   1.771   9.198  0.00  0.00    +0.000 A 
ENDBRANCH  14  15
ENDBRANCH  13  14
ENDBRANCH   4  13
TORSDOF 6
ENDMDL
MODEL 5
REMARK VINA RESULT:    -6.555      2.059      6.261
REMARK INTER + INTRA:          -9.013
REMARK INTER:                  -8.655
REMARK INTRA:                  -0.359
REMARK UNBOUND:                -0.351
REMARK  Name = 
REMARK  6 active torsions:
REMARK  status: ('A' for Active; 'I' for Inactive)
REMARK    1  A    between atoms: N_1  and  C_2
REMARK    2  A    between atoms: C_2  and  C_3
REMARK    3  A    between atoms: C_3  and  C_4
REMARK    4  A    between atoms: C_7  and  C_8
REMARK    5  A    between atoms: C_8  and  O_9
REMARK    6  A    between atoms: O_9  and  C_10
REMARK                            x       y       z     vdW  Elec       q    Type
REMARK                         _______ _______ _______ _____ _____    ______ ____
ROOT
ATOM      1  C   UNL     1      46.518   4.679  13.949  0.00  0.00    +0.000 A 
ATOM      2  C   UNL     1      46.186   3.416  13.478  0.00  0.00    +0.000 A 
ATOM      3  N   UNL     1      45.379   3.190  12.416  0.00  0.00    +0.000 NA
ATOM      4  C   UNL     1      44.869   4.271  11.756  0.00  0.00    +0.000 A 
ATOM      5  C   UNL     1      45.146   5.578  12.166  0.00  0.00    +0.000 A 
ATOM      6 CL   UNL     1      44.510   6.965  11.366  0.00  0.00    +0.000 Cl
ATOM      7  C   UNL     1      45.968   5.775  13.279  0.00  0.00    +0.000 A 
ENDROOT
BRANCH   1   8
ATOM      8  C   UNL     1      47.424   4.855  15.138  0.00  0.00    +0.000 C 
BRANCH   8   9
ATOM      9  C   UNL     1      47.600   3.558  15.934  0.00  0.00    +0.000 C 
BRANCH   9  10
ATOM     10  N   UNL     1      46.700   3.523  17.083  0.00  0.00    +0.000 NA
ATOM     11  H   UNL     1      45.903   4.134  16.908  0.00  0.00    +0.000 HD
ATOM     12  H   UNL     1      47.171   3.902  17.906  0.00  0.00    +0.000 HD
ENDBRANCH   9  10
ENDBRANCH   8   9
ENDBRANCH   1   8
BRANCH   4  13
ATOM     13  C   UNL     1      44.028   3.967  10.536  0.00  0.00    +0.000 C 
BRANCH  13  14
ATOM     14  O   UNL     1      44.428   2.703  10.005  0.00  0.00    +0.000 OA
BRANCH  14  15
ATOM     15  C   UNL     1      45.281   2.710   8.941  0.00  0.00    +0.000 A 
ATOM     16  C   UNL     1      45.988   1.626   8.428  0.00  0.00    +0.000 A 
ATOM     17  C   UNL     1      46.809   1.805   7.312  0.00  0.00    +0.000 A 
ATOM     18  C   UNL     1      46.900   3.068   6.749  0.00  0.00    +0.000 A 
ATOM     19  N   UNL     1      46.238   4.143   7.219  0.00  0.00    +0.000 NA
ATOM     20  C   UNL     1      45.447   3.935   8.302  0.00  0.00    +0.000 A 
ENDBRANCH  14  15
ENDBRANCH  13  14
ENDBRANCH   4  13
TORSDOF 6
ENDMDL
MODEL 6
REMARK VINA RESULT:    -6.482      1.787      2.107
REMARK INTER + INTRA:          -8.917
REMARK INTER:                  -8.601
REMARK INTRA:                  -0.315
REMARK UNBOUND:                -0.351
REMARK  Name = 
REMARK  6 active torsions:
REMARK  status: ('A' for Active; 'I' for Inactive)
REMARK    1  A    between atoms: N_1  and  C_2
REMARK    2  A    between atoms: C_2  and  C_3
REMARK    3  A    between atoms: C_3  and  C_4
REMARK    4  A    between atoms: C_7  and  C_8
REMARK    5  A    between atoms: C_8  and  O_9
REMARK    6  A    between atoms: O_9  and  C_10
REMARK                            x       y       z     vdW  Elec       q    Type
REMARK                         _______ _______ _______ _____ _____    ______ ____
ROOT
ATOM      1  C   UNL     1      45.671   2.909   7.893  0.00  0.00    +0.000 A 
ATOM      2  C   UNL     1      44.994   1.926   8.601  0.00  0.00    +0.000 A 
ATOM      3  N   UNL     1      44.314   2.150   9.749  0.00  0.00    +0.000 NA
ATOM      4  C   UNL     1      44.280   3.425  10.235  0.00  0.00    +0.000 A 
ATOM      5  C   UNL     1      44.940   4.474   9.590  0.00  0.00    +0.000 A 
ATOM      6 CL   UNL     1      44.929   6.093  10.181  0.00  0.00    +0.000 Cl
ATOM      7  C   UNL     1      45.648   4.204   8.416  0.00  0.00    +0.000 A 
ENDROOT
BRANCH   1   8
ATOM      8  C   UNL     1      46.407   2.586   6.620  0.00  0.00    +0.000 C 
BRANCH   8   9
ATOM      9  C   UNL     1      47.919   2.463   6.835  0.00  0.00    +0.000 C 
BRANCH   9  10
ATOM     10  N   UNL     1      48.555   1.789   5.707  0.00  0.00    +0.000 NA
ATOM     11  H   UNL     1      48.500   2.385   4.880  0.00  0.00    +0.000 HD
ATOM     12  H   UNL     1      48.041   0.938   5.475  0.00  0.00    +0.000 HD
ENDBRANCH   9  10
ENDBRANCH   8   9
ENDBRANCH   1   8
BRANCH   4  13
ATOM     13  C   UNL     1      43.452   3.637  11.484  0.00  0.00    +0.000 C 
BRANCH  13  14
ATOM     14  O   UNL     1      44.195   3.169  12.612  0.00  0.00    +0.000 OA
BRANCH  14  15
ATOM     15  C   UNL     1      45.236   3.937  13.042  0.00  0.00    +0.000 A 
ATOM     16  C   UNL     1      45.229   5.312  13.254  0.00  0.00    +0.000 A 
ATOM     17  C   UNL     1      46.386   5.943  13.719  0.00  0.00    +0.000 A 
ATOM     18  C   UNL     1      47.515   5.175  13.951  0.00  0.00    +0.000 A 
ATOM     19  N   UNL     1      47.564   3.844  13.752  0.00  0.00    +0.000 NA
ATOM     20  C   UNL     1      46.425   3.261  13.303  0.00  0.00    +0.000 A 
ENDBRANCH  14  15
ENDBRANCH  13  14
ENDBRANCH   4  13
TORSDOF 6
ENDMDL
MODEL 7
REMARK VINA RESULT:    -6.054      2.277      6.524
REMARK INTER + INTRA:          -8.351
REMARK INTER:                  -7.946
REMARK INTRA:                  -0.405
REMARK UNBOUND:                -0.351
REMARK  Name = 
REMARK  6 active torsions:
REMARK  status: ('A' for Active; 'I' for Inactive)
REMARK    1  A    between atoms: N_1  and  C_2
REMARK    2  A    between atoms: C_2  and  C_3
REMARK    3  A    between atoms: C_3  and  C_4
REMARK    4  A    between atoms: C_7  and  C_8
REMARK    5  A    between atoms: C_8  and  O_9
REMARK    6  A    between atoms: O_9  and  C_10
REMARK                            x       y       z     vdW  Elec       q    Type
REMARK                         _______ _______ _______ _____ _____    ______ ____
ROOT
ATOM      1  C   UNL     1      47.295   5.186  14.739  0.00  0.00    +0.000 A 
ATOM      2  C   UNL     1      46.125   4.613  14.260  0.00  0.00    +0.000 A 
ATOM      3  N   UNL     1      45.551   4.935  13.078  0.00  0.00    +0.000 NA
ATOM      4  C   UNL     1      46.167   5.873  12.300  0.00  0.00    +0.000 A 
ATOM      5  C   UNL     1      47.345   6.505  12.708  0.00  0.00    +0.000 A 
ATOM      6 CL   UNL     1      48.143   7.702  11.759  0.00  0.00    +0.000 Cl
ATOM      7  C   UNL     1      47.901   6.162  13.943  0.00  0.00    +0.000 A 
ENDROOT
BRANCH   1   8
ATOM      8  C   UNL     1      47.879   4.777  16.065  0.00  0.00    +0.000 C 
BRANCH   8   9
ATOM      9  C   UNL     1      47.640   3.295  16.375  0.00  0.00    +0.000 C 
BRANCH   9  10
ATOM     10  N   UNL     1      46.709   3.137  17.488  0.00  0.00    +0.000 NA
ATOM     11  H   UNL     1      46.084   3.943  17.525  0.00  0.00    +0.000 HD
ATOM     12  H   UNL     1      47.220   3.136  18.372  0.00  0.00    +0.000 HD
ENDBRANCH   9  10
ENDBRANCH   8   9
ENDBRANCH   1   8
BRANCH   4  13
ATOM     13  C   UNL     1      45.523   6.150  10.960  0.00  0.00    +0.000 C 
BRANCH  13  14
ATOM     14  O   UNL     1      44.643   5.070  10.641  0.00  0.00    +0.000 OA
BRANCH  14  15
ATOM     15  C   UNL     1      45.076   4.156   9.727  0.00  0.00    +0.000 A 
ATOM     16  C   UNL     1      44.960   2.771   9.808  0.00  0.00    +0.000 A 
ATOM     17  C   UNL     1      45.443   1.977   8.765  0.00  0.00    +0.000 A 
ATOM     18  C   UNL     1      46.034   2.596   7.677  0.00  0.00    +0.000 A 
ATOM     19  N   UNL     1      46.172   3.931   7.563  0.00  0.00    +0.000 NA
ATOM     20  C   UNL     1      45.690   4.675   8.590  0.00  0.00    +0.000 A 
ENDBRANCH  14  15
ENDBRANCH  13  14
ENDBRANCH   4  13
TORSDOF 6
ENDMDL
MODEL 8
REMARK VINA RESULT:    -5.810      2.877      4.036
REMARK INTER + INTRA:          -8.028
REMARK INTER:                  -7.710
REMARK INTRA:                  -0.319
REMARK UNBOUND:                -0.351
REMARK  Name = 
REMARK  6 active torsions:
REMARK  status: ('A' for Active; 'I' for Inactive)
REMARK    1  A    between atoms: N_1  and  C_2
REMARK    2  A    between atoms: C_2  and  C_3
REMARK    3  A    between atoms: C_3  and  C_4
REMARK    4  A    between atoms: C_7  and  C_8
REMARK    5  A    between atoms: C_8  and  O_9
REMARK    6  A    between atoms: O_9  and  C_10
REMARK                            x       y       z     vdW  Elec       q    Type
REMARK                         _______ _______ _______ _____ _____    ______ ____
ROOT
ATOM      1  C   UNL     1      45.102   4.218   9.806  0.00  0.00    +0.000 A 
ATOM      2  C   UNL     1      44.882   3.250  10.777  0.00  0.00    +0.000 A 
ATOM      3  N   UNL     1      45.134   3.425  12.094  0.00  0.00    +0.000 NA
ATOM      4  C   UNL     1      45.622   4.634  12.498  0.00  0.00    +0.000 A 
ATOM      5  C   UNL     1      45.879   5.663  11.588  0.00  0.00    +0.000 A 
ATOM      6 CL   UNL     1      46.507   7.196  12.060  0.00  0.00    +0.000 Cl
ATOM      7  C   UNL     1      45.625   5.442  10.232  0.00  0.00    +0.000 A 
ENDROOT
BRANCH   1   8
ATOM      8  C   UNL     1      44.796   3.953   8.356  0.00  0.00    +0.000 C 
BRANCH   8   9
ATOM      9  C   UNL     1      45.940   3.224   7.643  0.00  0.00    +0.000 C 
BRANCH   9  10
ATOM     10  N   UNL     1      46.778   4.163   6.902  0.00  0.00    +0.000 NA
ATOM     11  H   UNL     1      47.628   4.352   7.434  0.00  0.00    +0.000 HD
ATOM     12  H   UNL     1      46.298   5.059   6.810  0.00  0.00    +0.000 HD
ENDBRANCH   9  10
ENDBRANCH   8   9
ENDBRANCH   1   8
BRANCH   4  13
ATOM     13  C   UNL     1      45.825   4.803  13.988  0.00  0.00    +0.000 C 
BRANCH  13  14
ATOM     14  O   UNL     1      46.854   3.909  14.416  0.00  0.00    +0.000 OA
BRANCH  14  15
ATOM     15  C   UNL     1      47.387   4.110  15.654  0.00  0.00    +0.000 A 
ATOM     16  C   UNL     1      47.348   3.234  16.734  0.00  0.00    +0.000 A 
ATOM     17  C   UNL     1      47.967   3.592  17.935  0.00  0.00    +0.000 A 
ATOM     18  C   UNL     1      48.601   4.821  18.015  0.00  0.00    +0.000 A 
ATOM     19  N   UNL     1      48.655   5.700  16.995  0.00  0.00    +0.000 NA
ATOM     20  C   UNL     1      48.047   5.321  15.843  0.00  0.00    +0.000 A 
ENDBRANCH  14  15
ENDBRANCH  13  14
ENDBRANCH   4  13
TORSDOF 6
ENDMDL
MODEL 9
REMARK VINA RESULT:    -5.251      3.689      7.763
REMARK INTER + INTRA:          -7.290
REMARK INTER:                  -6.946
REMARK INTRA:                  -0.344
REMARK UNBOUND:                -0.351
REMARK  Name = 
REMARK  6 active torsions:
REMARK  status: ('A' for Active; 'I' for Inactive)
REMARK    1  A    between atoms: N_1  and  C_2
REMARK    2  A    between atoms: C_2  and  C_3
REMARK    3  A    between atoms: C_3  and  C_4
REMARK    4  A    between atoms: C_7  and  C_8
REMARK    5  A    between atoms: C_8  and  O_9
REMARK    6  A    between atoms: O_9  and  C_10
REMARK                            x       y       z     vdW  Elec       q    Type
REMARK                         _______ _______ _______ _____ _____    ______ ____
ROOT
ATOM      1  C   UNL     1      48.434   4.234  17.118  0.00  0.00    +0.000 A 
ATOM      2  C   UNL     1      47.647   3.498  16.243  0.00  0.00    +0.000 A 
ATOM      3  N   UNL     1      47.194   3.963  15.056  0.00  0.00    +0.000 NA
ATOM      4  C   UNL     1      47.543   5.230  14.688  0.00  0.00    +0.000 A 
ATOM      5  C   UNL     1      48.326   6.044  15.512  0.00  0.00    +0.000 A 
ATOM      6 CL   UNL     1      48.775   7.652  15.086  0.00  0.00    +0.000 Cl
ATOM      7  C   UNL     1      48.762   5.539  16.739  0.00  0.00    +0.000 A 
ENDROOT
BRANCH   1   8
ATOM      8  C   UNL     1      48.905   3.651  18.423  0.00  0.00    +0.000 C 
BRANCH   8   9
ATOM      9  C   UNL     1      48.706   4.614  19.598  0.00  0.00    +0.000 C 
BRANCH   9  10
ATOM     10  N   UNL     1      48.409   3.886  20.828  0.00  0.00    +0.000 NA
ATOM     11  H   UNL     1      48.776   4.404  21.627  0.00  0.00    +0.000 HD
ATOM     12  H   UNL     1      48.895   2.988  20.827  0.00  0.00    +0.000 HD
ENDBRANCH   9  10
ENDBRANCH   8   9
ENDBRANCH   1   8
BRANCH   4  13
ATOM     13  C   UNL     1      47.067   5.680  13.325  0.00  0.00    +0.000 C 
BRANCH  13  14
ATOM     14  O   UNL     1      45.654   5.477  13.241  0.00  0.00    +0.000 OA
BRANCH  14  15
ATOM     15  C   UNL     1      45.172   4.870  12.119  0.00  0.00    +0.000 A 
ATOM     16  C   UNL     1      45.347   5.285  10.803  0.00  0.00    +0.000 A 
ATOM     17  C   UNL     1      44.797   4.530   9.764  0.00  0.00    +0.000 A 
ATOM     18  C   UNL     1      44.085   3.384  10.079  0.00  0.00    +0.000 A 
ATOM     19  N   UNL     1      43.887   2.952  11.340  0.00  0.00    +0.000 NA
ATOM     20  C   UNL     1      44.436   3.706  12.325  0.00  0.00    +0.000 A 
ENDBRANCH  14  15
ENDBRANCH  13  14
ENDBRANCH   4  13
TORSDOF 6
ENDMDL
