MODEL 1
REMARK VINA RESULT:    -7.761      0.000      0.000
REMARK INTER + INTRA:         -10.793
REMARK INTER:                 -10.030
REMARK INTRA:                  -0.763
REMARK UNBOUND:                -0.763
REMARK  Name = 
REMARK  5 active torsions:
REMARK  status: ('A' for Active; 'I' for Inactive)
REMARK    1  A    between atoms: C_2  and  C_3
REMARK    2  A    between atoms: C_7  and  N_8
REMARK    3  A    between atoms: N_8  and  C_9
REMARK    4  A    between atoms: C_9  and  C_10
REMARK    5  A    between atoms: C_15  and  C_16
REMARK                            x       y       z     vdW  Elec       q    Type
REMARK                         _______ _______ _______ _____ _____    ______ ____
ROOT
ATOM      1  C   UNL     1      44.897   5.033  11.295  0.00  0.00    +0.000 A 
ATOM      2  C   UNL     1      45.133   4.138  12.345  0.00  0.00    +0.000 A 
ATOM      3  C   UNL     1      46.112   4.422  13.296  0.00  0.00    +0.000 A 
ATOM      4  C   UNL     1      46.852   5.602  13.208  0.00  0.00    +0.000 A 
ATOM      5  F   UNL     1      47.766   5.826  14.164  0.00  0.00    +0.000 F 
ATOM      6  C   UNL     1      46.654   6.532  12.175  0.00  0.00    +0.000 A 
ATOM      7  C   UNL     1      45.652   6.220  11.228  0.00  0.00    +0.000 A 
ENDROOT
BRANCH   6   8
ATOM      8  C   UNL     1      47.457   7.771  12.056  0.00  0.00    +0.000 A 
ATOM      9  C   UNL     1      48.799   7.757  11.644  0.00  0.00    +0.000 A 
ATOM     10  C   UNL     1      49.538   8.937  11.564  0.00  0.00    +0.000 A 
ATOM     11  C   UNL     1      48.914  10.126  11.890  0.00  0.00    +0.000 A 
ATOM     12  N   UNL     1      47.632  10.204  12.292  0.00  0.00    +0.000 NA
ATOM     13  C   UNL     1      46.943   9.036  12.365  0.00  0.00    +0.000 A 
ENDBRANCH   6   8
BRANCH   1  14
ATOM     14  C   UNL     1      43.862   4.735  10.230  0.00  0.00    +0.000 C 
BRANCH  14  15
ATOM     15  N   UNL     1      44.492   4.607   8.925  0.00  0.00    +0.000 N 
ATOM     16  H   UNL     1      43.951   5.006   8.159  0.00  0.00    +0.000 HD
BRANCH  15  21
ATOM     17  C   UNL     1      46.767   2.213   7.180  0.00  0.00    +0.000 A 
ATOM     18  C   UNL     1      46.391   1.058   7.845  0.00  0.00    +0.000 A 
ATOM     19  N   UNL     1      45.471   1.039   8.833  0.00  0.00    +0.000 NA
ATOM     20  C   UNL     1      44.904   2.230   9.159  0.00  0.00    +0.000 A 
ATOM     21  C   UNL     1      45.215   3.466   8.577  0.00  0.00    +0.000 A 
ATOM     22  C   UNL     1      46.162   3.422   7.550  0.00  0.00    +0.000 A 
BRANCH  17  24
ATOM     23  N   UNL     1      48.527   2.117   5.283  0.00  0.00    +0.000 NA
ATOM     24  C   UNL     1      47.740   2.163   6.137  0.00  0.00    +0.000 C 
ENDBRANCH  17  24
ENDBRANCH  15  21
ENDBRANCH  14  15
ENDBRANCH   1  14
TORSDOF 5
ENDMDL
MODEL 2
REMARK VINA RESULT:    -7.521      2.778      7.183
REMARK INTER + INTRA:         -10.481
REMARK INTER:                  -9.806
REMARK INTRA:                  -0.675
REMARK UNBOUND:                -0.763
REMARK  Name = 
REMARK  5 active torsions:
REMARK  status: ('A' for Active; 'I' for Inactive)
REMARK    1  A    between atoms: C_2  and  C_3
REMARK    2  A    between atoms: C_7  and  N_8
REMARK    3  A    between atoms: N_8  and  C_9
REMARK    4  A    between atoms: C_9  and  C_10
REMARK    5  A    between atoms: C_15  and  C_16
REMARK                            x       y       z     vdW  Elec       q    Type
REMARK                         _______ _______ _______ _____ _____    ______ ____
ROOT
ATOM      1  C   UNL     1      44.795   4.831  10.558  0.00  0.00    +0.000 A 
ATOM      2  C   UNL     1      43.901   3.910  11.119  0.00  0.00    +0.000 A 
ATOM      3  C   UNL     1      43.779   2.635  10.570  0.00  0.00    +0.000 A 
ATOM      4  C   UNL     1      44.552   2.270   9.467  0.00  0.00    +0.000 A 
ATOM      5  F   UNL     1      44.400   1.022   8.996  0.00  0.00    +0.000 F 
ATOM      6  C   UNL     1      45.461   3.155   8.867  0.00  0.00    +0.000 A 
ATOM      7  C   UNL     1      45.568   4.440   9.448  0.00  0.00    +0.000 A 
ENDROOT
BRANCH   6   8
ATOM      8  C   UNL     1      46.261   2.788   7.677  0.00  0.00    +0.000 A 
ATOM      9  C   UNL     1      46.246   3.551   6.498  0.00  0.00    +0.000 A 
ATOM     10  C   UNL     1      46.992   3.168   5.384  0.00  0.00    +0.000 A 
ATOM     11  C   UNL     1      47.757   2.021   5.469  0.00  0.00    +0.000 A 
ATOM     12  N   UNL     1      47.813   1.247   6.569  0.00  0.00    +0.000 NA
ATOM     13  C   UNL     1      47.070   1.646   7.634  0.00  0.00    +0.000 A 
ENDBRANCH   6   8
BRANCH   1  14
ATOM     14  C   UNL     1      44.925   6.233  11.114  0.00  0.00    +0.000 C 
BRANCH  14  15
ATOM     15  N   UNL     1      46.325   6.617  11.214  0.00  0.00    +0.000 N 
ATOM     16  H   UNL     1      46.870   6.430  10.374  0.00  0.00    +0.000 HD
BRANCH  15  21
ATOM     17  C   UNL     1      47.471   5.402  14.555  0.00  0.00    +0.000 A 
ATOM     18  C   UNL     1      48.373   6.414  14.838  0.00  0.00    +0.000 A 
ATOM     19  N   UNL     1      48.634   7.432  13.989  0.00  0.00    +0.000 NA
ATOM     20  C   UNL     1      47.955   7.431  12.813  0.00  0.00    +0.000 A 
ATOM     21  C   UNL     1      47.037   6.456  12.403  0.00  0.00    +0.000 A 
ATOM     22  C   UNL     1      46.795   5.436  13.328  0.00  0.00    +0.000 A 
BRANCH  17  24
ATOM     23  N   UNL     1      47.044   3.517  16.277  0.00  0.00    +0.000 NA
ATOM     24  C   UNL     1      47.234   4.360  15.501  0.00  0.00    +0.000 C 
ENDBRANCH  17  24
ENDBRANCH  15  21
ENDBRANCH  14  15
ENDBRANCH   1  14
TORSDOF 5
ENDMDL
MODEL 3
REMARK VINA RESULT:    -7.285      2.311      6.984
REMARK INTER + INTRA:         -10.177
REMARK INTER:                  -9.583
REMARK INTRA:                  -0.594
REMARK UNBOUND:                -0.763
REMARK  Name = 
REMARK  5 active torsions:
REMARK  status: ('A' for Active; 'I' for Inactive)
REMARK    1  A    between atoms: C_2  and  C_3
REMARK    2  A    between atoms: C_7  and  N_8
REMARK    3  A    between atoms: N_8  and  C_9
REMARK    4  A    between atoms: C_9  and  C_10
REMARK    5  A    between atoms: C_15  and  C_16
REMARK                            x       y       z     vdW  Elec       q    Type
REMARK                         _______ _______ _______ _____ _____    ______ ____
ROOT
ATOM      1  C   UNL     1      44.798   5.024  10.446  0.00  0.00    +0.000 A 
ATOM      2  C   UNL     1      43.919   4.121  11.055  0.00  0.00    +0.000 A 
ATOM      3  C   UNL     1      43.810   2.818  10.571  0.00  0.00    +0.000 A 
ATOM      4  C   UNL     1      44.585   2.409   9.484  0.00  0.00    +0.000 A 
ATOM      5  F   UNL     1      44.447   1.138   9.077  0.00  0.00    +0.000 F 
ATOM      6  C   UNL     1      45.481   3.275   8.838  0.00  0.00    +0.000 A 
ATOM      7  C   UNL     1      45.573   4.588   9.354  0.00  0.00    +0.000 A 
ENDROOT
BRANCH   6   8
ATOM      8  C   UNL     1      46.282   2.858   7.665  0.00  0.00    +0.000 A 
ATOM      9  C   UNL     1      46.309   3.601   6.473  0.00  0.00    +0.000 A 
ATOM     10  C   UNL     1      47.054   3.173   5.376  0.00  0.00    +0.000 A 
ATOM     11  C   UNL     1      47.777   2.001   5.490  0.00  0.00    +0.000 A 
ATOM     12  N   UNL     1      47.792   1.245   6.603  0.00  0.00    +0.000 NA
ATOM     13  C   UNL     1      47.050   1.688   7.652  0.00  0.00    +0.000 A 
ENDBRANCH   6   8
BRANCH   1  14
ATOM     14  C   UNL     1      44.913   6.454  10.931  0.00  0.00    +0.000 C 
BRANCH  14  15
ATOM     15  N   UNL     1      45.345   6.491  12.320  0.00  0.00    +0.000 N 
ATOM     16  H   UNL     1      44.642   6.845  12.967  0.00  0.00    +0.000 HD
BRANCH  15  21
ATOM     17  C   UNL     1      48.746   8.036  12.348  0.00  0.00    +0.000 A 
ATOM     18  C   UNL     1      49.333   7.212  13.293  0.00  0.00    +0.000 A 
ATOM     19  N   UNL     1      48.670   6.218  13.923  0.00  0.00    +0.000 NA
ATOM     20  C   UNL     1      47.366   6.047  13.583  0.00  0.00    +0.000 A 
ATOM     21  C   UNL     1      46.655   6.827  12.662  0.00  0.00    +0.000 A 
ATOM     22  C   UNL     1      47.397   7.829  12.030  0.00  0.00    +0.000 A 
BRANCH  17  24
ATOM     23  N   UNL     1      50.130   9.899  11.201  0.00  0.00    +0.000 NA
ATOM     24  C   UNL     1      49.507   9.063  11.711  0.00  0.00    +0.000 C 
ENDBRANCH  17  24
ENDBRANCH  15  21
ENDBRANCH  14  15
ENDBRANCH   1  14
TORSDOF 5
ENDMDL
MODEL 4
REMARK VINA RESULT:    -7.125      2.113      3.573
REMARK INTER + INTRA:          -9.970
REMARK INTER:                  -9.430
REMARK INTRA:                  -0.540
REMARK UNBOUND:                -0.763
REMARK  Name = 
REMARK  5 active torsions:
REMARK  status: ('A' for Active; 'I' for Inactive)
REMARK    1  A    between atoms: C_2  and  C_3
REMARK    2  A    between atoms: C_7  and  N_8
REMARK    3  A    between atoms: N_8  and  C_9
REMARK    4  A    between atoms: C_9  and  C_10
REMARK    5  A    between atoms: C_15  and  C_16
REMARK                            x       y       z     vdW  Elec       q    Type
REMARK                         _______ _______ _______ _____ _____    ______ ____
ROOT
ATOM      1  C   UNL     1      45.104   5.461  11.309  0.00  0.00    +0.000 A 
ATOM      2  C   UNL     1      45.519   6.770  11.040  0.00  0.00    +0.000 A 
ATOM      3  C   UNL     1      46.451   7.391  11.870  0.00  0.00    +0.000 A 
ATOM      4  C   UNL     1      46.979   6.706  12.965  0.00  0.00    +0.000 A 
ATOM      5  F   UNL     1      47.885   7.352  13.715  0.00  0.00    +0.000 F 
ATOM      6  C   UNL     1      46.596   5.393  13.279  0.00  0.00    +0.000 A 
ATOM      7  C   UNL     1      45.653   4.787  12.417  0.00  0.00    +0.000 A 
ENDROOT
BRANCH   6   8
ATOM      8  C   UNL     1      47.126   4.670  14.458  0.00  0.00    +0.000 A 
ATOM      9  C   UNL     1      47.410   5.319  15.670  0.00  0.00    +0.000 A 
ATOM     10  C   UNL     1      47.931   4.618  16.757  0.00  0.00    +0.000 A 
ATOM     11  C   UNL     1      48.153   3.262  16.617  0.00  0.00    +0.000 A 
ATOM     12  N   UNL     1      47.903   2.583  15.482  0.00  0.00    +0.000 NA
ATOM     13  C   UNL     1      47.402   3.298  14.441  0.00  0.00    +0.000 A 
ENDBRANCH   6   8
BRANCH   1  14
ATOM     14  C   UNL     1      44.070   4.773  10.443  0.00  0.00    +0.000 C 
BRANCH  14  15
ATOM     15  N   UNL     1      44.557   4.628   9.080  0.00  0.00    +0.000 N 
ATOM     16  H   UNL     1      43.935   5.011   8.371  0.00  0.00    +0.000 HD
BRANCH  15  21
ATOM     17  C   UNL     1      46.739   2.252   7.197  0.00  0.00    +0.000 A 
ATOM     18  C   UNL     1      46.354   1.082   7.829  0.00  0.00    +0.000 A 
ATOM     19  N   UNL     1      45.457   1.046   8.837  0.00  0.00    +0.000 NA
ATOM     20  C   UNL     1      44.923   2.235   9.218  0.00  0.00    +0.000 A 
ATOM     21  C   UNL     1      45.247   3.485   8.675  0.00  0.00    +0.000 A 
ATOM     22  C   UNL     1      46.169   3.459   7.624  0.00  0.00    +0.000 A 
BRANCH  17  24
ATOM     23  N   UNL     1      48.454   2.187   5.257  0.00  0.00    +0.000 NA
ATOM     24  C   UNL     1      47.687   2.220   6.130  0.00  0.00    +0.000 C 
ENDBRANCH  17  24
ENDBRANCH  15  21
ENDBRANCH  14  15
ENDBRANCH   1  14
TORSDOF 5
ENDMDL
MODEL 5
REMARK VINA RESULT:    -7.046      2.640      4.153
REMARK INTER + INTRA:          -9.868
REMARK INTER:                  -9.279
REMARK INTRA:                  -0.589
REMARK UNBOUND:                -0.763
REMARK  Name = 
REMARK  5 active torsions:
REMARK  status: ('A' for Active; 'I' for Inactive)
REMARK    1  A    between atoms: C_2  and  C_3
REMARK    2  A    between atoms: C_7  and  N_8
REMARK    3  A    between atoms: N_8  and  C_9
REMARK    4  A    between atoms: C_9  and  C_10
REMARK    5  A    between atoms: C_15  and  C_16
REMARK                            x       y       z     vdW  Elec       q    Type
REMARK                         _______ _______ _______ _____ _____    ______ ____
ROOT
ATOM      1  C   UNL     1      45.119   5.231  12.406  0.00  0.00    +0.000 A 
ATOM      2  C   UNL     1      45.856   6.236  11.767  0.00  0.00    +0.000 A 
ATOM      3  C   UNL     1      47.079   6.646  12.295  0.00  0.00    +0.000 A 
ATOM      4  C   UNL     1      47.575   6.051  13.456  0.00  0.00    +0.000 A 
ATOM      5  F   UNL     1      48.766   6.478  13.903  0.00  0.00    +0.000 F 
ATOM      6  C   UNL     1      46.876   5.041  14.134  0.00  0.00    +0.000 A 
ATOM      7  C   UNL     1      45.641   4.642  13.573  0.00  0.00    +0.000 A 
ENDROOT
BRANCH   6   8
ATOM      8  C   UNL     1      47.379   4.427  15.384  0.00  0.00    +0.000 A 
ATOM      9  C   UNL     1      47.811   3.093  15.443  0.00  0.00    +0.000 A 
ATOM     10  C   UNL     1      48.259   2.534  16.640  0.00  0.00    +0.000 A 
ATOM     11  C   UNL     1      48.277   3.329  17.769  0.00  0.00    +0.000 A 
ATOM     12  N   UNL     1      47.876   4.614  17.777  0.00  0.00    +0.000 NA
ATOM     13  C   UNL     1      47.440   5.125  16.596  0.00  0.00    +0.000 A 
ENDBRANCH   6   8
BRANCH   1  14
ATOM     14  C   UNL     1      43.773   4.788  11.872  0.00  0.00    +0.000 C 
BRANCH  14  15
ATOM     15  N   UNL     1      43.873   3.473  11.258  0.00  0.00    +0.000 N 
ATOM     16  H   UNL     1      44.062   2.718  11.915  0.00  0.00    +0.000 HD
BRANCH  15  21
ATOM     17  C   UNL     1      45.779   2.063   8.372  0.00  0.00    +0.000 A 
ATOM     18  C   UNL     1      45.808   3.197   7.578  0.00  0.00    +0.000 A 
ATOM     19  N   UNL     1      45.221   4.361   7.928  0.00  0.00    +0.000 NA
ATOM     20  C   UNL     1      44.583   4.384   9.127  0.00  0.00    +0.000 A 
ATOM     21  C   UNL     1      44.465   3.300  10.007  0.00  0.00    +0.000 A 
ATOM     22  C   UNL     1      45.106   2.127   9.600  0.00  0.00    +0.000 A 
BRANCH  17  24
ATOM     23  N   UNL     1      46.952  -0.111   7.596  0.00  0.00    +0.000 NA
ATOM     24  C   UNL     1      46.429   0.865   7.947  0.00  0.00    +0.000 C 
ENDBRANCH  17  24
ENDBRANCH  15  21
ENDBRANCH  14  15
ENDBRANCH   1  14
TORSDOF 5
ENDMDL
MODEL 6
REMARK VINA RESULT:    -6.666      3.525      7.597
REMARK INTER + INTRA:          -9.377
REMARK INTER:                  -8.526
REMARK INTRA:                  -0.851
REMARK UNBOUND:                -0.763
REMARK  Name = 
REMARK  5 active torsions:
REMARK  status: ('A' for Active; 'I' for Inactive)
REMARK    1  A    between atoms: C_2  and  C_3
REMARK    2  A    between atoms: C_7  and  N_8
REMARK    3  A    between atoms: N_8  and  C_9
REMARK    4  A    between atoms: C_9  and  C_10
REMARK    5  A    between atoms: C_15  and  C_16
REMARK                            x       y       z     vdW  Elec       q    Type
REMARK                         _______ _______ _______ _____ _____    ______ ____
ROOT
ATOM      1  C   UNL     1      47.522   7.507  12.582  0.00  0.00    +0.000 A 
ATOM      2  C   UNL     1      46.591   8.500  12.908  0.00  0.00    +0.000 A 
ATOM      3  C   UNL     1      45.277   8.400  12.453  0.00  0.00    +0.000 A 
ATOM      4  C   UNL     1      44.885   7.307  11.680  0.00  0.00    +0.000 A 
ATOM      5  F   UNL     1      43.602   7.261  11.288  0.00  0.00    +0.000 F 
ATOM      6  C   UNL     1      45.779   6.285  11.325  0.00  0.00    +0.000 A 
ATOM      7  C   UNL     1      47.103   6.410  11.804  0.00  0.00    +0.000 A 
ENDROOT
BRANCH   6   8
ATOM      8  C   UNL     1      45.380   5.138  10.477  0.00  0.00    +0.000 A 
ATOM      9  C   UNL     1      45.702   5.067   9.113  0.00  0.00    +0.000 A 
ATOM     10  C   UNL     1      45.292   3.985   8.333  0.00  0.00    +0.000 A 
ATOM     11  C   UNL     1      44.569   2.977   8.939  0.00  0.00    +0.000 A 
ATOM     12  N   UNL     1      44.229   2.987  10.241  0.00  0.00    +0.000 NA
ATOM     13  C   UNL     1      44.638   4.058  10.970  0.00  0.00    +0.000 A 
ENDBRANCH   6   8
BRANCH   1  14
ATOM     14  C   UNL     1      48.963   7.605  13.036  0.00  0.00    +0.000 C 
BRANCH  14  15
ATOM     15  N   UNL     1      49.034   7.866  14.465  0.00  0.00    +0.000 N 
ATOM     16  H   UNL     1      49.517   8.729  14.709  0.00  0.00    +0.000 HD
BRANCH  15  21
ATOM     17  C   UNL     1      48.451   4.949  16.724  0.00  0.00    +0.000 A 
ATOM     18  C   UNL     1      49.653   4.982  17.409  0.00  0.00    +0.000 A 
ATOM     19  N   UNL     1      50.630   5.878  17.149  0.00  0.00    +0.000 NA
ATOM     20  C   UNL     1      50.381   6.777  16.161  0.00  0.00    +0.000 A 
ATOM     21  C   UNL     1      49.218   6.832  15.383  0.00  0.00    +0.000 A 
ATOM     22  C   UNL     1      48.236   5.891  15.709  0.00  0.00    +0.000 A 
BRANCH  17  24
ATOM     23  N   UNL     1      46.651   3.186  17.323  0.00  0.00    +0.000 NA
ATOM     24  C   UNL     1      47.456   3.980  17.056  0.00  0.00    +0.000 C 
ENDBRANCH  17  24
ENDBRANCH  15  21
ENDBRANCH  14  15
ENDBRANCH   1  14
TORSDOF 5
ENDMDL
MODEL 7
REMARK VINA RESULT:    -6.299      2.650      4.369
REMARK INTER + INTRA:          -8.903
REMARK INTER:                  -8.221
REMARK INTRA:                  -0.682
REMARK UNBOUND:                -0.763
REMARK  Name = 
REMARK  5 active torsions:
REMARK  status: ('A' for Active; 'I' for Inactive)
REMARK    1  A    between atoms: C_2  and  C_3
REMARK    2  A    between atoms: C_7  and  N_8
REMARK    3  A    between atoms: N_8  and  C_9
REMARK    4  A    between atoms: C_9  and  C_10
REMARK    5  A    between atoms: C_15  and  C_16
REMARK                            x       y       z     vdW  Elec       q    Type
REMARK                         _______ _______ _______ _____ _____    ______ ____
ROOT
ATOM      1  C   UNL     1      46.256   7.167  12.395  0.00  0.00    +0.000 A 
ATOM      2  C   UNL     1      47.339   7.870  11.856  0.00  0.00    +0.000 A 
ATOM      3  C   UNL     1      48.595   7.784  12.455  0.00  0.00    +0.000 A 
ATOM      4  C   UNL     1      48.776   6.991  13.589  0.00  0.00    +0.000 A 
ATOM      5  F   UNL     1      50.012   6.936  14.109  0.00  0.00    +0.000 F 
ATOM      6  C   UNL     1      47.723   6.267  14.170  0.00  0.00    +0.000 A 
ATOM      7  C   UNL     1      46.462   6.369  13.537  0.00  0.00    +0.000 A 
ENDROOT
BRANCH   6   8
ATOM      8  C   UNL     1      47.899   5.449  15.391  0.00  0.00    +0.000 A 
ATOM      9  C   UNL     1      47.336   4.170  15.524  0.00  0.00    +0.000 A 
ATOM     10  C   UNL     1      47.498   3.431  16.696  0.00  0.00    +0.000 A 
ATOM     11  C   UNL     1      48.237   3.984  17.723  0.00  0.00    +0.000 A 
ATOM     12  N   UNL     1      48.802   5.204  17.657  0.00  0.00    +0.000 NA
ATOM     13  C   UNL     1      48.619   5.900  16.504  0.00  0.00    +0.000 A 
ENDBRANCH   6   8
BRANCH   1  14
ATOM     14  C   UNL     1      44.874   7.267  11.784  0.00  0.00    +0.000 C 
BRANCH  14  15
ATOM     15  N   UNL     1      44.814   6.530  10.531  0.00  0.00    +0.000 N 
ATOM     16  H   UNL     1      44.351   7.030   9.774  0.00  0.00    +0.000 HD
BRANCH  15  21
ATOM     17  C   UNL     1      44.978   2.906   9.639  0.00  0.00    +0.000 A 
ATOM     18  C   UNL     1      43.916   2.462  10.409  0.00  0.00    +0.000 A 
ATOM     19  N   UNL     1      43.189   3.274  11.207  0.00  0.00    +0.000 NA
ATOM     20  C   UNL     1      43.544   4.585  11.225  0.00  0.00    +0.000 A 
ATOM     21  C   UNL     1      44.609   5.150  10.512  0.00  0.00    +0.000 A 
ATOM     22  C   UNL     1      45.315   4.266   9.691  0.00  0.00    +0.000 A 
BRANCH  17  24
ATOM     23  N   UNL     1      46.285   1.261   8.127  0.00  0.00    +0.000 NA
ATOM     24  C   UNL     1      45.700   1.996   8.809  0.00  0.00    +0.000 C 
ENDBRANCH  17  24
ENDBRANCH  15  21
ENDBRANCH  14  15
ENDBRANCH   1  14
TORSDOF 5
ENDMDL
MODEL 8
REMARK VINA RESULT:    -6.119      4.367      7.752
REMARK INTER + INTRA:          -8.671
REMARK INTER:                  -7.985
REMARK INTRA:                  -0.686
REMARK UNBOUND:                -0.763
REMARK  Name = 
REMARK  5 active torsions:
REMARK  status: ('A' for Active; 'I' for Inactive)
REMARK    1  A    between atoms: C_2  and  C_3
REMARK    2  A    between atoms: C_7  and  N_8
REMARK    3  A    between atoms: N_8  and  C_9
REMARK    4  A    between atoms: C_9  and  C_10
REMARK    5  A    between atoms: C_15  and  C_16
REMARK                            x       y       z     vdW  Elec       q    Type
REMARK                         _______ _______ _______ _____ _____    ______ ____
ROOT
ATOM      1  C   UNL     1      47.629   7.275  13.890  0.00  0.00    +0.000 A 
ATOM      2  C   UNL     1      47.262   8.548  13.438  0.00  0.00    +0.000 A 
ATOM      3  C   UNL     1      46.197   8.692  12.550  0.00  0.00    +0.000 A 
ATOM      4  C   UNL     1      45.489   7.570  12.117  0.00  0.00    +0.000 A 
ATOM      5  F   UNL     1      44.464   7.778  11.276  0.00  0.00    +0.000 F 
ATOM      6  C   UNL     1      45.817   6.272  12.539  0.00  0.00    +0.000 A 
ATOM      7  C   UNL     1      46.898   6.157  13.443  0.00  0.00    +0.000 A 
ENDROOT
BRANCH   6   8
ATOM      8  C   UNL     1      45.093   5.073  12.059  0.00  0.00    +0.000 A 
ATOM      9  C   UNL     1      44.980   4.762  10.694  0.00  0.00    +0.000 A 
ATOM     10  C   UNL     1      44.271   3.639  10.270  0.00  0.00    +0.000 A 
ATOM     11  C   UNL     1      43.689   2.830  11.226  0.00  0.00    +0.000 A 
ATOM     12  N   UNL     1      43.761   3.074  12.548  0.00  0.00    +0.000 NA
ATOM     13  C   UNL     1      44.454   4.180  12.927  0.00  0.00    +0.000 A 
ENDBRANCH   6   8
BRANCH   1  14
ATOM     14  C   UNL     1      48.801   7.085  14.830  0.00  0.00    +0.000 C 
BRANCH  14  15
ATOM     15  N   UNL     1      48.339   6.696  16.153  0.00  0.00    +0.000 N 
ATOM     16  H   UNL     1      48.369   7.444  16.843  0.00  0.00    +0.000 HD
BRANCH  15  21
ATOM     17  C   UNL     1      50.108   3.666  17.437  0.00  0.00    +0.000 A 
ATOM     18  C   UNL     1      49.028   2.799  17.462  0.00  0.00    +0.000 A 
ATOM     19  N   UNL     1      47.776   3.165  17.113  0.00  0.00    +0.000 NA
ATOM     20  C   UNL     1      47.608   4.454  16.719  0.00  0.00    +0.000 A 
ATOM     21  C   UNL     1      48.612   5.430  16.673  0.00  0.00    +0.000 A 
ATOM     22  C   UNL     1      49.890   4.989  17.029  0.00  0.00    +0.000 A 
BRANCH  17  24
ATOM     23  N   UNL     1      52.471   2.850  18.110  0.00  0.00    +0.000 NA
ATOM     24  C   UNL     1      51.409   3.212  17.809  0.00  0.00    +0.000 C 
ENDBRANCH  17  24
ENDBRANCH  15  21
ENDBRANCH  14  15
ENDBRANCH   1  14
TORSDOF 5
ENDMDL
MODEL 9
REMARK VINA RESULT:    -6.077      2.309      6.518
REMARK INTER + INTRA:          -8.616
REMARK INTER:                  -7.733
REMARK INTRA:                  -0.883
REMARK UNBOUND:                -0.763
REMARK  Name = 
REMARK  5 active torsions:
REMARK  status: ('A' for Active; 'I' for Inactive)
REMARK    1  A    between atoms: C_2  and  C_3
REMARK    2  A    between atoms: C_7  and  N_8
REMARK    3  A    between atoms: N_8  and  C_9
REMARK    4  A    between atoms: C_9  and  C_10
REMARK    5  A    between atoms: C_15  and  C_16
REMARK                            x       y       z     vdW  Elec       q    Type
REMARK                         _______ _______ _______ _____ _____    ______ ____
ROOT
ATOM      1  C   UNL     1      45.674   4.808  13.118  0.00  0.00    +0.000 A 
ATOM      2  C   UNL     1      44.430   5.425  13.290  0.00  0.00    +0.000 A 
ATOM      3  C   UNL     1      43.542   5.516  12.220  0.00  0.00    +0.000 A 
ATOM      4  C   UNL     1      43.888   4.985  10.977  0.00  0.00    +0.000 A 
ATOM      5  F   UNL     1      42.983   5.088   9.991  0.00  0.00    +0.000 F 
ATOM      6  C   UNL     1      45.123   4.357  10.751  0.00  0.00    +0.000 A 
ATOM      7  C   UNL     1      46.001   4.275  11.856  0.00  0.00    +0.000 A 
ENDROOT
BRANCH   6   8
ATOM      8  C   UNL     1      45.511   3.819   9.427  0.00  0.00    +0.000 A 
ATOM      9  C   UNL     1      45.491   2.445   9.141  0.00  0.00    +0.000 A 
ATOM     10  C   UNL     1      45.884   1.965   7.892  0.00  0.00    +0.000 A 
ATOM     11  C   UNL     1      46.286   2.876   6.935  0.00  0.00    +0.000 A 
ATOM     12  N   UNL     1      46.328   4.205   7.148  0.00  0.00    +0.000 NA
ATOM     13  C   UNL     1      45.944   4.638   8.377  0.00  0.00    +0.000 A 
ENDBRANCH   6   8
BRANCH   1  14
ATOM     14  C   UNL     1      46.671   4.723  14.255  0.00  0.00    +0.000 C 
BRANCH  14  15
ATOM     15  N   UNL     1      47.192   6.042  14.579  0.00  0.00    +0.000 N 
ATOM     16  H   UNL     1      46.718   6.499  15.357  0.00  0.00    +0.000 HD
BRANCH  15  21
ATOM     17  C   UNL     1      49.239   7.743  11.959  0.00  0.00    +0.000 A 
ATOM     18  C   UNL     1      48.459   8.875  11.798  0.00  0.00    +0.000 A 
ATOM     19  N   UNL     1      47.308   9.084  12.473  0.00  0.00    +0.000 NA
ATOM     20  C   UNL     1      46.933   8.114  13.347  0.00  0.00    +0.000 A 
ATOM     21  C   UNL     1      47.622   6.917  13.581  0.00  0.00    +0.000 A 
ATOM     22  C   UNL     1      48.814   6.764  12.867  0.00  0.00    +0.000 A 
BRANCH  17  24
ATOM     23  N   UNL     1      51.442   7.463  10.626  0.00  0.00    +0.000 NA
ATOM     24  C   UNL     1      50.451   7.589  11.220  0.00  0.00    +0.000 C 
ENDBRANCH  17  24
ENDBRANCH  15  21
ENDBRANCH  14  15
ENDBRANCH   1  14
TORSDOF 5
ENDMDL
