MODEL 1
REMARK VINA RESULT:    -7.706      0.000      0.000
REMARK INTER + INTRA:          -9.132
REMARK INTER:                  -9.283
REMARK INTRA:                   0.151
REMARK UNBOUND:                 0.151
REMARK  Name = 
REMARK  5 active torsions:
REMARK  status: ('A' for Active; 'I' for Inactive)
REMARK    1  A    between atoms: C_1  and  C_2
REMARK    2  A    between atoms: C_4  and  N_5
REMARK    3  A    between atoms: C_4  and  C_15
REMARK    4  A    between atoms: C_9  and  C_10
REMARK    5  A    between atoms: C_18  and  O_19
REMARK                            x       y       z     vdW  Elec       q    Type
REMARK                         _______ _______ _______ _____ _____    ______ ____
ROOT
ATOM      1  N   UNL     1      44.764   5.201   9.835  0.00  0.00    +0.000 N 
ATOM      2  C   UNL     1      45.421   4.271   9.038  0.00  0.00    +0.000 A 
ATOM      3  C   UNL     1      45.342   2.897   9.212  0.00  0.00    +0.000 A 
ATOM      4  C   UNL     1      46.020   2.052   8.328  0.00  0.00    +0.000 A 
ATOM      5  C   UNL     1      46.771   2.595   7.287  0.00  0.00    +0.000 A 
ATOM      6  C   UNL     1      46.793   3.975   7.185  0.00  0.00    +0.000 A 
ATOM      7  N   UNL     1      46.140   4.811   8.032  0.00  0.00    +0.000 NA
ATOM      8  H   UNL     1      45.036   6.130   9.536  0.00  0.00    +0.000 HD
ENDROOT
BRANCH   5   9
ATOM      9  C   UNL     1      47.495   1.692   6.359  0.00  0.00    +0.000 C 
ATOM     10  N   UNL     1      48.434   2.214   5.517  0.00  0.00    +0.000 N 
ATOM     11  O   UNL     1      47.265   0.488   6.349  0.00  0.00    +0.000 OA
ATOM     12  H   UNL     1      48.703   3.182   5.442  0.00  0.00    +0.000 HD
ATOM     13  H   UNL     1      48.905   1.556   4.905  0.00  0.00    +0.000 HD
ENDBRANCH   5   9
BRANCH   1  17
ATOM     14  C   UNL     1      42.353   5.770  12.919  0.00  0.00    +0.000 C 
ATOM     15  C   UNL     1      42.793   5.411  11.537  0.00  0.00    +0.000 C 
ATOM     16  C   UNL     1      43.084   3.974  11.243  0.00  0.00    +0.000 C 
ATOM     17  C   UNL     1      44.220   4.997  11.181  0.00  0.00    +0.000 C 
BRANCH  17  18
ATOM     18  C   UNL     1      45.289   4.931  12.268  0.00  0.00    +0.000 A 
ATOM     19  C   UNL     1      46.000   6.058  12.707  0.00  0.00    +0.000 A 
ATOM     20  C   UNL     1      46.955   5.961  13.719  0.00  0.00    +0.000 A 
ATOM     21  C   UNL     1      47.192   4.715  14.266  0.00  0.00    +0.000 A 
ATOM     22  N   UNL     1      46.562   3.598  13.878  0.00  0.00    +0.000 NA
ATOM     23  C   UNL     1      45.640   3.732  12.891  0.00  0.00    +0.000 A 
BRANCH  21  24
ATOM     24  O   UNL     1      48.102   4.547  15.265  0.00  0.00    +0.000 OA
ATOM     25  H   UNL     1      48.762   5.251  15.190  0.00  0.00    +0.000 HD
ENDBRANCH  21  24
ENDBRANCH  17  18
ENDBRANCH   1  17
TORSDOF 4
ENDMDL
MODEL 2
REMARK VINA RESULT:    -6.822      2.272      6.547
REMARK INTER + INTRA:          -8.067
REMARK INTER:                  -8.283
REMARK INTRA:                   0.216
REMARK UNBOUND:                 0.151
REMARK  Name = 
REMARK  5 active torsions:
REMARK  status: ('A' for Active; 'I' for Inactive)
REMARK    1  A    between atoms: C_1  and  C_2
REMARK    2  A    between atoms: C_4  and  N_5
REMARK    3  A    between atoms: C_4  and  C_15
REMARK    4  A    between atoms: C_9  and  C_10
REMARK    5  A    between atoms: C_18  and  O_19
REMARK                            x       y       z     vdW  Elec       q    Type
REMARK                         _______ _______ _______ _____ _____    ______ ____
ROOT
ATOM      1  N   UNL     1      44.811   6.462  11.558  0.00  0.00    +0.000 N 
ATOM      2  C   UNL     1      45.909   6.723  12.368  0.00  0.00    +0.000 A 
ATOM      3  C   UNL     1      46.869   5.782  12.710  0.00  0.00    +0.000 A 
ATOM      4  C   UNL     1      47.954   6.163  13.505  0.00  0.00    +0.000 A 
ATOM      5  C   UNL     1      48.058   7.480  13.952  0.00  0.00    +0.000 A 
ATOM      6  C   UNL     1      47.058   8.353  13.562  0.00  0.00    +0.000 A 
ATOM      7  N   UNL     1      46.000   8.002  12.788  0.00  0.00    +0.000 NA
ATOM      8  H   UNL     1      44.238   7.298  11.515  0.00  0.00    +0.000 HD
ENDROOT
BRANCH   5   9
ATOM      9  C   UNL     1      49.206   7.875  14.804  0.00  0.00    +0.000 C 
ATOM     10  N   UNL     1      50.452   7.404  14.505  0.00  0.00    +0.000 N 
ATOM     11  O   UNL     1      49.048   8.622  15.763  0.00  0.00    +0.000 OA
ATOM     12  H   UNL     1      50.696   6.790  13.744  0.00  0.00    +0.000 HD
ATOM     13  H   UNL     1      51.206   7.705  15.114  0.00  0.00    +0.000 HD
ENDBRANCH   5   9
BRANCH   1  17
ATOM     14  C   UNL     1      43.484   2.800  12.244  0.00  0.00    +0.000 C 
ATOM     15  C   UNL     1      43.582   4.288  12.325  0.00  0.00    +0.000 C 
ATOM     16  C   UNL     1      42.705   5.100  11.427  0.00  0.00    +0.000 C 
ATOM     17  C   UNL     1      44.223   5.157  11.243  0.00  0.00    +0.000 C 
BRANCH  17  18
ATOM     18  C   UNL     1      44.806   4.510   9.991  0.00  0.00    +0.000 A 
ATOM     19  C   UNL     1      44.542   3.181   9.626  0.00  0.00    +0.000 A 
ATOM     20  C   UNL     1      45.077   2.631   8.461  0.00  0.00    +0.000 A 
ATOM     21  C   UNL     1      45.891   3.432   7.685  0.00  0.00    +0.000 A 
ATOM     22  N   UNL     1      46.199   4.701   7.988  0.00  0.00    +0.000 NA
ATOM     23  C   UNL     1      45.659   5.200   9.128  0.00  0.00    +0.000 A 
BRANCH  21  24
ATOM     24  O   UNL     1      46.440   2.965   6.528  0.00  0.00    +0.000 OA
ATOM     25  H   UNL     1      47.372   3.223   6.514  0.00  0.00    +0.000 HD
ENDBRANCH  21  24
ENDBRANCH  17  18
ENDBRANCH   1  17
TORSDOF 4
ENDMDL
MODEL 3
REMARK VINA RESULT:    -6.481      2.139      6.794
REMARK INTER + INTRA:          -7.656
REMARK INTER:                  -7.556
REMARK INTRA:                  -0.100
REMARK UNBOUND:                 0.151
REMARK  Name = 
REMARK  5 active torsions:
REMARK  status: ('A' for Active; 'I' for Inactive)
REMARK    1  A    between atoms: C_1  and  C_2
REMARK    2  A    between atoms: C_4  and  N_5
REMARK    3  A    between atoms: C_4  and  C_15
REMARK    4  A    between atoms: C_9  and  C_10
REMARK    5  A    between atoms: C_18  and  O_19
REMARK                            x       y       z     vdW  Elec       q    Type
REMARK                         _______ _______ _______ _____ _____    ______ ____
ROOT
ATOM      1  N   UNL     1      46.397   6.336  12.187  0.00  0.00    +0.000 N 
ATOM      2  C   UNL     1      46.880   5.871  13.405  0.00  0.00    +0.000 A 
ATOM      3  C   UNL     1      46.447   4.708  14.025  0.00  0.00    +0.000 A 
ATOM      4  C   UNL     1      47.027   4.318  15.236  0.00  0.00    +0.000 A 
ATOM      5  C   UNL     1      48.028   5.100  15.811  0.00  0.00    +0.000 A 
ATOM      6  C   UNL     1      48.400   6.242  15.124  0.00  0.00    +0.000 A 
ATOM      7  N   UNL     1      47.851   6.636  13.947  0.00  0.00    +0.000 NA
ATOM      8  H   UNL     1      46.832   7.230  11.990  0.00  0.00    +0.000 HD
ENDROOT
BRANCH   5   9
ATOM      9  C   UNL     1      48.631   4.685  17.100  0.00  0.00    +0.000 C 
ATOM     10  N   UNL     1      49.922   5.033  17.376  0.00  0.00    +0.000 N 
ATOM     11  O   UNL     1      47.983   4.042  17.918  0.00  0.00    +0.000 OA
ATOM     12  H   UNL     1      50.543   5.558  16.781  0.00  0.00    +0.000 HD
ATOM     13  H   UNL     1      50.289   4.730  18.273  0.00  0.00    +0.000 HD
ENDBRANCH   5   9
BRANCH   1  17
ATOM     14  C   UNL     1      42.635   5.144  11.916  0.00  0.00    +0.000 C 
ATOM     15  C   UNL     1      43.809   5.992  12.284  0.00  0.00    +0.000 C 
ATOM     16  C   UNL     1      44.155   7.138  11.389  0.00  0.00    +0.000 C 
ATOM     17  C   UNL     1      45.138   5.974  11.529  0.00  0.00    +0.000 C 
BRANCH  17  18
ATOM     18  C   UNL     1      45.320   5.056  10.325  0.00  0.00    +0.000 A 
ATOM     19  C   UNL     1      44.851   3.735  10.295  0.00  0.00    +0.000 A 
ATOM     20  C   UNL     1      45.016   2.933   9.167  0.00  0.00    +0.000 A 
ATOM     21  C   UNL     1      45.674   3.476   8.081  0.00  0.00    +0.000 A 
ATOM     22  N   UNL     1      46.164   4.723   8.052  0.00  0.00    +0.000 NA
ATOM     23  C   UNL     1      45.983   5.472   9.168  0.00  0.00    +0.000 A 
BRANCH  21  24
ATOM     24  O   UNL     1      45.863   2.755   6.940  0.00  0.00    +0.000 OA
ATOM     25  H   UNL     1      46.769   2.909   6.636  0.00  0.00    +0.000 HD
ENDBRANCH  21  24
ENDBRANCH  17  18
ENDBRANCH   1  17
TORSDOF 4
ENDMDL
MODEL 4
REMARK VINA RESULT:    -6.342      2.838      6.520
REMARK INTER + INTRA:          -7.489
REMARK INTER:                  -7.728
REMARK INTRA:                   0.239
REMARK UNBOUND:                 0.151
REMARK  Name = 
REMARK  5 active torsions:
REMARK  status: ('A' for Active; 'I' for Inactive)
REMARK    1  A    between atoms: C_1  and  C_2
REMARK    2  A    between atoms: C_4  and  N_5
REMARK    3  A    between atoms: C_4  and  C_15
REMARK    4  A    between atoms: C_9  and  C_10
REMARK    5  A    between atoms: C_18  and  O_19
REMARK                            x       y       z     vdW  Elec       q    Type
REMARK                         _______ _______ _______ _____ _____    ______ ____
ROOT
ATOM      1  N   UNL     1      44.284   6.098  10.760  0.00  0.00    +0.000 N 
ATOM      2  C   UNL     1      45.154   7.050  11.280  0.00  0.00    +0.000 A 
ATOM      3  C   UNL     1      46.456   6.785  11.676  0.00  0.00    +0.000 A 
ATOM      4  C   UNL     1      47.255   7.828  12.154  0.00  0.00    +0.000 A 
ATOM      5  C   UNL     1      46.736   9.120  12.234  0.00  0.00    +0.000 A 
ATOM      6  C   UNL     1      45.429   9.295  11.816  0.00  0.00    +0.000 A 
ATOM      7  N   UNL     1      44.639   8.296  11.346  0.00  0.00    +0.000 NA
ATOM      8  H   UNL     1      43.382   6.535  10.609  0.00  0.00    +0.000 HD
ENDROOT
BRANCH   5   9
ATOM      9  C   UNL     1      47.586  10.219  12.752  0.00  0.00    +0.000 C 
ATOM     10  N   UNL     1      47.218  11.513  12.520  0.00  0.00    +0.000 N 
ATOM     11  O   UNL     1      48.606   9.977  13.388  0.00  0.00    +0.000 OA
ATOM     12  H   UNL     1      46.405  11.825  12.014  0.00  0.00    +0.000 HD
ATOM     13  H   UNL     1      47.830  12.230  12.898  0.00  0.00    +0.000 HD
ENDBRANCH   5   9
BRANCH   1  17
ATOM     14  C   UNL     1      45.022   2.629  12.510  0.00  0.00    +0.000 C 
ATOM     15  C   UNL     1      44.387   3.956  12.252  0.00  0.00    +0.000 C 
ATOM     16  C   UNL     1      43.119   3.986  11.460  0.00  0.00    +0.000 C 
ATOM     17  C   UNL     1      44.377   4.641  10.886  0.00  0.00    +0.000 C 
BRANCH  17  18
ATOM     18  C   UNL     1      45.040   3.965   9.689  0.00  0.00    +0.000 A 
ATOM     19  C   UNL     1      45.688   4.682   8.672  0.00  0.00    +0.000 A 
ATOM     20  C   UNL     1      46.302   4.027   7.604  0.00  0.00    +0.000 A 
ATOM     21  C   UNL     1      46.236   2.648   7.570  0.00  0.00    +0.000 A 
ATOM     22  N   UNL     1      45.615   1.907   8.498  0.00  0.00    +0.000 NA
ATOM     23  C   UNL     1      45.031   2.580   9.520  0.00  0.00    +0.000 A 
BRANCH  21  24
ATOM     24  O   UNL     1      46.822   1.941   6.563  0.00  0.00    +0.000 OA
ATOM     25  H   UNL     1      46.120   1.535   6.035  0.00  0.00    +0.000 HD
ENDBRANCH  21  24
ENDBRANCH  17  18
ENDBRANCH   1  17
TORSDOF 4
ENDMDL
MODEL 5
REMARK VINA RESULT:    -6.202      4.003      6.624
REMARK INTER + INTRA:          -7.320
REMARK INTER:                  -7.756
REMARK INTRA:                   0.436
REMARK UNBOUND:                 0.151
REMARK  Name = 
REMARK  5 active torsions:
REMARK  status: ('A' for Active; 'I' for Inactive)
REMARK    1  A    between atoms: C_1  and  C_2
REMARK    2  A    between atoms: C_4  and  N_5
REMARK    3  A    between atoms: C_4  and  C_15
REMARK    4  A    between atoms: C_9  and  C_10
REMARK    5  A    between atoms: C_18  and  O_19
REMARK                            x       y       z     vdW  Elec       q    Type
REMARK                         _______ _______ _______ _____ _____    ______ ____
ROOT
ATOM      1  N   UNL     1      47.162   3.936  15.803  0.00  0.00    +0.000 N 
ATOM      2  C   UNL     1      46.827   4.557  14.606  0.00  0.00    +0.000 A 
ATOM      3  C   UNL     1      47.577   5.560  14.009  0.00  0.00    +0.000 A 
ATOM      4  C   UNL     1      47.163   6.091  12.784  0.00  0.00    +0.000 A 
ATOM      5  C   UNL     1      46.002   5.614  12.177  0.00  0.00    +0.000 A 
ATOM      6  C   UNL     1      45.316   4.612  12.840  0.00  0.00    +0.000 A 
ATOM      7  N   UNL     1      45.704   4.082  14.028  0.00  0.00    +0.000 NA
ATOM      8  H   UNL     1      46.422   3.287  16.047  0.00  0.00    +0.000 HD
ENDROOT
BRANCH   5   9
ATOM      9  C   UNL     1      45.564   6.190  10.882  0.00  0.00    +0.000 C 
ATOM     10  N   UNL     1      44.712   7.257  10.880  0.00  0.00    +0.000 N 
ATOM     11  O   UNL     1      45.964   5.725   9.821  0.00  0.00    +0.000 OA
ATOM     12  H   UNL     1      44.324   7.718  11.689  0.00  0.00    +0.000 HD
ATOM     13  H   UNL     1      44.445   7.618   9.971  0.00  0.00    +0.000 HD
ENDBRANCH   5   9
BRANCH   1  17
ATOM     14  C   UNL     1      49.315   6.581  17.807  0.00  0.00    +0.000 C 
ATOM     15  C   UNL     1      48.113   5.909  17.227  0.00  0.00    +0.000 C 
ATOM     16  C   UNL     1      47.357   4.952  18.092  0.00  0.00    +0.000 C 
ATOM     17  C   UNL     1      48.070   4.431  16.842  0.00  0.00    +0.000 C 
BRANCH  17  18
ATOM     18  C   UNL     1      49.300   3.552  17.047  0.00  0.00    +0.000 A 
ATOM     19  C   UNL     1      50.504   4.038  17.579  0.00  0.00    +0.000 A 
ATOM     20  C   UNL     1      51.601   3.199  17.772  0.00  0.00    +0.000 A 
ATOM     21  C   UNL     1      51.471   1.874  17.406  0.00  0.00    +0.000 A 
ATOM     22  N   UNL     1      50.357   1.351  16.875  0.00  0.00    +0.000 NA
ATOM     23  C   UNL     1      49.311   2.199  16.703  0.00  0.00    +0.000 A 
BRANCH  21  24
ATOM     24  O   UNL     1      52.497   0.993  17.576  0.00  0.00    +0.000 OA
ATOM     25  H   UNL     1      52.132   0.176  17.943  0.00  0.00    +0.000 HD
ENDBRANCH  21  24
ENDBRANCH  17  18
ENDBRANCH   1  17
TORSDOF 4
ENDMDL
MODEL 6
REMARK VINA RESULT:    -6.063      4.142      5.991
REMARK INTER + INTRA:          -7.153
REMARK INTER:                  -6.802
REMARK INTRA:                  -0.351
REMARK UNBOUND:                 0.151
REMARK  Name = 
REMARK  5 active torsions:
REMARK  status: ('A' for Active; 'I' for Inactive)
REMARK    1  A    between atoms: C_1  and  C_2
REMARK    2  A    between atoms: C_4  and  N_5
REMARK    3  A    between atoms: C_4  and  C_15
REMARK    4  A    between atoms: C_9  and  C_10
REMARK    5  A    between atoms: C_18  and  O_19
REMARK                            x       y       z     vdW  Elec       q    Type
REMARK                         _______ _______ _______ _____ _____    ______ ____
ROOT
ATOM      1  N   UNL     1      47.846   6.719  13.485  0.00  0.00    +0.000 N 
ATOM      2  C   UNL     1      46.923   6.124  12.633  0.00  0.00    +0.000 A 
ATOM      3  C   UNL     1      46.664   6.551  11.339  0.00  0.00    +0.000 A 
ATOM      4  C   UNL     1      45.738   5.855  10.557  0.00  0.00    +0.000 A 
ATOM      5  C   UNL     1      45.081   4.744  11.084  0.00  0.00    +0.000 A 
ATOM      6  C   UNL     1      45.400   4.386  12.382  0.00  0.00    +0.000 A 
ATOM      7  N   UNL     1      46.299   5.047  13.155  0.00  0.00    +0.000 NA
ATOM      8  H   UNL     1      47.798   6.256  14.385  0.00  0.00    +0.000 HD
ENDROOT
BRANCH   5   9
ATOM      9  C   UNL     1      44.091   4.016  10.252  0.00  0.00    +0.000 C 
ATOM     10  N   UNL     1      43.954   4.349   8.936  0.00  0.00    +0.000 N 
ATOM     11  O   UNL     1      43.407   3.119  10.731  0.00  0.00    +0.000 OA
ATOM     12  H   UNL     1      44.462   5.065   8.440  0.00  0.00    +0.000 HD
ATOM     13  H   UNL     1      43.268   3.821   8.406  0.00  0.00    +0.000 HD
ENDBRANCH   5   9
BRANCH   1  17
ATOM     14  C   UNL     1      47.923  10.587  12.661  0.00  0.00    +0.000 C 
ATOM     15  C   UNL     1      47.512   9.304  13.307  0.00  0.00    +0.000 C 
ATOM     16  C   UNL     1      48.139   8.943  14.615  0.00  0.00    +0.000 C 
ATOM     17  C   UNL     1      48.409   8.069  13.388  0.00  0.00    +0.000 C 
BRANCH  17  18
ATOM     18  C   UNL     1      49.812   8.105  12.792  0.00  0.00    +0.000 A 
ATOM     19  C   UNL     1      50.075   7.824  11.443  0.00  0.00    +0.000 A 
ATOM     20  C   UNL     1      51.370   7.889  10.929  0.00  0.00    +0.000 A 
ATOM     21  C   UNL     1      52.392   8.221  11.796  0.00  0.00    +0.000 A 
ATOM     22  N   UNL     1      52.211   8.481  13.099  0.00  0.00    +0.000 NA
ATOM     23  C   UNL     1      50.937   8.408  13.561  0.00  0.00    +0.000 A 
BRANCH  21  24
ATOM     24  O   UNL     1      53.680   8.314  11.363  0.00  0.00    +0.000 OA
ATOM     25  H   UNL     1      54.259   8.024  12.082  0.00  0.00    +0.000 HD
ENDBRANCH  21  24
ENDBRANCH  17  18
ENDBRANCH   1  17
TORSDOF 4
ENDMDL
MODEL 7
REMARK VINA RESULT:    -5.955      3.582      5.347
REMARK INTER + INTRA:          -7.023
REMARK INTER:                  -6.720
REMARK INTRA:                  -0.303
REMARK UNBOUND:                 0.151
REMARK  Name = 
REMARK  5 active torsions:
REMARK  status: ('A' for Active; 'I' for Inactive)
REMARK    1  A    between atoms: C_1  and  C_2
REMARK    2  A    between atoms: C_4  and  N_5
REMARK    3  A    between atoms: C_4  and  C_15
REMARK    4  A    between atoms: C_9  and  C_10
REMARK    5  A    between atoms: C_18  and  O_19
REMARK                            x       y       z     vdW  Elec       q    Type
REMARK                         _______ _______ _______ _____ _____    ______ ____
ROOT
ATOM      1  N   UNL     1      46.025   7.675  13.217  0.00  0.00    +0.000 N 
ATOM      2  C   UNL     1      45.572   6.472  12.690  0.00  0.00    +0.000 A 
ATOM      3  C   UNL     1      46.379   5.367  12.457  0.00  0.00    +0.000 A 
ATOM      4  C   UNL     1      45.809   4.194  11.954  0.00  0.00    +0.000 A 
ATOM      5  C   UNL     1      44.441   4.145  11.686  0.00  0.00    +0.000 A 
ATOM      6  C   UNL     1      43.712   5.291  11.949  0.00  0.00    +0.000 A 
ATOM      7  N   UNL     1      44.247   6.438  12.440  0.00  0.00    +0.000 NA
ATOM      8  H   UNL     1      45.253   8.332  13.229  0.00  0.00    +0.000 HD
ENDROOT
BRANCH   5   9
ATOM      9  C   UNL     1      43.846   2.900  11.143  0.00  0.00    +0.000 C 
ATOM     10  N   UNL     1      44.376   2.345  10.014  0.00  0.00    +0.000 N 
ATOM     11  O   UNL     1      42.895   2.364  11.700  0.00  0.00    +0.000 OA
ATOM     12  H   UNL     1      45.154   2.697   9.479  0.00  0.00    +0.000 HD
ATOM     13  H   UNL     1      43.938   1.491   9.683  0.00  0.00    +0.000 HD
ENDBRANCH   5   9
BRANCH   1  17
ATOM     14  C   UNL     1      49.694   8.358  11.904  0.00  0.00    +0.000 C 
ATOM     15  C   UNL     1      48.202   8.414  11.976  0.00  0.00    +0.000 C 
ATOM     16  C   UNL     1      47.576   9.576  12.678  0.00  0.00    +0.000 C 
ATOM     17  C   UNL     1      47.405   8.170  13.257  0.00  0.00    +0.000 C 
BRANCH  17  18
ATOM     18  C   UNL     1      48.131   7.850  14.559  0.00  0.00    +0.000 A 
ATOM     19  C   UNL     1      48.289   8.784  15.594  0.00  0.00    +0.000 A 
ATOM     20  C   UNL     1      48.941   8.447  16.780  0.00  0.00    +0.000 A 
ATOM     21  C   UNL     1      49.443   7.166  16.898  0.00  0.00    +0.000 A 
ATOM     22  N   UNL     1      49.344   6.234  15.941  0.00  0.00    +0.000 NA
ATOM     23  C   UNL     1      48.703   6.599  14.802  0.00  0.00    +0.000 A 
BRANCH  21  24
ATOM     24  O   UNL     1      50.082   6.763  18.032  0.00  0.00    +0.000 OA
ATOM     25  H   UNL     1      49.966   5.807  18.116  0.00  0.00    +0.000 HD
ENDBRANCH  21  24
ENDBRANCH  17  18
ENDBRANCH   1  17
TORSDOF 4
ENDMDL
MODEL 8
REMARK VINA RESULT:    -5.204      4.468      6.770
REMARK INTER + INTRA:          -6.118
REMARK INTER:                  -6.044
REMARK INTRA:                  -0.074
REMARK UNBOUND:                 0.151
REMARK  Name = 
REMARK  5 active torsions:
REMARK  status: ('A' for Active; 'I' for Inactive)
REMARK    1  A    between atoms: C_1  and  C_2
REMARK    2  A    between atoms: C_4  and  N_5
REMARK    3  A    between atoms: C_4  and  C_15
REMARK    4  A    between atoms: C_9  and  C_10
REMARK    5  A    between atoms: C_18  and  O_19
REMARK                            x       y       z     vdW  Elec       q    Type
REMARK                         _______ _______ _______ _____ _____    ______ ____
ROOT
ATOM      1  N   UNL     1      48.642   6.518  12.956  0.00  0.00    +0.000 N 
ATOM      2  C   UNL     1      47.264   6.355  12.878  0.00  0.00    +0.000 A 
ATOM      3  C   UNL     1      46.356   7.401  12.807  0.00  0.00    +0.000 A 
ATOM      4  C   UNL     1      44.990   7.120  12.697  0.00  0.00    +0.000 A 
ATOM      5  C   UNL     1      44.555   5.796  12.665  0.00  0.00    +0.000 A 
ATOM      6  C   UNL     1      45.528   4.815  12.738  0.00  0.00    +0.000 A 
ATOM      7  N   UNL     1      46.857   5.069  12.843  0.00  0.00    +0.000 NA
ATOM      8  H   UNL     1      49.068   5.604  13.058  0.00  0.00    +0.000 HD
ENDROOT
BRANCH   5   9
ATOM      9  C   UNL     1      43.104   5.506  12.558  0.00  0.00    +0.000 C 
ATOM     10  N   UNL     1      42.343   6.221  11.679  0.00  0.00    +0.000 N 
ATOM     11  O   UNL     1      42.587   4.629  13.241  0.00  0.00    +0.000 OA
ATOM     12  H   UNL     1      42.662   6.959  11.070  0.00  0.00    +0.000 HD
ATOM     13  H   UNL     1      41.357   5.984  11.639  0.00  0.00    +0.000 HD
ENDBRANCH   5   9
BRANCH   1  17
ATOM     14  C   UNL     1      51.735   8.958  13.313  0.00  0.00    +0.000 C 
ATOM     15  C   UNL     1      50.658   8.153  12.661  0.00  0.00    +0.000 C 
ATOM     16  C   UNL     1      49.371   8.839  12.330  0.00  0.00    +0.000 C 
ATOM     17  C   UNL     1      49.377   7.717  13.371  0.00  0.00    +0.000 C 
BRANCH  17  18
ATOM     18  C   UNL     1      49.141   8.106  14.827  0.00  0.00    +0.000 A 
ATOM     19  C   UNL     1      48.481   9.285  15.204  0.00  0.00    +0.000 A 
ATOM     20  C   UNL     1      48.264   9.595  16.546  0.00  0.00    +0.000 A 
ATOM     21  C   UNL     1      48.736   8.711  17.496  0.00  0.00    +0.000 A 
ATOM     22  N   UNL     1      49.391   7.579  17.204  0.00  0.00    +0.000 NA
ATOM     23  C   UNL     1      49.581   7.312  15.887  0.00  0.00    +0.000 A 
BRANCH  21  24
ATOM     24  O   UNL     1      48.551   8.944  18.826  0.00  0.00    +0.000 OA
ATOM     25  H   UNL     1      47.873   8.332  19.145  0.00  0.00    +0.000 HD
ENDBRANCH  21  24
ENDBRANCH  17  18
ENDBRANCH   1  17
TORSDOF 4
ENDMDL
MODEL 9
REMARK VINA RESULT:    -5.008      3.779      5.953
REMARK INTER + INTRA:          -5.882
REMARK INTER:                  -6.763
REMARK INTRA:                   0.881
REMARK UNBOUND:                 0.151
REMARK  Name = 
REMARK  5 active torsions:
REMARK  status: ('A' for Active; 'I' for Inactive)
REMARK    1  A    between atoms: C_1  and  C_2
REMARK    2  A    between atoms: C_4  and  N_5
REMARK    3  A    between atoms: C_4  and  C_15
REMARK    4  A    between atoms: C_9  and  C_10
REMARK    5  A    between atoms: C_18  and  O_19
REMARK                            x       y       z     vdW  Elec       q    Type
REMARK                         _______ _______ _______ _____ _____    ______ ____
ROOT
ATOM      1  N   UNL     1      47.518   6.417  14.156  0.00  0.00    +0.000 N 
ATOM      2  C   UNL     1      46.655   5.912  13.191  0.00  0.00    +0.000 A 
ATOM      3  C   UNL     1      46.699   6.253  11.848  0.00  0.00    +0.000 A 
ATOM      4  C   UNL     1      45.801   5.656  10.957  0.00  0.00    +0.000 A 
ATOM      5  C   UNL     1      44.869   4.732  11.427  0.00  0.00    +0.000 A 
ATOM      6  C   UNL     1      44.896   4.449  12.781  0.00  0.00    +0.000 A 
ATOM      7  N   UNL     1      45.762   5.015  13.659  0.00  0.00    +0.000 NA
ATOM      8  H   UNL     1      47.236   6.057  15.061  0.00  0.00    +0.000 HD
ENDROOT
BRANCH   5   9
ATOM      9  C   UNL     1      43.913   4.110  10.478  0.00  0.00    +0.000 C 
ATOM     10  N   UNL     1      43.926   4.497   9.169  0.00  0.00    +0.000 N 
ATOM     11  O   UNL     1      43.121   3.253  10.855  0.00  0.00    +0.000 OA
ATOM     12  H   UNL     1      44.531   5.187   8.752  0.00  0.00    +0.000 HD
ATOM     13  H   UNL     1      43.257   4.040   8.557  0.00  0.00    +0.000 HD
ENDBRANCH   5   9
BRANCH   1  17
ATOM     14  C   UNL     1      49.151   9.610  12.486  0.00  0.00    +0.000 C 
ATOM     15  C   UNL     1      48.093   8.686  12.994  0.00  0.00    +0.000 C 
ATOM     16  C   UNL     1      47.557   8.920  14.370  0.00  0.00    +0.000 C 
ATOM     17  C   UNL     1      48.332   7.634  14.077  0.00  0.00    +0.000 C 
BRANCH  17  18
ATOM     18  C   UNL     1      49.715   7.486  14.704  0.00  0.00    +0.000 A 
ATOM     19  C   UNL     1      49.951   6.726  15.860  0.00  0.00    +0.000 A 
ATOM     20  C   UNL     1      51.233   6.597  16.391  0.00  0.00    +0.000 A 
ATOM     21  C   UNL     1      52.265   7.256  15.753  0.00  0.00    +0.000 A 
ATOM     22  N   UNL     1      52.104   8.013  14.659  0.00  0.00    +0.000 NA
ATOM     23  C   UNL     1      50.842   8.114  14.172  0.00  0.00    +0.000 A 
BRANCH  21  24
ATOM     24  O   UNL     1      53.546   7.166  16.210  0.00  0.00    +0.000 OA
ATOM     25  H   UNL     1      54.135   7.480  15.510  0.00  0.00    +0.000 HD
ENDBRANCH  21  24
ENDBRANCH  17  18
ENDBRANCH   1  17
TORSDOF 4
ENDMDL
