MODEL 1
REMARK VINA RESULT:    -8.967      0.000      0.000
REMARK INTER + INTRA:         -12.060
REMARK INTER:                 -11.588
REMARK INTRA:                  -0.472
REMARK UNBOUND:                -0.472
REMARK  Name = 
REMARK  6 active torsions:
REMARK  status: ('A' for Active; 'I' for Inactive)
REMARK    1  A    between atoms: C_1  and  C_2
REMARK    2  A    between atoms: C_2  and  N_3
REMARK    3  A    between atoms: C_2  and  C_16
REMARK    4  A    between atoms: C_4  and  C_6
REMARK    5  A    between atoms: C_19  and  O_20
REMARK    6  A    between atoms: O_20  and  C_21
REMARK                            x       y       z     vdW  Elec       q    Type
REMARK                         _______ _______ _______ _____ _____    ______ ____
ROOT
ATOM      1  C   UNL     1      43.010   4.691  13.623  0.00  0.00    +0.000 C 
ATOM      2  C   UNL     1      44.386   4.160  13.202  0.00  0.00    +0.000 C 
ENDROOT
BRANCH   2   3
ATOM      3  C   UNL     1      44.651   4.284  11.708  0.00  0.00    +0.000 A 
ATOM      4  C   UNL     1      45.430   5.352  11.238  0.00  0.00    +0.000 A 
ATOM      5  C   UNL     1      45.734   5.469   9.880  0.00  0.00    +0.000 A 
ATOM      6  C   UNL     1      45.312   4.487   8.983  0.00  0.00    +0.000 A 
ATOM      7  C   UNL     1      44.459   3.477   9.422  0.00  0.00    +0.000 A 
ATOM      8  C   UNL     1      44.115   3.388  10.770  0.00  0.00    +0.000 A 
BRANCH   6   9
ATOM      9  O   UNL     1      45.635   4.460   7.647  0.00  0.00    +0.000 OA
BRANCH   9  10
ATOM     10  C   UNL     1      46.342   3.397   7.130  0.00  0.00    +0.000 A 
ATOM     11  C   UNL     1      46.567   2.185   7.789  0.00  0.00    +0.000 A 
ATOM     12  C   UNL     1      47.363   1.204   7.199  0.00  0.00    +0.000 A 
ATOM     13  C   UNL     1      47.878   1.401   5.919  0.00  0.00    +0.000 A 
ATOM     14  C   UNL     1      47.587   2.575   5.224  0.00  0.00    +0.000 A 
ATOM     15  C   UNL     1      46.820   3.571   5.829  0.00  0.00    +0.000 A 
ENDBRANCH   9  10
ENDBRANCH   6   9
ENDBRANCH   2   3
BRANCH   2  16
ATOM     16  N   UNL     1      45.436   4.853  13.922  0.00  0.00    +0.000 N 
ATOM     17  C   UNL     1      46.604   4.239  14.287  0.00  0.00    +0.000 C 
ATOM     18  O   UNL     1      46.915   3.116  13.897  0.00  0.00    +0.000 OA
ATOM     19  H   UNL     1      45.161   5.712  14.385  0.00  0.00    +0.000 HD
BRANCH  17  20
ATOM     20  C   UNL     1      47.486   5.016  15.160  0.00  0.00    +0.000 A 
ATOM     21  C   UNL     1      48.198   6.093  14.658  0.00  0.00    +0.000 A 
ATOM     22  S   UNL     1      49.218   6.829  15.813  0.00  0.00    +0.000 S 
ATOM     23  C   UNL     1      48.778   5.696  17.005  0.00  0.00    +0.000 A 
ATOM     24  N   UNL     1      49.362   5.704  18.233  0.00  0.00    +0.000 NA
ATOM     25  C   UNL     1      48.960   4.762  19.020  0.00  0.00    +0.000 A 
ATOM     26  N   UNL     1      48.012   3.825  18.701  0.00  0.00    +0.000 N 
ATOM     27  C   UNL     1      47.341   3.822  17.501  0.00  0.00    +0.000 A 
ATOM     28  O   UNL     1      46.404   3.058  17.297  0.00  0.00    +0.000 OA
ATOM     29  C   UNL     1      47.818   4.814  16.551  0.00  0.00    +0.000 A 
ATOM     30  H   UNL     1      47.710   3.145  19.380  0.00  0.00    +0.000 HD
ENDBRANCH  17  20
ENDBRANCH   2  16
TORSDOF 5
ENDMDL
MODEL 2
REMARK VINA RESULT:    -8.205      2.253      3.214
REMARK INTER + INTRA:         -11.075
REMARK INTER:                  -9.790
REMARK INTRA:                  -1.285
REMARK UNBOUND:                -0.472
REMARK  Name = 
REMARK  6 active torsions:
REMARK  status: ('A' for Active; 'I' for Inactive)
REMARK    1  A    between atoms: C_1  and  C_2
REMARK    2  A    between atoms: C_2  and  N_3
REMARK    3  A    between atoms: C_2  and  C_16
REMARK    4  A    between atoms: C_4  and  C_6
REMARK    5  A    between atoms: C_19  and  O_20
REMARK    6  A    between atoms: O_20  and  C_21
REMARK                            x       y       z     vdW  Elec       q    Type
REMARK                         _______ _______ _______ _____ _____    ______ ____
ROOT
ATOM      1  C   UNL     1      48.254   8.681  12.838  0.00  0.00    +0.000 C 
ATOM      2  C   UNL     1      47.347   7.760  13.663  0.00  0.00    +0.000 C 
ENDROOT
BRANCH   2   3
ATOM      3  C   UNL     1      46.460   6.863  12.812  0.00  0.00    +0.000 A 
ATOM      4  C   UNL     1      45.650   7.443  11.824  0.00  0.00    +0.000 A 
ATOM      5  C   UNL     1      44.860   6.647  10.992  0.00  0.00    +0.000 A 
ATOM      6  C   UNL     1      44.915   5.256  11.098  0.00  0.00    +0.000 A 
ATOM      7  C   UNL     1      45.640   4.676  12.136  0.00  0.00    +0.000 A 
ATOM      8  C   UNL     1      46.390   5.474  12.998  0.00  0.00    +0.000 A 
BRANCH   6   9
ATOM      9  O   UNL     1      44.251   4.383  10.269  0.00  0.00    +0.000 OA
BRANCH   9  10
ATOM     10  C   UNL     1      44.955   3.622   9.364  0.00  0.00    +0.000 A 
ATOM     11  C   UNL     1      45.009   2.225   9.357  0.00  0.00    +0.000 A 
ATOM     12  C   UNL     1      45.816   1.559   8.436  0.00  0.00    +0.000 A 
ATOM     13  C   UNL     1      46.518   2.282   7.472  0.00  0.00    +0.000 A 
ATOM     14  C   UNL     1      46.401   3.671   7.423  0.00  0.00    +0.000 A 
ATOM     15  C   UNL     1      45.621   4.339   8.367  0.00  0.00    +0.000 A 
ENDBRANCH   9  10
ENDBRANCH   6   9
ENDBRANCH   2   3
BRANCH   2  16
ATOM     16  N   UNL     1      48.141   6.929  14.547  0.00  0.00    +0.000 N 
ATOM     17  C   UNL     1      48.653   7.394  15.728  0.00  0.00    +0.000 C 
ATOM     18  O   UNL     1      48.350   8.487  16.200  0.00  0.00    +0.000 OA
ATOM     19  H   UNL     1      48.533   6.092  14.131  0.00  0.00    +0.000 HD
BRANCH  17  20
ATOM     20  C   UNL     1      49.578   6.494  16.420  0.00  0.00    +0.000 A 
ATOM     21  C   UNL     1      50.853   6.920  16.754  0.00  0.00    +0.000 A 
ATOM     22  S   UNL     1      51.800   5.710  17.496  0.00  0.00    +0.000 S 
ATOM     23  C   UNL     1      50.551   4.562  17.345  0.00  0.00    +0.000 A 
ATOM     24  N   UNL     1      50.736   3.268  17.716  0.00  0.00    +0.000 NA
ATOM     25  C   UNL     1      49.717   2.502  17.506  0.00  0.00    +0.000 A 
ATOM     26  N   UNL     1      48.522   2.916  16.980  0.00  0.00    +0.000 N 
ATOM     27  C   UNL     1      48.262   4.227  16.659  0.00  0.00    +0.000 A 
ATOM     28  O   UNL     1      47.141   4.590  16.320  0.00  0.00    +0.000 OA
ATOM     29  C   UNL     1      49.407   5.111  16.802  0.00  0.00    +0.000 A 
ATOM     30  H   UNL     1      47.749   2.275  16.887  0.00  0.00    +0.000 HD
ENDBRANCH  17  20
ENDBRANCH   2  16
TORSDOF 5
ENDMDL
MODEL 3
REMARK VINA RESULT:    -7.862      1.830      2.483
REMARK INTER + INTRA:         -10.631
REMARK INTER:                 -10.484
REMARK INTRA:                  -0.147
REMARK UNBOUND:                -0.472
REMARK  Name = 
REMARK  6 active torsions:
REMARK  status: ('A' for Active; 'I' for Inactive)
REMARK    1  A    between atoms: C_1  and  C_2
REMARK    2  A    between atoms: C_2  and  N_3
REMARK    3  A    between atoms: C_2  and  C_16
REMARK    4  A    between atoms: C_4  and  C_6
REMARK    5  A    between atoms: C_19  and  O_20
REMARK    6  A    between atoms: O_20  and  C_21
REMARK                            x       y       z     vdW  Elec       q    Type
REMARK                         _______ _______ _______ _____ _____    ______ ____
ROOT
ATOM      1  C   UNL     1      46.319   7.902  12.342  0.00  0.00    +0.000 C 
ATOM      2  C   UNL     1      45.452   6.744  12.853  0.00  0.00    +0.000 C 
ENDROOT
BRANCH   2   3
ATOM      3  C   UNL     1      45.204   5.667  11.807  0.00  0.00    +0.000 A 
ATOM      4  C   UNL     1      45.594   5.901  10.480  0.00  0.00    +0.000 A 
ATOM      5  C   UNL     1      45.425   4.917   9.504  0.00  0.00    +0.000 A 
ATOM      6  C   UNL     1      44.920   3.664   9.855  0.00  0.00    +0.000 A 
ATOM      7  C   UNL     1      44.442   3.455  11.146  0.00  0.00    +0.000 A 
ATOM      8  C   UNL     1      44.564   4.455  12.109  0.00  0.00    +0.000 A 
BRANCH   6   9
ATOM      9  O   UNL     1      44.802   2.600   8.992  0.00  0.00    +0.000 OA
BRANCH   9  10
ATOM     10  C   UNL     1      45.713   2.436   7.973  0.00  0.00    +0.000 A 
ATOM     11  C   UNL     1      45.924   3.342   6.929  0.00  0.00    +0.000 A 
ATOM     12  C   UNL     1      46.822   3.037   5.907  0.00  0.00    +0.000 A 
ATOM     13  C   UNL     1      47.564   1.858   5.959  0.00  0.00    +0.000 A 
ATOM     14  C   UNL     1      47.417   0.991   7.041  0.00  0.00    +0.000 A 
ATOM     15  C   UNL     1      46.493   1.279   8.046  0.00  0.00    +0.000 A 
ENDBRANCH   9  10
ENDBRANCH   6   9
ENDBRANCH   2   3
BRANCH   2  16
ATOM     16  N   UNL     1      46.061   6.134  14.018  0.00  0.00    +0.000 N 
ATOM     17  C   UNL     1      47.353   5.680  14.019  0.00  0.00    +0.000 C 
ATOM     18  O   UNL     1      48.134   5.898  13.096  0.00  0.00    +0.000 OA
ATOM     19  H   UNL     1      45.419   5.804  14.730  0.00  0.00    +0.000 HD
BRANCH  17  20
ATOM     20  C   UNL     1      47.765   4.931  15.208  0.00  0.00    +0.000 A 
ATOM     21  C   UNL     1      47.442   3.590  15.338  0.00  0.00    +0.000 A 
ATOM     22  S   UNL     1      47.952   2.911  16.818  0.00  0.00    +0.000 S 
ATOM     23  C   UNL     1      48.573   4.402  17.353  0.00  0.00    +0.000 A 
ATOM     24  N   UNL     1      49.089   4.542  18.603  0.00  0.00    +0.000 NA
ATOM     25  C   UNL     1      49.484   5.740  18.885  0.00  0.00    +0.000 A 
ATOM     26  N   UNL     1      49.432   6.805  18.025  0.00  0.00    +0.000 N 
ATOM     27  C   UNL     1      48.988   6.697  16.729  0.00  0.00    +0.000 A 
ATOM     28  O   UNL     1      49.081   7.633  15.943  0.00  0.00    +0.000 OA
ATOM     29  C   UNL     1      48.456   5.386  16.391  0.00  0.00    +0.000 A 
ATOM     30  H   UNL     1      49.802   7.703  18.294  0.00  0.00    +0.000 HD
ENDBRANCH  17  20
ENDBRANCH   2  16
TORSDOF 5
ENDMDL
MODEL 4
REMARK VINA RESULT:    -7.728      2.562      3.768
REMARK INTER + INTRA:         -10.459
REMARK INTER:                  -9.318
REMARK INTRA:                  -1.141
REMARK UNBOUND:                -0.472
REMARK  Name = 
REMARK  6 active torsions:
REMARK  status: ('A' for Active; 'I' for Inactive)
REMARK    1  A    between atoms: C_1  and  C_2
REMARK    2  A    between atoms: C_2  and  N_3
REMARK    3  A    between atoms: C_2  and  C_16
REMARK    4  A    between atoms: C_4  and  C_6
REMARK    5  A    between atoms: C_19  and  O_20
REMARK    6  A    between atoms: O_20  and  C_21
REMARK                            x       y       z     vdW  Elec       q    Type
REMARK                         _______ _______ _______ _____ _____    ______ ____
ROOT
ATOM      1  C   UNL     1      49.566   7.414  13.379  0.00  0.00    +0.000 C 
ATOM      2  C   UNL     1      48.138   7.810  13.776  0.00  0.00    +0.000 C 
ENDROOT
BRANCH   2   3
ATOM      3  C   UNL     1      47.065   7.046  13.014  0.00  0.00    +0.000 A 
ATOM      4  C   UNL     1      46.178   7.754  12.188  0.00  0.00    +0.000 A 
ATOM      5  C   UNL     1      45.212   7.080  11.437  0.00  0.00    +0.000 A 
ATOM      6  C   UNL     1      45.160   5.685  11.457  0.00  0.00    +0.000 A 
ATOM      7  C   UNL     1      45.970   4.981  12.344  0.00  0.00    +0.000 A 
ATOM      8  C   UNL     1      46.901   5.657  13.131  0.00  0.00    +0.000 A 
BRANCH   6   9
ATOM      9  O   UNL     1      44.312   4.926  10.686  0.00  0.00    +0.000 OA
BRANCH   9  10
ATOM     10  C   UNL     1      44.825   4.036   9.769  0.00  0.00    +0.000 A 
ATOM     11  C   UNL     1      44.623   2.653   9.791  0.00  0.00    +0.000 A 
ATOM     12  C   UNL     1      45.254   1.838   8.853  0.00  0.00    +0.000 A 
ATOM     13  C   UNL     1      46.032   2.406   7.846  0.00  0.00    +0.000 A 
ATOM     14  C   UNL     1      46.168   3.792   7.770  0.00  0.00    +0.000 A 
ATOM     15  C   UNL     1      45.565   4.605   8.731  0.00  0.00    +0.000 A 
ENDBRANCH   9  10
ENDBRANCH   6   9
ENDBRANCH   2   3
BRANCH   2  16
ATOM     16  N   UNL     1      47.936   7.610  15.197  0.00  0.00    +0.000 N 
ATOM     17  C   UNL     1      48.549   8.387  16.142  0.00  0.00    +0.000 C 
ATOM     18  O   UNL     1      49.184   9.401  15.861  0.00  0.00    +0.000 OA
ATOM     19  H   UNL     1      47.552   6.711  15.466  0.00  0.00    +0.000 HD
BRANCH  17  20
ATOM     20  C   UNL     1      48.384   7.951  17.530  0.00  0.00    +0.000 A 
ATOM     21  C   UNL     1      48.011   8.857  18.511  0.00  0.00    +0.000 A 
ATOM     22  S   UNL     1      47.935   8.172  20.072  0.00  0.00    +0.000 S 
ATOM     23  C   UNL     1      48.450   6.657  19.494  0.00  0.00    +0.000 A 
ATOM     24  N   UNL     1      48.679   5.620  20.343  0.00  0.00    +0.000 NA
ATOM     25  C   UNL     1      49.105   4.545  19.768  0.00  0.00    +0.000 A 
ATOM     26  N   UNL     1      49.303   4.402  18.420  0.00  0.00    +0.000 N 
ATOM     27  C   UNL     1      49.016   5.396  17.516  0.00  0.00    +0.000 A 
ATOM     28  O   UNL     1      49.072   5.194  16.307  0.00  0.00    +0.000 OA
ATOM     29  C   UNL     1      48.610   6.653  18.123  0.00  0.00    +0.000 A 
ATOM     30  H   UNL     1      49.593   3.519  18.032  0.00  0.00    +0.000 HD
ENDBRANCH  17  20
ENDBRANCH   2  16
TORSDOF 5
ENDMDL
MODEL 5
REMARK VINA RESULT:    -7.622      2.910      3.765
REMARK INTER + INTRA:         -10.322
REMARK INTER:                  -9.063
REMARK INTRA:                  -1.259
REMARK UNBOUND:                -0.472
REMARK  Name = 
REMARK  6 active torsions:
REMARK  status: ('A' for Active; 'I' for Inactive)
REMARK    1  A    between atoms: C_1  and  C_2
REMARK    2  A    between atoms: C_2  and  N_3
REMARK    3  A    between atoms: C_2  and  C_16
REMARK    4  A    between atoms: C_4  and  C_6
REMARK    5  A    between atoms: C_19  and  O_20
REMARK    6  A    between atoms: O_20  and  C_21
REMARK                            x       y       z     vdW  Elec       q    Type
REMARK                         _______ _______ _______ _____ _____    ______ ____
ROOT
ATOM      1  C   UNL     1      47.376   4.208  16.267  0.00  0.00    +0.000 C 
ATOM      2  C   UNL     1      47.796   5.014  15.031  0.00  0.00    +0.000 C 
ENDROOT
BRANCH   2   3
ATOM      3  C   UNL     1      46.886   4.799  13.831  0.00  0.00    +0.000 A 
ATOM      4  C   UNL     1      46.598   5.883  12.988  0.00  0.00    +0.000 A 
ATOM      5  C   UNL     1      45.806   5.712  11.851  0.00  0.00    +0.000 A 
ATOM      6  C   UNL     1      45.340   4.441  11.509  0.00  0.00    +0.000 A 
ATOM      7  C   UNL     1      45.539   3.379  12.388  0.00  0.00    +0.000 A 
ATOM      8  C   UNL     1      46.288   3.561  13.549  0.00  0.00    +0.000 A 
BRANCH   6   9
ATOM      9  O   UNL     1      44.634   4.150  10.366  0.00  0.00    +0.000 OA
BRANCH   9  10
ATOM     10  C   UNL     1      45.262   3.537   9.305  0.00  0.00    +0.000 A 
ATOM     11  C   UNL     1      45.338   2.156   9.105  0.00  0.00    +0.000 A 
ATOM     12  C   UNL     1      46.066   1.643   8.032  0.00  0.00    +0.000 A 
ATOM     13  C   UNL     1      46.661   2.507   7.116  0.00  0.00    +0.000 A 
ATOM     14  C   UNL     1      46.518   3.886   7.265  0.00  0.00    +0.000 A 
ATOM     15  C   UNL     1      45.819   4.400   8.359  0.00  0.00    +0.000 A 
ENDBRANCH   9  10
ENDBRANCH   6   9
ENDBRANCH   2   3
BRANCH   2  16
ATOM     16  N   UNL     1      47.837   6.429  15.341  0.00  0.00    +0.000 N 
ATOM     17  C   UNL     1      49.011   7.104  15.539  0.00  0.00    +0.000 C 
ATOM     18  O   UNL     1      50.111   6.604  15.316  0.00  0.00    +0.000 OA
ATOM     19  H   UNL     1      46.969   6.833  15.677  0.00  0.00    +0.000 HD
BRANCH  17  20
ATOM     20  C   UNL     1      48.881   8.482  16.017  0.00  0.00    +0.000 A 
ATOM     21  C   UNL     1      49.267   9.542  15.212  0.00  0.00    +0.000 A 
ATOM     22  S   UNL     1      49.100  11.063  15.968  0.00  0.00    +0.000 S 
ATOM     23  C   UNL     1      48.556  10.347  17.414  0.00  0.00    +0.000 A 
ATOM     24  N   UNL     1      48.308  11.097  18.520  0.00  0.00    +0.000 NA
ATOM     25  C   UNL     1      47.942  10.414  19.555  0.00  0.00    +0.000 A 
ATOM     26  N   UNL     1      47.780   9.054  19.579  0.00  0.00    +0.000 N 
ATOM     27  C   UNL     1      47.946   8.264  18.467  0.00  0.00    +0.000 A 
ATOM     28  O   UNL     1      47.661   7.071  18.485  0.00  0.00    +0.000 OA
ATOM     29  C   UNL     1      48.437   8.977  17.299  0.00  0.00    +0.000 A 
ATOM     30  H   UNL     1      47.445   8.589  20.408  0.00  0.00    +0.000 HD
ENDBRANCH  17  20
ENDBRANCH   2  16
TORSDOF 5
ENDMDL
MODEL 6
REMARK VINA RESULT:    -7.489      3.515      4.322
REMARK INTER + INTRA:         -10.150
REMARK INTER:                  -9.637
REMARK INTRA:                  -0.513
REMARK UNBOUND:                -0.472
REMARK  Name = 
REMARK  6 active torsions:
REMARK  status: ('A' for Active; 'I' for Inactive)
REMARK    1  A    between atoms: C_1  and  C_2
REMARK    2  A    between atoms: C_2  and  N_3
REMARK    3  A    between atoms: C_2  and  C_16
REMARK    4  A    between atoms: C_4  and  C_6
REMARK    5  A    between atoms: C_19  and  O_20
REMARK    6  A    between atoms: O_20  and  C_21
REMARK                            x       y       z     vdW  Elec       q    Type
REMARK                         _______ _______ _______ _____ _____    ______ ____
ROOT
ATOM      1  C   UNL     1      45.271   8.469  12.856  0.00  0.00    +0.000 C 
ATOM      2  C   UNL     1      46.218   7.263  12.832  0.00  0.00    +0.000 C 
ENDROOT
BRANCH   2   3
ATOM      3  C   UNL     1      45.740   6.136  11.927  0.00  0.00    +0.000 A 
ATOM      4  C   UNL     1      45.845   6.285  10.536  0.00  0.00    +0.000 A 
ATOM      5  C   UNL     1      45.460   5.252   9.678  0.00  0.00    +0.000 A 
ATOM      6  C   UNL     1      45.022   4.035  10.202  0.00  0.00    +0.000 A 
ATOM      7  C   UNL     1      44.824   3.911  11.575  0.00  0.00    +0.000 A 
ATOM      8  C   UNL     1      45.161   4.960  12.429  0.00  0.00    +0.000 A 
BRANCH   6   9
ATOM      9  O   UNL     1      44.710   2.928   9.449  0.00  0.00    +0.000 OA
BRANCH   9  10
ATOM     10  C   UNL     1      45.555   2.521   8.440  0.00  0.00    +0.000 A 
ATOM     11  C   UNL     1      46.181   1.273   8.371  0.00  0.00    +0.000 A 
ATOM     12  C   UNL     1      47.077   0.995   7.340  0.00  0.00    +0.000 A 
ATOM     13  C   UNL     1      47.298   1.935   6.335  0.00  0.00    +0.000 A 
ATOM     14  C   UNL     1      46.612   3.149   6.355  0.00  0.00    +0.000 A 
ATOM     15  C   UNL     1      45.742   3.441   7.406  0.00  0.00    +0.000 A 
ENDBRANCH   9  10
ENDBRANCH   6   9
ENDBRANCH   2   3
BRANCH   2  16
ATOM     16  N   UNL     1      47.544   7.670  12.410  0.00  0.00    +0.000 N 
ATOM     17  C   UNL     1      48.681   7.084  12.897  0.00  0.00    +0.000 C 
ATOM     18  O   UNL     1      48.662   6.075  13.597  0.00  0.00    +0.000 OA
ATOM     19  H   UNL     1      47.605   8.578  11.963  0.00  0.00    +0.000 HD
BRANCH  17  20
ATOM     20  C   UNL     1      49.942   7.722  12.511  0.00  0.00    +0.000 A 
ATOM     21  C   UNL     1      50.398   7.641  11.205  0.00  0.00    +0.000 A 
ATOM     22  S   UNL     1      51.913   8.390  10.968  0.00  0.00    +0.000 S 
ATOM     23  C   UNL     1      52.030   8.801  12.616  0.00  0.00    +0.000 A 
ATOM     24  N   UNL     1      53.144   9.399  13.115  0.00  0.00    +0.000 NA
ATOM     25  C   UNL     1      53.109   9.613  14.388  0.00  0.00    +0.000 A 
ATOM     26  N   UNL     1      52.054   9.305  15.206  0.00  0.00    +0.000 N 
ATOM     27  C   UNL     1      50.879   8.769  14.737  0.00  0.00    +0.000 A 
ATOM     28  O   UNL     1      49.904   8.632  15.468  0.00  0.00    +0.000 OA
ATOM     29  C   UNL     1      50.902   8.434  13.322  0.00  0.00    +0.000 A 
ATOM     30  H   UNL     1      52.073   9.543  16.185  0.00  0.00    +0.000 HD
ENDBRANCH  17  20
ENDBRANCH   2  16
TORSDOF 5
ENDMDL
MODEL 7
REMARK VINA RESULT:    -7.207      3.254      4.560
REMARK INTER + INTRA:          -9.785
REMARK INTER:                  -8.424
REMARK INTRA:                  -1.362
REMARK UNBOUND:                -0.472
REMARK  Name = 
REMARK  6 active torsions:
REMARK  status: ('A' for Active; 'I' for Inactive)
REMARK    1  A    between atoms: C_1  and  C_2
REMARK    2  A    between atoms: C_2  and  N_3
REMARK    3  A    between atoms: C_2  and  C_16
REMARK    4  A    between atoms: C_4  and  C_6
REMARK    5  A    between atoms: C_19  and  O_20
REMARK    6  A    between atoms: O_20  and  C_21
REMARK                            x       y       z     vdW  Elec       q    Type
REMARK                         _______ _______ _______ _____ _____    ______ ____
ROOT
ATOM      1  C   UNL     1      48.355   9.164  12.775  0.00  0.00    +0.000 C 
ATOM      2  C   UNL     1      47.633   8.172  13.696  0.00  0.00    +0.000 C 
ENDROOT
BRANCH   2   3
ATOM      3  C   UNL     1      46.698   7.228  12.954  0.00  0.00    +0.000 A 
ATOM      4  C   UNL     1      45.765   7.761  12.051  0.00  0.00    +0.000 A 
ATOM      5  C   UNL     1      44.925   6.921  11.317  0.00  0.00    +0.000 A 
ATOM      6  C   UNL     1      45.048   5.535  11.432  0.00  0.00    +0.000 A 
ATOM      7  C   UNL     1      45.902   5.000  12.393  0.00  0.00    +0.000 A 
ATOM      8  C   UNL     1      46.706   5.841  13.161  0.00  0.00    +0.000 A 
BRANCH   6   9
ATOM      9  O   UNL     1      44.336   4.624  10.688  0.00  0.00    +0.000 OA
BRANCH   9  10
ATOM     10  C   UNL     1      44.952   3.938   9.666  0.00  0.00    +0.000 A 
ATOM     11  C   UNL     1      45.663   4.526   8.616  0.00  0.00    +0.000 A 
ATOM     12  C   UNL     1      46.183   3.735   7.592  0.00  0.00    +0.000 A 
ATOM     13  C   UNL     1      46.057   2.348   7.649  0.00  0.00    +0.000 A 
ATOM     14  C   UNL     1      45.421   1.752   8.737  0.00  0.00    +0.000 A 
ATOM     15  C   UNL     1      44.870   2.546   9.744  0.00  0.00    +0.000 A 
ENDBRANCH   9  10
ENDBRANCH   6   9
ENDBRANCH   2   3
BRANCH   2  16
ATOM     16  N   UNL     1      48.594   7.386  14.444  0.00  0.00    +0.000 N 
ATOM     17  C   UNL     1      48.906   7.656  15.749  0.00  0.00    +0.000 C 
ATOM     18  O   UNL     1      48.287   8.474  16.426  0.00  0.00    +0.000 OA
ATOM     19  H   UNL     1      49.224   6.816  13.891  0.00  0.00    +0.000 HD
BRANCH  17  20
ATOM     20  C   UNL     1      50.020   6.888  16.310  0.00  0.00    +0.000 A 
ATOM     21  C   UNL     1      49.806   6.006  17.357  0.00  0.00    +0.000 A 
ATOM     22  S   UNL     1      51.234   5.256  17.914  0.00  0.00    +0.000 S 
ATOM     23  C   UNL     1      52.190   6.127  16.807  0.00  0.00    +0.000 A 
ATOM     24  N   UNL     1      53.545   6.019  16.809  0.00  0.00    +0.000 NA
ATOM     25  C   UNL     1      54.141   6.769  15.942  0.00  0.00    +0.000 A 
ATOM     26  N   UNL     1      53.506   7.603  15.059  0.00  0.00    +0.000 N 
ATOM     27  C   UNL     1      52.138   7.691  14.969  0.00  0.00    +0.000 A 
ATOM     28  O   UNL     1      51.598   8.339  14.079  0.00  0.00    +0.000 OA
ATOM     29  C   UNL     1      51.425   6.926  15.980  0.00  0.00    +0.000 A 
ATOM     30  H   UNL     1      54.030   8.126  14.376  0.00  0.00    +0.000 HD
ENDBRANCH  17  20
ENDBRANCH   2  16
TORSDOF 5
ENDMDL
MODEL 8
REMARK VINA RESULT:    -7.198      3.231      4.590
REMARK INTER + INTRA:          -9.774
REMARK INTER:                  -8.762
REMARK INTRA:                  -1.012
REMARK UNBOUND:                -0.472
REMARK  Name = 
REMARK  6 active torsions:
REMARK  status: ('A' for Active; 'I' for Inactive)
REMARK    1  A    between atoms: C_1  and  C_2
REMARK    2  A    between atoms: C_2  and  N_3
REMARK    3  A    between atoms: C_2  and  C_16
REMARK    4  A    between atoms: C_4  and  C_6
REMARK    5  A    between atoms: C_19  and  O_20
REMARK    6  A    between atoms: O_20  and  C_21
REMARK                            x       y       z     vdW  Elec       q    Type
REMARK                         _______ _______ _______ _____ _____    ______ ____
ROOT
ATOM      1  C   UNL     1      47.804   3.502  16.383  0.00  0.00    +0.000 C 
ATOM      2  C   UNL     1      48.049   4.838  15.670  0.00  0.00    +0.000 C 
ENDROOT
BRANCH   2   3
ATOM      3  C   UNL     1      47.176   5.034  14.439  0.00  0.00    +0.000 A 
ATOM      4  C   UNL     1      47.598   5.921  13.436  0.00  0.00    +0.000 A 
ATOM      5  C   UNL     1      46.847   6.090  12.271  0.00  0.00    +0.000 A 
ATOM      6  C   UNL     1      45.695   5.328  12.067  0.00  0.00    +0.000 A 
ATOM      7  C   UNL     1      45.217   4.518  13.093  0.00  0.00    +0.000 A 
ATOM      8  C   UNL     1      45.942   4.387  14.278  0.00  0.00    +0.000 A 
BRANCH   6   9
ATOM      9  O   UNL     1      44.939   5.350  10.919  0.00  0.00    +0.000 OA
BRANCH   9  10
ATOM     10  C   UNL     1      45.136   4.396   9.946  0.00  0.00    +0.000 A 
ATOM     11  C   UNL     1      44.670   3.079  10.005  0.00  0.00    +0.000 A 
ATOM     12  C   UNL     1      44.993   2.176   8.993  0.00  0.00    +0.000 A 
ATOM     13  C   UNL     1      45.721   2.602   7.884  0.00  0.00    +0.000 A 
ATOM     14  C   UNL     1      46.116   3.935   7.781  0.00  0.00    +0.000 A 
ATOM     15  C   UNL     1      45.823   4.831   8.810  0.00  0.00    +0.000 A 
ENDBRANCH   9  10
ENDBRANCH   6   9
ENDBRANCH   2   3
BRANCH   2  16
ATOM     16  N   UNL     1      47.830   5.944  16.580  0.00  0.00    +0.000 N 
ATOM     17  C   UNL     1      48.827   6.456  17.366  0.00  0.00    +0.000 C 
ATOM     18  O   UNL     1      50.004   6.127  17.246  0.00  0.00    +0.000 OA
ATOM     19  H   UNL     1      46.863   6.137  16.816  0.00  0.00    +0.000 HD
BRANCH  17  20
ATOM     20  C   UNL     1      48.409   7.450  18.357  0.00  0.00    +0.000 A 
ATOM     21  C   UNL     1      48.137   7.068  19.661  0.00  0.00    +0.000 A 
ATOM     22  S   UNL     1      47.605   8.356  20.647  0.00  0.00    +0.000 S 
ATOM     23  C   UNL     1      47.671   9.453  19.347  0.00  0.00    +0.000 A 
ATOM     24  N   UNL     1      47.256  10.739  19.490  0.00  0.00    +0.000 NA
ATOM     25  C   UNL     1      47.324  11.444  18.410  0.00  0.00    +0.000 A 
ATOM     26  N   UNL     1      47.790  10.988  17.205  0.00  0.00    +0.000 N 
ATOM     27  C   UNL     1      48.290   9.720  17.030  0.00  0.00    +0.000 A 
ATOM     28  O   UNL     1      48.826   9.385  15.979  0.00  0.00    +0.000 OA
ATOM     29  C   UNL     1      48.157   8.863  18.197  0.00  0.00    +0.000 A 
ATOM     30  H   UNL     1      47.862  11.606  16.412  0.00  0.00    +0.000 HD
ENDBRANCH  17  20
ENDBRANCH   2  16
TORSDOF 5
ENDMDL
MODEL 9
REMARK VINA RESULT:    -6.715      2.933      4.326
REMARK INTER + INTRA:          -9.150
REMARK INTER:                  -8.117
REMARK INTRA:                  -1.033
REMARK UNBOUND:                -0.472
REMARK  Name = 
REMARK  6 active torsions:
REMARK  status: ('A' for Active; 'I' for Inactive)
REMARK    1  A    between atoms: C_1  and  C_2
REMARK    2  A    between atoms: C_2  and  N_3
REMARK    3  A    between atoms: C_2  and  C_16
REMARK    4  A    between atoms: C_4  and  C_6
REMARK    5  A    between atoms: C_19  and  O_20
REMARK    6  A    between atoms: O_20  and  C_21
REMARK                            x       y       z     vdW  Elec       q    Type
REMARK                         _______ _______ _______ _____ _____    ______ ____
ROOT
ATOM      1  C   UNL     1      49.166   8.109  14.484  0.00  0.00    +0.000 C 
ATOM      2  C   UNL     1      48.206   6.977  14.868  0.00  0.00    +0.000 C 
ENDROOT
BRANCH   2   3
ATOM      3  C   UNL     1      47.356   6.484  13.706  0.00  0.00    +0.000 A 
ATOM      4  C   UNL     1      46.768   5.213  13.779  0.00  0.00    +0.000 A 
ATOM      5  C   UNL     1      45.943   4.748  12.753  0.00  0.00    +0.000 A 
ATOM      6  C   UNL     1      45.647   5.574  11.667  0.00  0.00    +0.000 A 
ATOM      7  C   UNL     1      46.300   6.797  11.537  0.00  0.00    +0.000 A 
ATOM      8  C   UNL     1      47.163   7.240  12.539  0.00  0.00    +0.000 A 
BRANCH   6   9
ATOM      9  O   UNL     1      44.776   5.249  10.654  0.00  0.00    +0.000 OA
BRANCH   9  10
ATOM     10  C   UNL     1      45.098   4.250   9.762  0.00  0.00    +0.000 A 
ATOM     11  C   UNL     1      44.724   2.909   9.887  0.00  0.00    +0.000 A 
ATOM     12  C   UNL     1      45.170   1.968   8.961  0.00  0.00    +0.000 A 
ATOM     13  C   UNL     1      45.932   2.373   7.867  0.00  0.00    +0.000 A 
ATOM     14  C   UNL     1      46.237   3.723   7.693  0.00  0.00    +0.000 A 
ATOM     15  C   UNL     1      45.821   4.659   8.639  0.00  0.00    +0.000 A 
ENDBRANCH   9  10
ENDBRANCH   6   9
ENDBRANCH   2   3
BRANCH   2  16
ATOM     16  N   UNL     1      48.941   5.856  15.418  0.00  0.00    +0.000 N 
ATOM     17  C   UNL     1      49.182   5.722  16.759  0.00  0.00    +0.000 C 
ATOM     18  O   UNL     1      48.663   6.449  17.603  0.00  0.00    +0.000 OA
ATOM     19  H   UNL     1      49.504   5.330  14.758  0.00  0.00    +0.000 HD
BRANCH  17  20
ATOM     20  C   UNL     1      50.087   4.635  17.139  0.00  0.00    +0.000 A 
ATOM     21  C   UNL     1      49.660   3.318  17.087  0.00  0.00    +0.000 A 
ATOM     22  S   UNL     1      50.834   2.204  17.629  0.00  0.00    +0.000 S 
ATOM     23  C   UNL     1      51.930   3.452  17.999  0.00  0.00    +0.000 A 
ATOM     24  N   UNL     1      53.125   3.188  18.590  0.00  0.00    +0.000 NA
ATOM     25  C   UNL     1      53.834   4.236  18.849  0.00  0.00    +0.000 A 
ATOM     26  N   UNL     1      53.469   5.523  18.554  0.00  0.00    +0.000 N 
ATOM     27  C   UNL     1      52.306   5.834  17.892  0.00  0.00    +0.000 A 
ATOM     28  O   UNL     1      52.071   6.979  17.519  0.00  0.00    +0.000 OA
ATOM     29  C   UNL     1      51.436   4.694  17.651  0.00  0.00    +0.000 A 
ATOM     30  H   UNL     1      54.092   6.292  18.741  0.00  0.00    +0.000 HD
ENDBRANCH  17  20
ENDBRANCH   2  16
TORSDOF 5
ENDMDL
