MODEL 1
REMARK VINA RESULT:    -8.525      0.000      0.000
REMARK INTER + INTRA:         -12.266
REMARK INTER:                 -11.515
REMARK INTRA:                  -0.752
REMARK UNBOUND:                -0.752
REMARK  Name = 
REMARK  7 active torsions:
REMARK  status: ('A' for Active; 'I' for Inactive)
REMARK    1  A    between atoms: C_1  and  O_2
REMARK    2  A    between atoms: O_2  and  C_3
REMARK    3  A    between atoms: C_6  and  C_7
REMARK    4  A    between atoms: C_11  and  C_12
REMARK    5  A    between atoms: C_12  and  O_13
REMARK    6  A    between atoms: O_13  and  C_14
REMARK    7  A    between atoms: C_17  and  C_18
REMARK                            x       y       z     vdW  Elec       q    Type
REMARK                         _______ _______ _______ _____ _____    ______ ____
ROOT
ATOM      1  C   UNL     1      46.281   5.816  12.719  0.00  0.00    +0.000 A 
ATOM      2  C   UNL     1      47.108   5.008  13.483  0.00  0.00    +0.000 A 
ATOM      3  C   UNL     1      46.755   3.682  13.580  0.00  0.00    +0.000 A 
ATOM      4  N   UNL     1      45.675   3.160  12.979  0.00  0.00    +0.000 NA
ATOM      5  C   UNL     1      44.912   4.013  12.269  0.00  0.00    +0.000 A 
ATOM      6  N   UNL     1      45.176   5.330  12.117  0.00  0.00    +0.000 NA
ENDROOT
BRANCH   1  10
ATOM      7  C   UNL     1      47.012   9.941  12.079  0.00  0.00    +0.000 A 
ATOM      8  C   UNL     1      48.098   9.083  12.060  0.00  0.00    +0.000 A 
ATOM      9  C   UNL     1      47.868   7.719  12.266  0.00  0.00    +0.000 A 
ATOM     10  C   UNL     1      46.570   7.240  12.483  0.00  0.00    +0.000 A 
ATOM     11  C   UNL     1      45.562   8.206  12.487  0.00  0.00    +0.000 A 
ATOM     12  N   UNL     1      45.745   9.529  12.282  0.00  0.00    +0.000 NA
BRANCH   7  14
ATOM     13  C   UNL     1      48.296  11.516  10.940  0.00  0.00    +0.000 C 
ATOM     14  O   UNL     1      47.267  11.283  11.899  0.00  0.00    +0.000 OA
ENDBRANCH   7  14
ENDBRANCH   1  10
BRANCH   5  15
ATOM     15  C   UNL     1      43.696   3.452  11.566  0.00  0.00    +0.000 C 
BRANCH  15  16
ATOM     16  O   UNL     1      43.657   3.922  10.216  0.00  0.00    +0.000 OA
BRANCH  16  17
ATOM     17  C   UNL     1      44.593   3.410   9.360  0.00  0.00    +0.000 A 
ATOM     18  C   UNL     1      44.936   2.064   9.227  0.00  0.00    +0.000 A 
ATOM     19  C   UNL     1      45.930   1.680   8.319  0.00  0.00    +0.000 A 
ATOM     20  C   UNL     1      46.580   2.635   7.531  0.00  0.00    +0.000 A 
ATOM     21  C   UNL     1      46.237   3.984   7.661  0.00  0.00    +0.000 A 
ATOM     22  C   UNL     1      45.247   4.364   8.573  0.00  0.00    +0.000 A 
BRANCH  20  23
ATOM     23  C   UNL     1      47.650   2.176   6.609  0.00  0.00    +0.000 C 
ATOM     24  N   UNL     1      47.805   2.851   5.431  0.00  0.00    +0.000 N 
ATOM     25  O   UNL     1      48.352   1.208   6.874  0.00  0.00    +0.000 OA
ATOM     26  H   UNL     1      47.121   3.504   5.077  0.00  0.00    +0.000 HD
ATOM     27  H   UNL     1      48.477   2.469   4.779  0.00  0.00    +0.000 HD
ENDBRANCH  20  23
ENDBRANCH  16  17
ENDBRANCH  15  16
ENDBRANCH   5  15
TORSDOF 6
ENDMDL
MODEL 2
REMARK VINA RESULT:    -8.436      2.669      4.483
REMARK INTER + INTRA:         -12.147
REMARK INTER:                 -11.383
REMARK INTRA:                  -0.764
REMARK UNBOUND:                -0.752
REMARK  Name = 
REMARK  7 active torsions:
REMARK  status: ('A' for Active; 'I' for Inactive)
REMARK    1  A    between atoms: C_1  and  O_2
REMARK    2  A    between atoms: O_2  and  C_3
REMARK    3  A    between atoms: C_6  and  C_7
REMARK    4  A    between atoms: C_11  and  C_12
REMARK    5  A    between atoms: C_12  and  O_13
REMARK    6  A    between atoms: O_13  and  C_14
REMARK    7  A    between atoms: C_17  and  C_18
REMARK                            x       y       z     vdW  Elec       q    Type
REMARK                         _______ _______ _______ _____ _____    ______ ____
ROOT
ATOM      1  C   UNL     1      46.407   5.420  13.505  0.00  0.00    +0.000 A 
ATOM      2  C   UNL     1      46.735   6.695  13.074  0.00  0.00    +0.000 A 
ATOM      3  C   UNL     1      45.969   7.219  12.059  0.00  0.00    +0.000 A 
ATOM      4  N   UNL     1      44.946   6.561  11.492  0.00  0.00    +0.000 NA
ATOM      5  C   UNL     1      44.701   5.320  11.953  0.00  0.00    +0.000 A 
ATOM      6  N   UNL     1      45.398   4.721  12.944  0.00  0.00    +0.000 NA
ENDROOT
BRANCH   1  10
ATOM      7  C   UNL     1      48.430   3.431  16.652  0.00  0.00    +0.000 A 
ATOM      8  C   UNL     1      48.290   4.805  16.742  0.00  0.00    +0.000 A 
ATOM      9  C   UNL     1      47.621   5.471  15.712  0.00  0.00    +0.000 A 
ATOM     10  C   UNL     1      47.105   4.761  14.621  0.00  0.00    +0.000 A 
ATOM     11  C   UNL     1      47.318   3.381  14.642  0.00  0.00    +0.000 A 
ATOM     12  N   UNL     1      47.950   2.702  15.626  0.00  0.00    +0.000 NA
BRANCH   7  14
ATOM     13  C   UNL     1      50.517   3.050  17.613  0.00  0.00    +0.000 C 
ATOM     14  O   UNL     1      49.115   2.799  17.668  0.00  0.00    +0.000 OA
ENDBRANCH   7  14
ENDBRANCH   1  10
BRANCH   5  15
ATOM     15  C   UNL     1      43.544   4.559  11.344  0.00  0.00    +0.000 C 
BRANCH  15  16
ATOM     16  O   UNL     1      43.595   4.662   9.918  0.00  0.00    +0.000 OA
BRANCH  16  17
ATOM     17  C   UNL     1      44.444   3.808   9.270  0.00  0.00    +0.000 A 
ATOM     18  C   UNL     1      44.511   2.426   9.445  0.00  0.00    +0.000 A 
ATOM     19  C   UNL     1      45.446   1.672   8.725  0.00  0.00    +0.000 A 
ATOM     20  C   UNL     1      46.313   2.292   7.819  0.00  0.00    +0.000 A 
ATOM     21  C   UNL     1      46.247   3.677   7.641  0.00  0.00    +0.000 A 
ATOM     22  C   UNL     1      45.315   4.427   8.367  0.00  0.00    +0.000 A 
BRANCH  20  23
ATOM     23  C   UNL     1      47.308   1.449   7.109  0.00  0.00    +0.000 C 
ATOM     24  N   UNL     1      48.384   2.076   6.547  0.00  0.00    +0.000 N 
ATOM     25  O   UNL     1      47.160   0.238   6.999  0.00  0.00    +0.000 OA
ATOM     26  H   UNL     1      48.435   3.078   6.424  0.00  0.00    +0.000 HD
ATOM     27  H   UNL     1      49.002   1.499   5.992  0.00  0.00    +0.000 HD
ENDBRANCH  20  23
ENDBRANCH  16  17
ENDBRANCH  15  16
ENDBRANCH   5  15
TORSDOF 6
ENDMDL
MODEL 3
REMARK VINA RESULT:    -7.895      2.447      3.507
REMARK INTER + INTRA:         -11.416
REMARK INTER:                 -10.874
REMARK INTRA:                  -0.542
REMARK UNBOUND:                -0.752
REMARK  Name = 
REMARK  7 active torsions:
REMARK  status: ('A' for Active; 'I' for Inactive)
REMARK    1  A    between atoms: C_1  and  O_2
REMARK    2  A    between atoms: O_2  and  C_3
REMARK    3  A    between atoms: C_6  and  C_7
REMARK    4  A    between atoms: C_11  and  C_12
REMARK    5  A    between atoms: C_12  and  O_13
REMARK    6  A    between atoms: O_13  and  C_14
REMARK    7  A    between atoms: C_17  and  C_18
REMARK                            x       y       z     vdW  Elec       q    Type
REMARK                         _______ _______ _______ _____ _____    ______ ____
ROOT
ATOM      1  C   UNL     1      45.969   5.843  13.084  0.00  0.00    +0.000 A 
ATOM      2  C   UNL     1      45.389   6.992  12.569  0.00  0.00    +0.000 A 
ATOM      3  C   UNL     1      44.306   6.817  11.739  0.00  0.00    +0.000 A 
ATOM      4  N   UNL     1      43.806   5.613  11.424  0.00  0.00    +0.000 NA
ATOM      5  C   UNL     1      44.435   4.544  11.949  0.00  0.00    +0.000 A 
ATOM      6  N   UNL     1      45.505   4.615  12.772  0.00  0.00    +0.000 NA
ENDROOT
BRANCH   1  10
ATOM      7  C   UNL     1      49.196   5.856  15.829  0.00  0.00    +0.000 A 
ATOM      8  C   UNL     1      49.117   6.899  14.923  0.00  0.00    +0.000 A 
ATOM      9  C   UNL     1      48.054   6.908  14.015  0.00  0.00    +0.000 A 
ATOM     10  C   UNL     1      47.096   5.886  14.029  0.00  0.00    +0.000 A 
ATOM     11  C   UNL     1      47.292   4.887  14.985  0.00  0.00    +0.000 A 
ATOM     12  N   UNL     1      48.300   4.852  15.885  0.00  0.00    +0.000 NA
BRANCH   7  14
ATOM     13  C   UNL     1      50.799   7.164  16.901  0.00  0.00    +0.000 C 
ATOM     14  O   UNL     1      50.267   5.857  16.698  0.00  0.00    +0.000 OA
ENDBRANCH   7  14
ENDBRANCH   1  10
BRANCH   5  15
ATOM     15  C   UNL     1      43.885   3.173  11.624  0.00  0.00    +0.000 C 
BRANCH  15  16
ATOM     16  O   UNL     1      43.474   3.130  10.255  0.00  0.00    +0.000 OA
BRANCH  16  17
ATOM     17  C   UNL     1      44.466   3.035   9.318  0.00  0.00    +0.000 A 
ATOM     18  C   UNL     1      44.966   4.081   8.541  0.00  0.00    +0.000 A 
ATOM     19  C   UNL     1      45.974   3.837   7.602  0.00  0.00    +0.000 A 
ATOM     20  C   UNL     1      46.498   2.550   7.439  0.00  0.00    +0.000 A 
ATOM     21  C   UNL     1      46.000   1.501   8.217  0.00  0.00    +0.000 A 
ATOM     22  C   UNL     1      44.988   1.748   9.150  0.00  0.00    +0.000 A 
BRANCH  20  23
ATOM     23  C   UNL     1      47.543   2.342   6.404  0.00  0.00    +0.000 C 
ATOM     24  N   UNL     1      47.365   2.950   5.193  0.00  0.00    +0.000 N 
ATOM     25  O   UNL     1      48.516   1.627   6.610  0.00  0.00    +0.000 OA
ATOM     26  H   UNL     1      46.488   3.362   4.907  0.00  0.00    +0.000 HD
ATOM     27  H   UNL     1      48.039   2.724   4.473  0.00  0.00    +0.000 HD
ENDBRANCH  20  23
ENDBRANCH  16  17
ENDBRANCH  15  16
ENDBRANCH   5  15
TORSDOF 6
ENDMDL
MODEL 4
REMARK VINA RESULT:    -7.394      1.711      2.150
REMARK INTER + INTRA:         -10.739
REMARK INTER:                 -10.043
REMARK INTRA:                  -0.696
REMARK UNBOUND:                -0.752
REMARK  Name = 
REMARK  7 active torsions:
REMARK  status: ('A' for Active; 'I' for Inactive)
REMARK    1  A    between atoms: C_1  and  O_2
REMARK    2  A    between atoms: O_2  and  C_3
REMARK    3  A    between atoms: C_6  and  C_7
REMARK    4  A    between atoms: C_11  and  C_12
REMARK    5  A    between atoms: C_12  and  O_13
REMARK    6  A    between atoms: O_13  and  C_14
REMARK    7  A    between atoms: C_17  and  C_18
REMARK                            x       y       z     vdW  Elec       q    Type
REMARK                         _______ _______ _______ _____ _____    ______ ____
ROOT
ATOM      1  C   UNL     1      46.997   5.959  13.025  0.00  0.00    +0.000 A 
ATOM      2  C   UNL     1      47.211   4.947  13.947  0.00  0.00    +0.000 A 
ATOM      3  C   UNL     1      46.298   3.918  13.956  0.00  0.00    +0.000 A 
ATOM      4  N   UNL     1      45.243   3.861  13.129  0.00  0.00    +0.000 NA
ATOM      5  C   UNL     1      45.093   4.891  12.275  0.00  0.00    +0.000 A 
ATOM      6  N   UNL     1      45.935   5.945  12.192  0.00  0.00    +0.000 NA
ENDROOT
BRANCH   1  10
ATOM      7  C   UNL     1      49.741   9.164  12.640  0.00  0.00    +0.000 A 
ATOM      8  C   UNL     1      48.736   9.059  11.695  0.00  0.00    +0.000 A 
ATOM      9  C   UNL     1      47.822   8.008  11.814  0.00  0.00    +0.000 A 
ATOM     10  C   UNL     1      47.925   7.090  12.866  0.00  0.00    +0.000 A 
ATOM     11  C   UNL     1      48.987   7.299  13.749  0.00  0.00    +0.000 A 
ATOM     12  N   UNL     1      49.882   8.309  13.671  0.00  0.00    +0.000 NA
BRANCH   7  14
ATOM     13  C   UNL     1      51.863   9.762  11.887  0.00  0.00    +0.000 C 
ATOM     14  O   UNL     1      50.645  10.194  12.487  0.00  0.00    +0.000 OA
ENDBRANCH   7  14
ENDBRANCH   1  10
BRANCH   5  15
ATOM     15  C   UNL     1      43.921   4.848  11.320  0.00  0.00    +0.000 C 
BRANCH  15  16
ATOM     16  O   UNL     1      43.894   3.587  10.644  0.00  0.00    +0.000 OA
BRANCH  16  17
ATOM     17  C   UNL     1      44.755   3.435   9.592  0.00  0.00    +0.000 A 
ATOM     18  C   UNL     1      45.259   4.457   8.787  0.00  0.00    +0.000 A 
ATOM     19  C   UNL     1      46.121   4.155   7.727  0.00  0.00    +0.000 A 
ATOM     20  C   UNL     1      46.496   2.832   7.471  0.00  0.00    +0.000 A 
ATOM     21  C   UNL     1      45.993   1.806   8.276  0.00  0.00    +0.000 A 
ATOM     22  C   UNL     1      45.127   2.112   9.331  0.00  0.00    +0.000 A 
BRANCH  20  23
ATOM     23  C   UNL     1      47.386   2.565   6.312  0.00  0.00    +0.000 C 
ATOM     24  N   UNL     1      48.590   1.969   6.562  0.00  0.00    +0.000 N 
ATOM     25  O   UNL     1      47.072   2.892   5.174  0.00  0.00    +0.000 OA
ATOM     26  H   UNL     1      48.979   1.882   7.491  0.00  0.00    +0.000 HD
ATOM     27  H   UNL     1      49.219   1.878   5.775  0.00  0.00    +0.000 HD
ENDBRANCH  20  23
ENDBRANCH  16  17
ENDBRANCH  15  16
ENDBRANCH   5  15
TORSDOF 6
ENDMDL
MODEL 5
REMARK VINA RESULT:    -7.322      3.913      8.350
REMARK INTER + INTRA:         -10.642
REMARK INTER:                 -10.135
REMARK INTRA:                  -0.507
REMARK UNBOUND:                -0.752
REMARK  Name = 
REMARK  7 active torsions:
REMARK  status: ('A' for Active; 'I' for Inactive)
REMARK    1  A    between atoms: C_1  and  O_2
REMARK    2  A    between atoms: O_2  and  C_3
REMARK    3  A    between atoms: C_6  and  C_7
REMARK    4  A    between atoms: C_11  and  C_12
REMARK    5  A    between atoms: C_12  and  O_13
REMARK    6  A    between atoms: O_13  and  C_14
REMARK    7  A    between atoms: C_17  and  C_18
REMARK                            x       y       z     vdW  Elec       q    Type
REMARK                         _______ _______ _______ _____ _____    ______ ____
ROOT
ATOM      1  C   UNL     1      44.690   4.060  11.042  0.00  0.00    +0.000 A 
ATOM      2  C   UNL     1      43.345   4.134  11.364  0.00  0.00    +0.000 A 
ATOM      3  C   UNL     1      43.039   4.538  12.643  0.00  0.00    +0.000 A 
ATOM      4  N   UNL     1      43.967   4.856  13.558  0.00  0.00    +0.000 NA
ATOM      5  C   UNL     1      45.253   4.743  13.174  0.00  0.00    +0.000 A 
ATOM      6  N   UNL     1      45.651   4.352  11.943  0.00  0.00    +0.000 NA
ENDROOT
BRANCH   1  10
ATOM      7  C   UNL     1      46.083   3.121   7.152  0.00  0.00    +0.000 A 
ATOM      8  C   UNL     1      45.705   2.072   7.972  0.00  0.00    +0.000 A 
ATOM      9  C   UNL     1      45.240   2.370   9.256  0.00  0.00    +0.000 A 
ATOM     10  C   UNL     1      45.159   3.698   9.694  0.00  0.00    +0.000 A 
ATOM     11  C   UNL     1      45.578   4.664   8.777  0.00  0.00    +0.000 A 
ATOM     12  N   UNL     1      46.022   4.414   7.526  0.00  0.00    +0.000 NA
BRANCH   7  14
ATOM     13  C   UNL     1      47.852   2.197   5.950  0.00  0.00    +0.000 C 
ATOM     14  O   UNL     1      46.562   2.800   5.900  0.00  0.00    +0.000 OA
ENDBRANCH   7  14
ENDBRANCH   1  10
BRANCH   5  15
ATOM     15  C   UNL     1      46.323   5.109  14.179  0.00  0.00    +0.000 C 
BRANCH  15  16
ATOM     16  O   UNL     1      46.915   3.919  14.709  0.00  0.00    +0.000 OA
BRANCH  16  17
ATOM     17  C   UNL     1      47.473   4.013  15.954  0.00  0.00    +0.000 A 
ATOM     18  C   UNL     1      47.507   3.005  16.917  0.00  0.00    +0.000 A 
ATOM     19  C   UNL     1      48.098   3.245  18.164  0.00  0.00    +0.000 A 
ATOM     20  C   UNL     1      48.668   4.489  18.452  0.00  0.00    +0.000 A 
ATOM     21  C   UNL     1      48.637   5.500  17.488  0.00  0.00    +0.000 A 
ATOM     22  C   UNL     1      48.041   5.258  16.246  0.00  0.00    +0.000 A 
BRANCH  20  23
ATOM     23  C   UNL     1      49.251   4.700  19.802  0.00  0.00    +0.000 C 
ATOM     24  N   UNL     1      48.662   4.057  20.854  0.00  0.00    +0.000 N 
ATOM     25  O   UNL     1      50.206   5.446  19.978  0.00  0.00    +0.000 OA
ATOM     26  H   UNL     1      47.757   3.613  20.791  0.00  0.00    +0.000 HD
ATOM     27  H   UNL     1      49.016   4.283  21.774  0.00  0.00    +0.000 HD
ENDBRANCH  20  23
ENDBRANCH  16  17
ENDBRANCH  15  16
ENDBRANCH   5  15
TORSDOF 6
ENDMDL
MODEL 6
REMARK VINA RESULT:    -7.176      2.338      7.056
REMARK INTER + INTRA:         -10.445
REMARK INTER:                  -9.689
REMARK INTRA:                  -0.756
REMARK UNBOUND:                -0.752
REMARK  Name = 
REMARK  7 active torsions:
REMARK  status: ('A' for Active; 'I' for Inactive)
REMARK    1  A    between atoms: C_1  and  O_2
REMARK    2  A    between atoms: O_2  and  C_3
REMARK    3  A    between atoms: C_6  and  C_7
REMARK    4  A    between atoms: C_11  and  C_12
REMARK    5  A    between atoms: C_12  and  O_13
REMARK    6  A    between atoms: O_13  and  C_14
REMARK    7  A    between atoms: C_17  and  C_18
REMARK                            x       y       z     vdW  Elec       q    Type
REMARK                         _______ _______ _______ _____ _____    ______ ____
ROOT
ATOM      1  C   UNL     1      44.532   4.319  10.299  0.00  0.00    +0.000 A 
ATOM      2  C   UNL     1      43.420   3.791  10.936  0.00  0.00    +0.000 A 
ATOM      3  C   UNL     1      42.775   4.612  11.832  0.00  0.00    +0.000 A 
ATOM      4  N   UNL     1      43.170   5.866  12.100  0.00  0.00    +0.000 NA
ATOM      5  C   UNL     1      44.269   6.300  11.455  0.00  0.00    +0.000 A 
ATOM      6  N   UNL     1      44.970   5.568  10.560  0.00  0.00    +0.000 NA
ENDROOT
BRANCH   1  10
ATOM      7  C   UNL     1      46.639   2.077   7.386  0.00  0.00    +0.000 A 
ATOM      8  C   UNL     1      46.628   3.455   7.256  0.00  0.00    +0.000 A 
ATOM      9  C   UNL     1      45.939   4.206   8.214  0.00  0.00    +0.000 A 
ATOM     10  C   UNL     1      45.282   3.573   9.276  0.00  0.00    +0.000 A 
ATOM     11  C   UNL     1      45.359   2.179   9.292  0.00  0.00    +0.000 A 
ATOM     12  N   UNL     1      46.024   1.422   8.390  0.00  0.00    +0.000 NA
BRANCH   7  14
ATOM     13  C   UNL     1      47.884   2.197   5.421  0.00  0.00    +0.000 C 
ATOM     14  O   UNL     1      47.303   1.358   6.416  0.00  0.00    +0.000 OA
ENDBRANCH   7  14
ENDBRANCH   1  10
BRANCH   5  15
ATOM     15  C   UNL     1      44.732   7.715  11.725  0.00  0.00    +0.000 C 
BRANCH  15  16
ATOM     16  O   UNL     1      45.702   7.713  12.776  0.00  0.00    +0.000 OA
BRANCH  16  17
ATOM     17  C   UNL     1      46.991   8.008  12.424  0.00  0.00    +0.000 A 
ATOM     18  C   UNL     1      47.472   9.260  12.042  0.00  0.00    +0.000 A 
ATOM     19  C   UNL     1      48.817   9.416  11.687  0.00  0.00    +0.000 A 
ATOM     20  C   UNL     1      49.692   8.325  11.721  0.00  0.00    +0.000 A 
ATOM     21  C   UNL     1      49.213   7.070  12.105  0.00  0.00    +0.000 A 
ATOM     22  C   UNL     1      47.866   6.918  12.454  0.00  0.00    +0.000 A 
BRANCH  20  23
ATOM     23  C   UNL     1      51.101   8.540  11.301  0.00  0.00    +0.000 C 
ATOM     24  N   UNL     1      51.861   7.434  11.044  0.00  0.00    +0.000 N 
ATOM     25  O   UNL     1      51.580   9.664  11.216  0.00  0.00    +0.000 OA
ATOM     26  H   UNL     1      51.580   6.500  11.307  0.00  0.00    +0.000 HD
ATOM     27  H   UNL     1      52.840   7.597  10.847  0.00  0.00    +0.000 HD
ENDBRANCH  20  23
ENDBRANCH  16  17
ENDBRANCH  15  16
ENDBRANCH   5  15
TORSDOF 6
ENDMDL
MODEL 7
REMARK VINA RESULT:    -7.014      3.135      7.703
REMARK INTER + INTRA:         -10.226
REMARK INTER:                  -9.686
REMARK INTRA:                  -0.540
REMARK UNBOUND:                -0.752
REMARK  Name = 
REMARK  7 active torsions:
REMARK  status: ('A' for Active; 'I' for Inactive)
REMARK    1  A    between atoms: C_1  and  O_2
REMARK    2  A    between atoms: O_2  and  C_3
REMARK    3  A    between atoms: C_6  and  C_7
REMARK    4  A    between atoms: C_11  and  C_12
REMARK    5  A    between atoms: C_12  and  O_13
REMARK    6  A    between atoms: O_13  and  C_14
REMARK    7  A    between atoms: C_17  and  C_18
REMARK                            x       y       z     vdW  Elec       q    Type
REMARK                         _______ _______ _______ _____ _____    ______ ____
ROOT
ATOM      1  C   UNL     1      44.662   4.311  10.435  0.00  0.00    +0.000 A 
ATOM      2  C   UNL     1      43.331   4.105  10.762  0.00  0.00    +0.000 A 
ATOM      3  C   UNL     1      42.811   4.902  11.755  0.00  0.00    +0.000 A 
ATOM      4  N   UNL     1      43.523   5.842  12.396  0.00  0.00    +0.000 NA
ATOM      5  C   UNL     1      44.813   5.969  12.033  0.00  0.00    +0.000 A 
ATOM      6  N   UNL     1      45.414   5.233  11.072  0.00  0.00    +0.000 NA
ENDROOT
BRANCH   1  10
ATOM      7  C   UNL     1      46.534   2.084   7.354  0.00  0.00    +0.000 A 
ATOM      8  C   UNL     1      46.547   3.465   7.251  0.00  0.00    +0.000 A 
ATOM      9  C   UNL     1      45.936   4.210   8.264  0.00  0.00    +0.000 A 
ATOM     10  C   UNL     1      45.331   3.570   9.353  0.00  0.00    +0.000 A 
ATOM     11  C   UNL     1      45.377   2.174   9.337  0.00  0.00    +0.000 A 
ATOM     12  N   UNL     1      45.968   1.423   8.381  0.00  0.00    +0.000 NA
BRANCH   7  14
ATOM     13  C   UNL     1      47.854   2.207   5.438  0.00  0.00    +0.000 C 
ATOM     14  O   UNL     1      47.121   1.371   6.331  0.00  0.00    +0.000 OA
ENDBRANCH   7  14
ENDBRANCH   1  10
BRANCH   5  15
ATOM     15  C   UNL     1      45.638   7.030  12.727  0.00  0.00    +0.000 C 
BRANCH  15  16
ATOM     16  O   UNL     1      46.995   6.592  12.837  0.00  0.00    +0.000 OA
BRANCH  16  17
ATOM     17  C   UNL     1      47.346   5.964  14.000  0.00  0.00    +0.000 A 
ATOM     18  C   UNL     1      46.840   4.750  14.464  0.00  0.00    +0.000 A 
ATOM     19  C   UNL     1      47.276   4.229  15.688  0.00  0.00    +0.000 A 
ATOM     20  C   UNL     1      48.228   4.911  16.451  0.00  0.00    +0.000 A 
ATOM     21  C   UNL     1      48.739   6.128  15.989  0.00  0.00    +0.000 A 
ATOM     22  C   UNL     1      48.296   6.647  14.768  0.00  0.00    +0.000 A 
BRANCH  20  23
ATOM     23  C   UNL     1      48.630   4.330  17.758  0.00  0.00    +0.000 C 
ATOM     24  N   UNL     1      48.390   5.070  18.881  0.00  0.00    +0.000 N 
ATOM     25  O   UNL     1      49.185   3.241  17.831  0.00  0.00    +0.000 OA
ATOM     26  H   UNL     1      48.139   6.048  18.853  0.00  0.00    +0.000 HD
ATOM     27  H   UNL     1      48.751   4.698  19.750  0.00  0.00    +0.000 HD
ENDBRANCH  20  23
ENDBRANCH  16  17
ENDBRANCH  15  16
ENDBRANCH   5  15
TORSDOF 6
ENDMDL
MODEL 8
REMARK VINA RESULT:    -6.757      1.969      7.293
REMARK INTER + INTRA:          -9.879
REMARK INTER:                  -9.171
REMARK INTRA:                  -0.707
REMARK UNBOUND:                -0.752
REMARK  Name = 
REMARK  7 active torsions:
REMARK  status: ('A' for Active; 'I' for Inactive)
REMARK    1  A    between atoms: C_1  and  O_2
REMARK    2  A    between atoms: O_2  and  C_3
REMARK    3  A    between atoms: C_6  and  C_7
REMARK    4  A    between atoms: C_11  and  C_12
REMARK    5  A    between atoms: C_12  and  O_13
REMARK    6  A    between atoms: O_13  and  C_14
REMARK    7  A    between atoms: C_17  and  C_18
REMARK                            x       y       z     vdW  Elec       q    Type
REMARK                         _______ _______ _______ _____ _____    ______ ____
ROOT
ATOM      1  C   UNL     1      44.750   3.944  11.087  0.00  0.00    +0.000 A 
ATOM      2  C   UNL     1      43.412   4.071  11.423  0.00  0.00    +0.000 A 
ATOM      3  C   UNL     1      43.133   4.429  12.721  0.00  0.00    +0.000 A 
ATOM      4  N   UNL     1      44.081   4.655  13.644  0.00  0.00    +0.000 NA
ATOM      5  C   UNL     1      45.357   4.494  13.245  0.00  0.00    +0.000 A 
ATOM      6  N   UNL     1      45.729   4.143  11.994  0.00  0.00    +0.000 NA
ENDROOT
BRANCH   1  10
ATOM      7  C   UNL     1      46.069   3.125   7.145  0.00  0.00    +0.000 A 
ATOM      8  C   UNL     1      45.706   2.052   7.939  0.00  0.00    +0.000 A 
ATOM      9  C   UNL     1      45.265   2.310   9.241  0.00  0.00    +0.000 A 
ATOM     10  C   UNL     1      45.193   3.624   9.721  0.00  0.00    +0.000 A 
ATOM     11  C   UNL     1      45.595   4.618   8.826  0.00  0.00    +0.000 A 
ATOM     12  N   UNL     1      46.016   4.406   7.559  0.00  0.00    +0.000 NA
BRANCH   7  14
ATOM     13  C   UNL     1      47.822   2.253   5.881  0.00  0.00    +0.000 C 
ATOM     14  O   UNL     1      46.524   2.843   5.874  0.00  0.00    +0.000 OA
ENDBRANCH   7  14
ENDBRANCH   1  10
BRANCH   5  15
ATOM     15  C   UNL     1      46.450   4.756  14.259  0.00  0.00    +0.000 C 
BRANCH  15  16
ATOM     16  O   UNL     1      47.645   5.163  13.586  0.00  0.00    +0.000 OA
BRANCH  16  17
ATOM     17  C   UNL     1      47.879   6.508  13.508  0.00  0.00    +0.000 A 
ATOM     18  C   UNL     1      48.116   7.365  14.584  0.00  0.00    +0.000 A 
ATOM     19  C   UNL     1      48.322   8.731  14.359  0.00  0.00    +0.000 A 
ATOM     20  C   UNL     1      48.305   9.249  13.060  0.00  0.00    +0.000 A 
ATOM     21  C   UNL     1      48.069   8.392  11.981  0.00  0.00    +0.000 A 
ATOM     22  C   UNL     1      47.858   7.028  12.210  0.00  0.00    +0.000 A 
BRANCH  20  23
ATOM     23  C   UNL     1      48.496  10.711  12.883  0.00  0.00    +0.000 C 
ATOM     24  N   UNL     1      48.548  11.484  14.009  0.00  0.00    +0.000 N 
ATOM     25  O   UNL     1      48.573  11.217  11.771  0.00  0.00    +0.000 OA
ATOM     26  H   UNL     1      48.275  11.147  14.921  0.00  0.00    +0.000 HD
ATOM     27  H   UNL     1      48.588  12.485  13.865  0.00  0.00    +0.000 HD
ENDBRANCH  20  23
ENDBRANCH  16  17
ENDBRANCH  15  16
ENDBRANCH   5  15
TORSDOF 6
ENDMDL
MODEL 9
REMARK VINA RESULT:    -6.581      5.419      8.518
REMARK INTER + INTRA:          -9.640
REMARK INTER:                  -9.014
REMARK INTRA:                  -0.626
REMARK UNBOUND:                -0.752
REMARK  Name = 
REMARK  7 active torsions:
REMARK  status: ('A' for Active; 'I' for Inactive)
REMARK    1  A    between atoms: C_1  and  O_2
REMARK    2  A    between atoms: O_2  and  C_3
REMARK    3  A    between atoms: C_6  and  C_7
REMARK    4  A    between atoms: C_11  and  C_12
REMARK    5  A    between atoms: C_12  and  O_13
REMARK    6  A    between atoms: O_13  and  C_14
REMARK    7  A    between atoms: C_17  and  C_18
REMARK                            x       y       z     vdW  Elec       q    Type
REMARK                         _______ _______ _______ _____ _____    ______ ____
ROOT
ATOM      1  C   UNL     1      47.283   5.577  13.827  0.00  0.00    +0.000 A 
ATOM      2  C   UNL     1      47.984   6.762  13.664  0.00  0.00    +0.000 A 
ATOM      3  C   UNL     1      48.831   7.123  14.686  0.00  0.00    +0.000 A 
ATOM      4  N   UNL     1      48.998   6.391  15.798  0.00  0.00    +0.000 NA
ATOM      5  C   UNL     1      48.269   5.263  15.890  0.00  0.00    +0.000 A 
ATOM      6  N   UNL     1      47.411   4.827  14.941  0.00  0.00    +0.000 NA
ENDROOT
BRANCH   1  10
ATOM      7  C   UNL     1      44.670   3.958  10.911  0.00  0.00    +0.000 A 
ATOM      8  C   UNL     1      45.184   5.223  10.685  0.00  0.00    +0.000 A 
ATOM      9  C   UNL     1      46.051   5.766  11.638  0.00  0.00    +0.000 A 
ATOM     10  C   UNL     1      46.388   5.042  12.789  0.00  0.00    +0.000 A 
ATOM     11  C   UNL     1      45.798   3.782  12.905  0.00  0.00    +0.000 A 
ATOM     12  N   UNL     1      44.965   3.221  12.000  0.00  0.00    +0.000 NA
BRANCH   7  14
ATOM     13  C   UNL     1      44.476   2.898   8.846  0.00  0.00    +0.000 C 
ATOM     14  O   UNL     1      43.798   3.455   9.969  0.00  0.00    +0.000 OA
ENDBRANCH   7  14
ENDBRANCH   1  10
BRANCH   5  15
ATOM     15  C   UNL     1      48.447   4.408  17.126  0.00  0.00    +0.000 C 
BRANCH  15  16
ATOM     16  O   UNL     1      49.683   4.738  17.767  0.00  0.00    +0.000 OA
BRANCH  16  17
ATOM     17  C   UNL     1      50.641   3.763  17.795  0.00  0.00    +0.000 A 
ATOM     18  C   UNL     1      51.966   3.923  18.201  0.00  0.00    +0.000 A 
ATOM     19  C   UNL     1      52.849   2.838  18.160  0.00  0.00    +0.000 A 
ATOM     20  C   UNL     1      52.412   1.583  17.724  0.00  0.00    +0.000 A 
ATOM     21  C   UNL     1      51.085   1.419  17.317  0.00  0.00    +0.000 A 
ATOM     22  C   UNL     1      50.208   2.508  17.355  0.00  0.00    +0.000 A 
BRANCH  20  23
ATOM     23  C   UNL     1      53.400   0.475  17.668  0.00  0.00    +0.000 C 
ATOM     24  N   UNL     1      53.174  -0.615  18.461  0.00  0.00    +0.000 N 
ATOM     25  O   UNL     1      54.399   0.542  16.963  0.00  0.00    +0.000 OA
ATOM     26  H   UNL     1      52.494  -0.622  19.207  0.00  0.00    +0.000 HD
ATOM     27  H   UNL     1      53.902  -1.318  18.476  0.00  0.00    +0.000 HD
ENDBRANCH  20  23
ENDBRANCH  16  17
ENDBRANCH  15  16
ENDBRANCH   5  15
TORSDOF 6
ENDMDL
