MODEL 1
REMARK VINA RESULT:    -6.425      0.000      0.000
REMARK INTER + INTRA:          -9.587
REMARK INTER:                  -9.055
REMARK INTRA:                  -0.532
REMARK UNBOUND:                -0.532
REMARK  Name = 
REMARK  10 active torsions:
REMARK  status: ('A' for Active; 'I' for Inactive)
REMARK    1  A    between atoms: C_1  and  O_2
REMARK    2  A    between atoms: O_2  and  C_3
REMARK    3  A    between atoms: C_3  and  C_5
REMARK    4  A    between atoms: C_5  and  O_6
REMARK    5  A    between atoms: O_6  and  C_7
REMARK    6  A    between atoms: C_11  and  C_12
REMARK    7  A    between atoms: C_12  and  C_13
REMARK    8  A    between atoms: C_13  and  C_14
REMARK    9  A    between atoms: C_13  and  C_15
REMARK   10  A    between atoms: C_13  and  C_16
REMARK                            x       y       z     vdW  Elec       q    Type
REMARK                         _______ _______ _______ _____ _____    ______ ____
ROOT
ATOM      1  C   UNL     1      46.113   3.937  13.376  0.00  0.00    +0.000 A 
ATOM      2  C   UNL     1      45.267   4.975  13.737  0.00  0.00    +0.000 A 
ATOM      3  C   UNL     1      44.224   5.282  12.889  0.00  0.00    +0.000 A 
ATOM      4  N   UNL     1      43.988   4.629  11.731  0.00  0.00    +0.000 NA
ATOM      5  C   UNL     1      44.812   3.615  11.391  0.00  0.00    +0.000 A 
ATOM      6  C   UNL     1      45.907   3.268  12.174  0.00  0.00    +0.000 A 
ENDROOT
BRANCH   1   7
ATOM      7  O   UNL     1      47.122   3.655  14.255  0.00  0.00    +0.000 OA
BRANCH   7   8
ATOM      8  C   UNL     1      47.110   4.439  15.445  0.00  0.00    +0.000 C 
BRANCH   8   9
ATOM      9  C   UNL     1      47.452   3.583  16.648  0.00  0.00    +0.000 C 
ATOM     10  O   UNL     1      46.655   3.013  17.373  0.00  0.00    +0.000 OA
BRANCH   9  12
ATOM     11  C   UNL     1      49.357   4.753  17.303  0.00  0.00    +0.000 C 
ATOM     12  O   UNL     1      48.807   3.539  16.793  0.00  0.00    +0.000 OA
ENDBRANCH   9  12
ENDBRANCH   8   9
ENDBRANCH   7   8
ENDBRANCH   1   7
BRANCH   5  13
ATOM     13  C   UNL     1      44.598   2.897  10.077  0.00  0.00    +0.000 C 
BRANCH  13  14
ATOM     14  C   UNL     1      44.997   3.632   8.758  0.00  0.00    +0.000 C 
ATOM     15  C   UNL     1      43.704   4.108   8.046  0.00  0.00    +0.000 C 
ATOM     16  C   UNL     1      45.796   4.894   9.177  0.00  0.00    +0.000 C 
BRANCH  14  17
ATOM     17  C   UNL     1      45.934   2.844   7.822  0.00  0.00    +0.000 A 
ATOM     18  C   UNL     1      46.480   3.450   6.674  0.00  0.00    +0.000 A 
ATOM     19  C   UNL     1      47.396   2.784   5.859  0.00  0.00    +0.000 A 
ATOM     20  C   UNL     1      47.799   1.493   6.177  0.00  0.00    +0.000 A 
ATOM     21  C   UNL     1      47.280   0.870   7.308  0.00  0.00    +0.000 A 
ATOM     22  C   UNL     1      46.360   1.538   8.123  0.00  0.00    +0.000 A 
ENDBRANCH  14  17
ENDBRANCH  13  14
ENDBRANCH   5  13
TORSDOF 7
ENDMDL
MODEL 2
REMARK VINA RESULT:    -6.390      3.771      7.064
REMARK INTER + INTRA:          -9.538
REMARK INTER:                  -9.312
REMARK INTRA:                  -0.226
REMARK UNBOUND:                -0.532
REMARK  Name = 
REMARK  10 active torsions:
REMARK  status: ('A' for Active; 'I' for Inactive)
REMARK    1  A    between atoms: C_1  and  O_2
REMARK    2  A    between atoms: O_2  and  C_3
REMARK    3  A    between atoms: C_3  and  C_5
REMARK    4  A    between atoms: C_5  and  O_6
REMARK    5  A    between atoms: O_6  and  C_7
REMARK    6  A    between atoms: C_11  and  C_12
REMARK    7  A    between atoms: C_12  and  C_13
REMARK    8  A    between atoms: C_13  and  C_14
REMARK    9  A    between atoms: C_13  and  C_15
REMARK   10  A    between atoms: C_13  and  C_16
REMARK                            x       y       z     vdW  Elec       q    Type
REMARK                         _______ _______ _______ _____ _____    ______ ____
ROOT
ATOM      1  C   UNL     1      44.855   2.834   9.784  0.00  0.00    +0.000 A 
ATOM      2  C   UNL     1      43.767   2.625  10.618  0.00  0.00    +0.000 A 
ATOM      3  C   UNL     1      43.442   3.620  11.516  0.00  0.00    +0.000 A 
ATOM      4  N   UNL     1      44.127   4.779  11.624  0.00  0.00    +0.000 NA
ATOM      5  C   UNL     1      45.180   4.977  10.803  0.00  0.00    +0.000 A 
ATOM      6  C   UNL     1      45.593   4.007   9.896  0.00  0.00    +0.000 A 
ENDROOT
BRANCH   1   7
ATOM      7  O   UNL     1      45.129   1.829   8.898  0.00  0.00    +0.000 OA
BRANCH   7   8
ATOM      8  C   UNL     1      46.148   2.133   7.950  0.00  0.00    +0.000 C 
BRANCH   8   9
ATOM      9  C   UNL     1      46.938   0.887   7.601  0.00  0.00    +0.000 C 
ATOM     10  O   UNL     1      46.634  -0.259   7.886  0.00  0.00    +0.000 OA
BRANCH   9  12
ATOM     11  C   UNL     1      47.849   2.384   6.066  0.00  0.00    +0.000 C 
ATOM     12  O   UNL     1      48.052   1.247   6.902  0.00  0.00    +0.000 OA
ENDBRANCH   9  12
ENDBRANCH   8   9
ENDBRANCH   7   8
ENDBRANCH   1   7
BRANCH   5  13
ATOM     13  C   UNL     1      45.992   6.246  10.933  0.00  0.00    +0.000 C 
BRANCH  13  14
ATOM     14  C   UNL     1      46.413   6.711  12.364  0.00  0.00    +0.000 C 
ATOM     15  C   UNL     1      45.351   7.709  12.893  0.00  0.00    +0.000 C 
ATOM     16  C   UNL     1      46.372   5.453  13.271  0.00  0.00    +0.000 C 
BRANCH  14  17
ATOM     17  C   UNL     1      47.850   7.256  12.483  0.00  0.00    +0.000 A 
ATOM     18  C   UNL     1      48.525   7.240  13.719  0.00  0.00    +0.000 A 
ATOM     19  C   UNL     1      49.854   7.649  13.833  0.00  0.00    +0.000 A 
ATOM     20  C   UNL     1      50.548   8.078  12.709  0.00  0.00    +0.000 A 
ATOM     21  C   UNL     1      49.909   8.100  11.473  0.00  0.00    +0.000 A 
ATOM     22  C   UNL     1      48.576   7.692  11.360  0.00  0.00    +0.000 A 
ENDBRANCH  14  17
ENDBRANCH  13  14
ENDBRANCH   5  13
TORSDOF 7
ENDMDL
MODEL 3
REMARK VINA RESULT:    -6.355      4.258      6.969
REMARK INTER + INTRA:          -9.488
REMARK INTER:                  -8.726
REMARK INTRA:                  -0.762
REMARK UNBOUND:                -0.532
REMARK  Name = 
REMARK  10 active torsions:
REMARK  status: ('A' for Active; 'I' for Inactive)
REMARK    1  A    between atoms: C_1  and  O_2
REMARK    2  A    between atoms: O_2  and  C_3
REMARK    3  A    between atoms: C_3  and  C_5
REMARK    4  A    between atoms: C_5  and  O_6
REMARK    5  A    between atoms: O_6  and  C_7
REMARK    6  A    between atoms: C_11  and  C_12
REMARK    7  A    between atoms: C_12  and  C_13
REMARK    8  A    between atoms: C_13  and  C_14
REMARK    9  A    between atoms: C_13  and  C_15
REMARK   10  A    between atoms: C_13  and  C_16
REMARK                            x       y       z     vdW  Elec       q    Type
REMARK                         _______ _______ _______ _____ _____    ______ ____
ROOT
ATOM      1  C   UNL     1      44.182   4.685  10.643  0.00  0.00    +0.000 A 
ATOM      2  C   UNL     1      43.077   4.623  11.480  0.00  0.00    +0.000 A 
ATOM      3  C   UNL     1      43.197   5.157  12.746  0.00  0.00    +0.000 A 
ATOM      4  N   UNL     1      44.328   5.731  13.209  0.00  0.00    +0.000 NA
ATOM      5  C   UNL     1      45.396   5.793  12.385  0.00  0.00    +0.000 A 
ATOM      6  C   UNL     1      45.367   5.246  11.108  0.00  0.00    +0.000 A 
ENDROOT
BRANCH   1   7
ATOM      7  O   UNL     1      44.012   4.160   9.392  0.00  0.00    +0.000 OA
BRANCH   7   8
ATOM      8  C   UNL     1      44.650   2.904   9.182  0.00  0.00    +0.000 C 
BRANCH   8   9
ATOM      9  C   UNL     1      45.732   3.027   8.128  0.00  0.00    +0.000 C 
ATOM     10  O   UNL     1      45.998   4.029   7.485  0.00  0.00    +0.000 OA
BRANCH   9  12
ATOM     11  C   UNL     1      47.331   1.811   6.950  0.00  0.00    +0.000 C 
ATOM     12  O   UNL     1      46.380   1.833   8.012  0.00  0.00    +0.000 OA
ENDBRANCH   9  12
ENDBRANCH   8   9
ENDBRANCH   7   8
ENDBRANCH   1   7
BRANCH   5  13
ATOM     13  C   UNL     1      46.689   6.389  12.894  0.00  0.00    +0.000 C 
BRANCH  13  14
ATOM     14  C   UNL     1      46.927   7.921  12.697  0.00  0.00    +0.000 C 
ATOM     15  C   UNL     1      45.712   8.517  11.940  0.00  0.00    +0.000 C 
ATOM     16  C   UNL     1      46.956   8.551  14.114  0.00  0.00    +0.000 C 
BRANCH  14  17
ATOM     17  C   UNL     1      48.274   8.300  12.050  0.00  0.00    +0.000 A 
ATOM     18  C   UNL     1      48.611   9.650  11.832  0.00  0.00    +0.000 A 
ATOM     19  C   UNL     1      49.857  10.021  11.327  0.00  0.00    +0.000 A 
ATOM     20  C   UNL     1      50.806   9.049  11.035  0.00  0.00    +0.000 A 
ATOM     21  C   UNL     1      50.503   7.707  11.245  0.00  0.00    +0.000 A 
ATOM     22  C   UNL     1      49.252   7.337  11.749  0.00  0.00    +0.000 A 
ENDBRANCH  14  17
ENDBRANCH  13  14
ENDBRANCH   5  13
TORSDOF 7
ENDMDL
MODEL 4
REMARK VINA RESULT:    -6.328      1.937      2.833
REMARK INTER + INTRA:          -9.450
REMARK INTER:                  -9.560
REMARK INTRA:                   0.110
REMARK UNBOUND:                -0.532
REMARK  Name = 
REMARK  10 active torsions:
REMARK  status: ('A' for Active; 'I' for Inactive)
REMARK    1  A    between atoms: C_1  and  O_2
REMARK    2  A    between atoms: O_2  and  C_3
REMARK    3  A    between atoms: C_3  and  C_5
REMARK    4  A    between atoms: C_5  and  O_6
REMARK    5  A    between atoms: O_6  and  C_7
REMARK    6  A    between atoms: C_11  and  C_12
REMARK    7  A    between atoms: C_12  and  C_13
REMARK    8  A    between atoms: C_13  and  C_14
REMARK    9  A    between atoms: C_13  and  C_15
REMARK   10  A    between atoms: C_13  and  C_16
REMARK                            x       y       z     vdW  Elec       q    Type
REMARK                         _______ _______ _______ _____ _____    ______ ____
ROOT
ATOM      1  C   UNL     1      47.741   5.861  13.942  0.00  0.00    +0.000 A 
ATOM      2  C   UNL     1      48.682   6.668  13.320  0.00  0.00    +0.000 A 
ATOM      3  C   UNL     1      48.358   7.208  12.093  0.00  0.00    +0.000 A 
ATOM      4  N   UNL     1      47.180   6.991  11.470  0.00  0.00    +0.000 NA
ATOM      5  C   UNL     1      46.267   6.211  12.087  0.00  0.00    +0.000 A 
ATOM      6  C   UNL     1      46.531   5.600  13.307  0.00  0.00    +0.000 A 
ENDROOT
BRANCH   1   7
ATOM      7  O   UNL     1      48.097   5.362  15.164  0.00  0.00    +0.000 OA
BRANCH   7   8
ATOM      8  C   UNL     1      47.198   4.394  15.697  0.00  0.00    +0.000 C 
BRANCH   8   9
ATOM      9  C   UNL     1      47.961   3.280  16.383  0.00  0.00    +0.000 C 
ATOM     10  O   UNL     1      48.714   2.486  15.844  0.00  0.00    +0.000 OA
BRANCH   9  12
ATOM     11  C   UNL     1      47.576   4.625  18.246  0.00  0.00    +0.000 C 
ATOM     12  O   UNL     1      47.683   3.304  17.718  0.00  0.00    +0.000 OA
ENDBRANCH   9  12
ENDBRANCH   8   9
ENDBRANCH   7   8
ENDBRANCH   1   7
BRANCH   5  13
ATOM     13  C   UNL     1      44.957   5.914  11.392  0.00  0.00    +0.000 C 
BRANCH  13  14
ATOM     14  C   UNL     1      44.575   4.420  11.139  0.00  0.00    +0.000 C 
ATOM     15  C   UNL     1      44.987   3.587  12.380  0.00  0.00    +0.000 C 
ATOM     16  C   UNL     1      43.029   4.369  11.028  0.00  0.00    +0.000 C 
BRANCH  14  17
ATOM     17  C   UNL     1      45.102   3.820   9.820  0.00  0.00    +0.000 A 
ATOM     18  C   UNL     1      45.667   4.646   8.829  0.00  0.00    +0.000 A 
ATOM     19  C   UNL     1      46.226   4.118   7.666  0.00  0.00    +0.000 A 
ATOM     20  C   UNL     1      46.244   2.743   7.466  0.00  0.00    +0.000 A 
ATOM     21  C   UNL     1      45.698   1.900   8.430  0.00  0.00    +0.000 A 
ATOM     22  C   UNL     1      45.135   2.433   9.595  0.00  0.00    +0.000 A 
ENDBRANCH  14  17
ENDBRANCH  13  14
ENDBRANCH   5  13
TORSDOF 7
ENDMDL
MODEL 5
REMARK VINA RESULT:    -6.148      1.625      2.439
REMARK INTER + INTRA:          -9.197
REMARK INTER:                  -8.472
REMARK INTRA:                  -0.725
REMARK UNBOUND:                -0.532
REMARK  Name = 
REMARK  10 active torsions:
REMARK  status: ('A' for Active; 'I' for Inactive)
REMARK    1  A    between atoms: C_1  and  O_2
REMARK    2  A    between atoms: O_2  and  C_3
REMARK    3  A    between atoms: C_3  and  C_5
REMARK    4  A    between atoms: C_5  and  O_6
REMARK    5  A    between atoms: O_6  and  C_7
REMARK    6  A    between atoms: C_11  and  C_12
REMARK    7  A    between atoms: C_12  and  C_13
REMARK    8  A    between atoms: C_13  and  C_14
REMARK    9  A    between atoms: C_13  and  C_15
REMARK   10  A    between atoms: C_13  and  C_16
REMARK                            x       y       z     vdW  Elec       q    Type
REMARK                         _______ _______ _______ _____ _____    ______ ____
ROOT
ATOM      1  C   UNL     1      44.910   4.460  13.153  0.00  0.00    +0.000 A 
ATOM      2  C   UNL     1      43.691   5.110  13.276  0.00  0.00    +0.000 A 
ATOM      3  C   UNL     1      42.773   4.957  12.259  0.00  0.00    +0.000 A 
ATOM      4  N   UNL     1      43.000   4.214  11.155  0.00  0.00    +0.000 NA
ATOM      5  C   UNL     1      44.186   3.579  11.047  0.00  0.00    +0.000 A 
ATOM      6  C   UNL     1      45.177   3.711  12.012  0.00  0.00    +0.000 A 
ENDROOT
BRANCH   1   7
ATOM      7  O   UNL     1      45.781   4.624  14.193  0.00  0.00    +0.000 OA
BRANCH   7   8
ATOM      8  C   UNL     1      47.154   4.676  13.817  0.00  0.00    +0.000 C 
BRANCH   8   9
ATOM      9  C   UNL     1      47.765   6.004  14.215  0.00  0.00    +0.000 C 
ATOM     10  O   UNL     1      48.606   6.177  15.081  0.00  0.00    +0.000 OA
BRANCH   9  12
ATOM     11  C   UNL     1      47.507   6.829  12.052  0.00  0.00    +0.000 C 
ATOM     12  O   UNL     1      47.230   6.991  13.441  0.00  0.00    +0.000 OA
ENDBRANCH   9  12
ENDBRANCH   8   9
ENDBRANCH   7   8
ENDBRANCH   1   7
BRANCH   5  13
ATOM     13  C   UNL     1      44.485   2.777   9.800  0.00  0.00    +0.000 C 
BRANCH  13  14
ATOM     14  C   UNL     1      44.980   3.540   8.530  0.00  0.00    +0.000 C 
ATOM     15  C   UNL     1      43.746   3.932   7.676  0.00  0.00    +0.000 C 
ATOM     16  C   UNL     1      45.644   4.849   9.029  0.00  0.00    +0.000 C 
BRANCH  14  17
ATOM     17  C   UNL     1      46.064   2.816   7.708  0.00  0.00    +0.000 A 
ATOM     18  C   UNL     1      46.436   1.492   8.015  0.00  0.00    +0.000 A 
ATOM     19  C   UNL     1      47.352   0.788   7.234  0.00  0.00    +0.000 A 
ATOM     20  C   UNL     1      47.917   1.388   6.115  0.00  0.00    +0.000 A 
ATOM     21  C   UNL     1      47.566   2.694   5.783  0.00  0.00    +0.000 A 
ATOM     22  C   UNL     1      46.648   3.399   6.569  0.00  0.00    +0.000 A 
ENDBRANCH  14  17
ENDBRANCH  13  14
ENDBRANCH   5  13
TORSDOF 7
ENDMDL
MODEL 6
REMARK VINA RESULT:    -6.021      3.612      7.741
REMARK INTER + INTRA:          -9.017
REMARK INTER:                  -8.226
REMARK INTRA:                  -0.791
REMARK UNBOUND:                -0.532
REMARK  Name = 
REMARK  10 active torsions:
REMARK  status: ('A' for Active; 'I' for Inactive)
REMARK    1  A    between atoms: C_1  and  O_2
REMARK    2  A    between atoms: O_2  and  C_3
REMARK    3  A    between atoms: C_3  and  C_5
REMARK    4  A    between atoms: C_5  and  O_6
REMARK    5  A    between atoms: O_6  and  C_7
REMARK    6  A    between atoms: C_11  and  C_12
REMARK    7  A    between atoms: C_12  and  C_13
REMARK    8  A    between atoms: C_13  and  C_14
REMARK    9  A    between atoms: C_13  and  C_15
REMARK   10  A    between atoms: C_13  and  C_16
REMARK                            x       y       z     vdW  Elec       q    Type
REMARK                         _______ _______ _______ _____ _____    ______ ____
ROOT
ATOM      1  C   UNL     1      44.668   4.608  10.678  0.00  0.00    +0.000 A 
ATOM      2  C   UNL     1      44.892   3.607  11.613  0.00  0.00    +0.000 A 
ATOM      3  C   UNL     1      45.378   3.977  12.849  0.00  0.00    +0.000 A 
ATOM      4  N   UNL     1      45.647   5.254  13.193  0.00  0.00    +0.000 NA
ATOM      5  C   UNL     1      45.418   6.222  12.280  0.00  0.00    +0.000 A 
ATOM      6  C   UNL     1      44.964   5.928  11.000  0.00  0.00    +0.000 A 
ENDROOT
BRANCH   1   7
ATOM      7  O   UNL     1      44.169   4.198   9.473  0.00  0.00    +0.000 OA
BRANCH   7   8
ATOM      8  C   UNL     1      44.611   2.910   9.053  0.00  0.00    +0.000 C 
BRANCH   8   9
ATOM      9  C   UNL     1      45.759   3.037   8.073  0.00  0.00    +0.000 C 
ATOM     10  O   UNL     1      46.033   4.023   7.411  0.00  0.00    +0.000 OA
BRANCH   9  12
ATOM     11  C   UNL     1      47.400   1.794   6.982  0.00  0.00    +0.000 C 
ATOM     12  O   UNL     1      46.457   1.865   8.049  0.00  0.00    +0.000 OA
ENDBRANCH   9  12
ENDBRANCH   8   9
ENDBRANCH   7   8
ENDBRANCH   1   7
BRANCH   5  13
ATOM     13  C   UNL     1      45.754   7.657  12.622  0.00  0.00    +0.000 C 
BRANCH  13  14
ATOM     14  C   UNL     1      47.260   8.065  12.706  0.00  0.00    +0.000 C 
ATOM     15  C   UNL     1      48.050   7.264  11.639  0.00  0.00    +0.000 C 
ATOM     16  C   UNL     1      47.335   9.566  12.323  0.00  0.00    +0.000 C 
BRANCH  14  17
ATOM     17  C   UNL     1      47.891   7.967  14.109  0.00  0.00    +0.000 A 
ATOM     18  C   UNL     1      48.524   6.782  14.532  0.00  0.00    +0.000 A 
ATOM     19  C   UNL     1      49.176   6.698  15.763  0.00  0.00    +0.000 A 
ATOM     20  C   UNL     1      49.220   7.805  16.602  0.00  0.00    +0.000 A 
ATOM     21  C   UNL     1      48.607   8.991  16.210  0.00  0.00    +0.000 A 
ATOM     22  C   UNL     1      47.952   9.073  14.976  0.00  0.00    +0.000 A 
ENDBRANCH  14  17
ENDBRANCH  13  14
ENDBRANCH   5  13
TORSDOF 7
ENDMDL
MODEL 7
REMARK VINA RESULT:    -6.000      2.533      3.965
REMARK INTER + INTRA:          -8.987
REMARK INTER:                  -8.211
REMARK INTRA:                  -0.776
REMARK UNBOUND:                -0.532
REMARK  Name = 
REMARK  10 active torsions:
REMARK  status: ('A' for Active; 'I' for Inactive)
REMARK    1  A    between atoms: C_1  and  O_2
REMARK    2  A    between atoms: O_2  and  C_3
REMARK    3  A    between atoms: C_3  and  C_5
REMARK    4  A    between atoms: C_5  and  O_6
REMARK    5  A    between atoms: O_6  and  C_7
REMARK    6  A    between atoms: C_11  and  C_12
REMARK    7  A    between atoms: C_12  and  C_13
REMARK    8  A    between atoms: C_13  and  C_14
REMARK    9  A    between atoms: C_13  and  C_15
REMARK   10  A    between atoms: C_13  and  C_16
REMARK                            x       y       z     vdW  Elec       q    Type
REMARK                         _______ _______ _______ _____ _____    ______ ____
ROOT
ATOM      1  C   UNL     1      49.029   7.146  14.556  0.00  0.00    +0.000 A 
ATOM      2  C   UNL     1      48.536   8.362  15.005  0.00  0.00    +0.000 A 
ATOM      3  C   UNL     1      47.498   8.936  14.302  0.00  0.00    +0.000 A 
ATOM      4  N   UNL     1      46.942   8.379  13.206  0.00  0.00    +0.000 NA
ATOM      5  C   UNL     1      47.422   7.191  12.781  0.00  0.00    +0.000 A 
ATOM      6  C   UNL     1      48.490   6.565  13.413  0.00  0.00    +0.000 A 
ENDROOT
BRANCH   1   7
ATOM      7  O   UNL     1      50.045   6.605  15.294  0.00  0.00    +0.000 OA
BRANCH   7   8
ATOM      8  C   UNL     1      49.766   6.472  16.684  0.00  0.00    +0.000 C 
BRANCH   8   9
ATOM      9  C   UNL     1      49.217   5.093  16.987  0.00  0.00    +0.000 C 
ATOM     10  O   UNL     1      49.844   4.047  16.955  0.00  0.00    +0.000 OA
BRANCH   9  12
ATOM     11  C   UNL     1      47.135   4.048  16.958  0.00  0.00    +0.000 C 
ATOM     12  O   UNL     1      47.897   5.200  17.313  0.00  0.00    +0.000 OA
ENDBRANCH   9  12
ENDBRANCH   8   9
ENDBRANCH   7   8
ENDBRANCH   1   7
BRANCH   5  13
ATOM     13  C   UNL     1      46.848   6.565  11.529  0.00  0.00    +0.000 C 
BRANCH  13  14
ATOM     14  C   UNL     1      45.481   5.817  11.635  0.00  0.00    +0.000 C 
ATOM     15  C   UNL     1      45.353   5.219  13.060  0.00  0.00    +0.000 C 
ATOM     16  C   UNL     1      44.373   6.890  11.472  0.00  0.00    +0.000 C 
BRANCH  14  17
ATOM     17  C   UNL     1      45.212   4.777  10.529  0.00  0.00    +0.000 A 
ATOM     18  C   UNL     1      45.616   5.018   9.202  0.00  0.00    +0.000 A 
ATOM     19  C   UNL     1      45.460   4.057   8.203  0.00  0.00    +0.000 A 
ATOM     20  C   UNL     1      44.902   2.822   8.507  0.00  0.00    +0.000 A 
ATOM     21  C   UNL     1      44.498   2.552   9.811  0.00  0.00    +0.000 A 
ATOM     22  C   UNL     1      44.653   3.518  10.812  0.00  0.00    +0.000 A 
ENDBRANCH  14  17
ENDBRANCH  13  14
ENDBRANCH   5  13
TORSDOF 7
ENDMDL
MODEL 8
REMARK VINA RESULT:    -5.693      3.221      6.393
REMARK INTER + INTRA:          -8.555
REMARK INTER:                  -7.685
REMARK INTRA:                  -0.870
REMARK UNBOUND:                -0.532
REMARK  Name = 
REMARK  10 active torsions:
REMARK  status: ('A' for Active; 'I' for Inactive)
REMARK    1  A    between atoms: C_1  and  O_2
REMARK    2  A    between atoms: O_2  and  C_3
REMARK    3  A    between atoms: C_3  and  C_5
REMARK    4  A    between atoms: C_5  and  O_6
REMARK    5  A    between atoms: O_6  and  C_7
REMARK    6  A    between atoms: C_11  and  C_12
REMARK    7  A    between atoms: C_12  and  C_13
REMARK    8  A    between atoms: C_13  and  C_14
REMARK    9  A    between atoms: C_13  and  C_15
REMARK   10  A    between atoms: C_13  and  C_16
REMARK                            x       y       z     vdW  Elec       q    Type
REMARK                         _______ _______ _______ _____ _____    ______ ____
ROOT
ATOM      1  C   UNL     1      46.155   4.638  13.362  0.00  0.00    +0.000 A 
ATOM      2  C   UNL     1      45.452   4.090  12.299  0.00  0.00    +0.000 A 
ATOM      3  C   UNL     1      45.199   4.897  11.210  0.00  0.00    +0.000 A 
ATOM      4  N   UNL     1      45.597   6.184  11.126  0.00  0.00    +0.000 NA
ATOM      5  C   UNL     1      46.287   6.706  12.162  0.00  0.00    +0.000 A 
ATOM      6  C   UNL     1      46.551   5.970  13.311  0.00  0.00    +0.000 A 
ENDROOT
BRANCH   1   7
ATOM      7  O   UNL     1      46.399   3.798  14.412  0.00  0.00    +0.000 OA
BRANCH   7   8
ATOM      8  C   UNL     1      47.195   4.360  15.452  0.00  0.00    +0.000 C 
BRANCH   8   9
ATOM      9  C   UNL     1      47.470   3.328  16.527  0.00  0.00    +0.000 C 
ATOM     10  O   UNL     1      46.713   3.010  17.429  0.00  0.00    +0.000 OA
BRANCH   9  12
ATOM     11  C   UNL     1      49.556   2.895  17.468  0.00  0.00    +0.000 C 
ATOM     12  O   UNL     1      48.708   2.794  16.326  0.00  0.00    +0.000 OA
ENDBRANCH   9  12
ENDBRANCH   8   9
ENDBRANCH   7   8
ENDBRANCH   1   7
BRANCH   5  13
ATOM     13  C   UNL     1      46.706   8.159  12.115  0.00  0.00    +0.000 C 
BRANCH  13  14
ATOM     14  C   UNL     1      48.208   8.505  12.369  0.00  0.00    +0.000 C 
ATOM     15  C   UNL     1      49.077   7.713  11.359  0.00  0.00    +0.000 C 
ATOM     16  C   UNL     1      48.375  10.015  12.055  0.00  0.00    +0.000 C 
BRANCH  14  17
ATOM     17  C   UNL     1      48.685   8.333  13.825  0.00  0.00    +0.000 A 
ATOM     18  C   UNL     1      49.786   7.508  14.128  0.00  0.00    +0.000 A 
ATOM     19  C   UNL     1      50.288   7.404  15.425  0.00  0.00    +0.000 A 
ATOM     20  C   UNL     1      49.707   8.133  16.456  0.00  0.00    +0.000 A 
ATOM     21  C   UNL     1      48.622   8.961  16.186  0.00  0.00    +0.000 A 
ATOM     22  C   UNL     1      48.118   9.062  14.885  0.00  0.00    +0.000 A 
ENDBRANCH  14  17
ENDBRANCH  13  14
ENDBRANCH   5  13
TORSDOF 7
ENDMDL
MODEL 9
REMARK VINA RESULT:    -5.649      3.883      7.544
REMARK INTER + INTRA:          -8.493
REMARK INTER:                  -7.587
REMARK INTRA:                  -0.906
REMARK UNBOUND:                -0.532
REMARK  Name = 
REMARK  10 active torsions:
REMARK  status: ('A' for Active; 'I' for Inactive)
REMARK    1  A    between atoms: C_1  and  O_2
REMARK    2  A    between atoms: O_2  and  C_3
REMARK    3  A    between atoms: C_3  and  C_5
REMARK    4  A    between atoms: C_5  and  O_6
REMARK    5  A    between atoms: O_6  and  C_7
REMARK    6  A    between atoms: C_11  and  C_12
REMARK    7  A    between atoms: C_12  and  C_13
REMARK    8  A    between atoms: C_13  and  C_14
REMARK    9  A    between atoms: C_13  and  C_15
REMARK   10  A    between atoms: C_13  and  C_16
REMARK                            x       y       z     vdW  Elec       q    Type
REMARK                         _______ _______ _______ _____ _____    ______ ____
ROOT
ATOM      1  C   UNL     1      45.116   5.395  12.625  0.00  0.00    +0.000 A 
ATOM      2  C   UNL     1      45.651   4.561  13.596  0.00  0.00    +0.000 A 
ATOM      3  C   UNL     1      46.990   4.695  13.895  0.00  0.00    +0.000 A 
ATOM      4  N   UNL     1      47.802   5.589  13.293  0.00  0.00    +0.000 NA
ATOM      5  C   UNL     1      47.272   6.403  12.355  0.00  0.00    +0.000 A 
ATOM      6  C   UNL     1      45.939   6.306  11.972  0.00  0.00    +0.000 A 
ENDROOT
BRANCH   1   7
ATOM      7  O   UNL     1      43.781   5.240  12.375  0.00  0.00    +0.000 OA
BRANCH   7   8
ATOM      8  C   UNL     1      43.468   4.836  11.045  0.00  0.00    +0.000 C 
BRANCH   8   9
ATOM      9  C   UNL     1      43.529   3.327  10.919  0.00  0.00    +0.000 C 
ATOM     10  O   UNL     1      43.001   2.523  11.669  0.00  0.00    +0.000 OA
BRANCH   9  12
ATOM     11  C   UNL     1      44.559   4.119   8.986  0.00  0.00    +0.000 C 
ATOM     12  O   UNL     1      44.266   3.000   9.821  0.00  0.00    +0.000 OA
ENDBRANCH   9  12
ENDBRANCH   8   9
ENDBRANCH   7   8
ENDBRANCH   1   7
BRANCH   5  13
ATOM     13  C   UNL     1      48.169   7.383  11.633  0.00  0.00    +0.000 C 
BRANCH  13  14
ATOM     14  C   UNL     1      48.540   8.718  12.355  0.00  0.00    +0.000 C 
ATOM     15  C   UNL     1      49.540   9.500  11.465  0.00  0.00    +0.000 C 
ATOM     16  C   UNL     1      47.235   9.551  12.445  0.00  0.00    +0.000 C 
BRANCH  14  17
ATOM     17  C   UNL     1      49.032   8.565  13.808  0.00  0.00    +0.000 A 
ATOM     18  C   UNL     1      48.200   8.915  14.889  0.00  0.00    +0.000 A 
ATOM     19  C   UNL     1      48.591   8.707  16.212  0.00  0.00    +0.000 A 
ATOM     20  C   UNL     1      49.826   8.132  16.489  0.00  0.00    +0.000 A 
ATOM     21  C   UNL     1      50.668   7.771  15.441  0.00  0.00    +0.000 A 
ATOM     22  C   UNL     1      50.275   7.983  14.115  0.00  0.00    +0.000 A 
ENDBRANCH  14  17
ENDBRANCH  13  14
ENDBRANCH   5  13
TORSDOF 7
ENDMDL
