MODEL 1
REMARK VINA RESULT:    -6.694      0.000      0.000
REMARK INTER + INTRA:          -8.603
REMARK INTER:                  -8.064
REMARK INTRA:                  -0.539
REMARK UNBOUND:                -0.539
REMARK  Name = 
REMARK  4 active torsions:
REMARK  status: ('A' for Active; 'I' for Inactive)
REMARK    1  A    between atoms: N_1  and  C_2
REMARK    2  A    between atoms: C_2  and  C_3
REMARK    3  A    between atoms: C_6  and  C_7
REMARK    4  A    between atoms: C_7  and  N_8
REMARK                            x       y       z     vdW  Elec       q    Type
REMARK                         _______ _______ _______ _____ _____    ______ ____
ROOT
ATOM      1  C   UNL     1      47.091   2.845   7.230  0.00  0.00    +0.000 C 
ATOM      2  C   UNL     1      46.380   4.099   7.776  0.00  0.00    +0.000 C 
ATOM      3  C   UNL     1      44.883   3.908   8.018  0.00  0.00    +0.000 C 
ATOM      4  C   UNL     1      44.558   2.708   8.924  0.00  0.00    +0.000 C 
ATOM      5  C   UNL     1      45.250   1.441   8.371  0.00  0.00    +0.000 C 
ATOM      6  C   UNL     1      46.741   1.622   8.087  0.00  0.00    +0.000 C 
ENDROOT
BRANCH   1   7
ATOM      7  C   UNL     1      46.898   2.669   5.715  0.00  0.00    +0.000 C 
BRANCH   7   8
ATOM      8  N   UNL     1      48.109   2.470   4.923  0.00  0.00    +0.000 NA
ATOM      9  H   UNL     1      47.946   2.808   3.968  0.00  0.00    +0.000 HD
ATOM     10  H   UNL     1      48.289   1.475   4.814  0.00  0.00    +0.000 HD
ENDBRANCH   7   8
ENDBRANCH   1   7
BRANCH   4  11
ATOM     11  C   UNL     1      44.878   2.960  10.422  0.00  0.00    +0.000 C 
BRANCH  11  12
ATOM     12  N   UNL     1      44.269   4.168  10.982  0.00  0.00    +0.000 N 
ATOM     13  C   UNL     1      42.937   4.336  11.279  0.00  0.00    +0.000 A 
ATOM     14  C   UNL     1      42.730   5.664  11.596  0.00  0.00    +0.000 A 
ATOM     15  C   UNL     1      44.000   6.279  11.659  0.00  0.00    +0.000 A 
ATOM     16  C   UNL     1      44.456   7.563  12.002  0.00  0.00    +0.000 A 
ATOM     17  C   UNL     1      45.831   7.778  12.008  0.00  0.00    +0.000 A 
ATOM     18  C   UNL     1      46.674   6.738  11.639  0.00  0.00    +0.000 A 
ATOM     19  N   UNL     1      46.286   5.498  11.255  0.00  0.00    +0.000 NA
ATOM     20  C   UNL     1      44.951   5.323  11.297  0.00  0.00    +0.000 A 
ENDBRANCH  11  12
ENDBRANCH   4  11
TORSDOF 4
ENDMDL
MODEL 2
REMARK VINA RESULT:    -6.365      1.833      5.883
REMARK INTER + INTRA:          -8.207
REMARK INTER:                  -7.639
REMARK INTRA:                  -0.569
REMARK UNBOUND:                -0.539
REMARK  Name = 
REMARK  4 active torsions:
REMARK  status: ('A' for Active; 'I' for Inactive)
REMARK    1  A    between atoms: N_1  and  C_2
REMARK    2  A    between atoms: C_2  and  C_3
REMARK    3  A    between atoms: C_6  and  C_7
REMARK    4  A    between atoms: C_7  and  N_8
REMARK                            x       y       z     vdW  Elec       q    Type
REMARK                         _______ _______ _______ _____ _____    ______ ____
ROOT
ATOM      1  C   UNL     1      48.056   7.853  12.376  0.00  0.00    +0.000 C 
ATOM      2  C   UNL     1      47.697   6.373  12.137  0.00  0.00    +0.000 C 
ATOM      3  C   UNL     1      46.465   5.901  12.909  0.00  0.00    +0.000 C 
ATOM      4  C   UNL     1      45.218   6.768  12.662  0.00  0.00    +0.000 C 
ATOM      5  C   UNL     1      45.564   8.253  12.919  0.00  0.00    +0.000 C 
ATOM      6  C   UNL     1      46.815   8.736  12.186  0.00  0.00    +0.000 C 
ENDROOT
BRANCH   1   7
ATOM      7  C   UNL     1      48.829   8.069  13.687  0.00  0.00    +0.000 C 
BRANCH   7   8
ATOM      8  N   UNL     1      49.733   6.997  14.094  0.00  0.00    +0.000 NA
ATOM      9  H   UNL     1      49.478   6.136  13.597  0.00  0.00    +0.000 HD
ATOM     10  H   UNL     1      49.587   6.777  15.076  0.00  0.00    +0.000 HD
ENDBRANCH   7   8
ENDBRANCH   1   7
BRANCH   4  11
ATOM     11  C   UNL     1      44.571   6.537  11.270  0.00  0.00    +0.000 C 
BRANCH  11  12
ATOM     12  N   UNL     1      44.312   5.134  10.942  0.00  0.00    +0.000 N 
ATOM     13  C   UNL     1      43.475   4.286  11.629  0.00  0.00    +0.000 A 
ATOM     14  C   UNL     1      43.655   3.009  11.135  0.00  0.00    +0.000 A 
ATOM     15  C   UNL     1      44.496   3.116  10.005  0.00  0.00    +0.000 A 
ATOM     16  C   UNL     1      44.974   2.208   9.045  0.00  0.00    +0.000 A 
ATOM     17  C   UNL     1      45.753   2.715   8.010  0.00  0.00    +0.000 A 
ATOM     18  C   UNL     1      46.051   4.072   7.998  0.00  0.00    +0.000 A 
ATOM     19  N   UNL     1      45.655   4.981   8.921  0.00  0.00    +0.000 NA
ATOM     20  C   UNL     1      44.876   4.454   9.885  0.00  0.00    +0.000 A 
ENDBRANCH  11  12
ENDBRANCH   4  11
TORSDOF 4
ENDMDL
MODEL 3
REMARK VINA RESULT:    -5.916      1.533      5.889
REMARK INTER + INTRA:          -7.665
REMARK INTER:                  -7.132
REMARK INTRA:                  -0.533
REMARK UNBOUND:                -0.539
REMARK  Name = 
REMARK  4 active torsions:
REMARK  status: ('A' for Active; 'I' for Inactive)
REMARK    1  A    between atoms: N_1  and  C_2
REMARK    2  A    between atoms: C_2  and  C_3
REMARK    3  A    between atoms: C_6  and  C_7
REMARK    4  A    between atoms: C_7  and  N_8
REMARK                            x       y       z     vdW  Elec       q    Type
REMARK                         _______ _______ _______ _____ _____    ______ ____
ROOT
ATOM      1  C   UNL     1      45.914   7.298  11.769  0.00  0.00    +0.000 C 
ATOM      2  C   UNL     1      46.469   5.922  11.351  0.00  0.00    +0.000 C 
ATOM      3  C   UNL     1      45.528   4.756  11.651  0.00  0.00    +0.000 C 
ATOM      4  C   UNL     1      44.122   4.935  11.054  0.00  0.00    +0.000 C 
ATOM      5  C   UNL     1      43.549   6.305  11.485  0.00  0.00    +0.000 C 
ATOM      6  C   UNL     1      44.490   7.481  11.228  0.00  0.00    +0.000 C 
ENDROOT
BRANCH   1   7
ATOM      7  C   UNL     1      46.094   7.576  13.271  0.00  0.00    +0.000 C 
BRANCH   7   8
ATOM      8  N   UNL     1      47.195   6.884  13.934  0.00  0.00    +0.000 NA
ATOM      9  H   UNL     1      46.820   6.099  14.477  0.00  0.00    +0.000 HD
ATOM     10  H   UNL     1      47.619   7.495  14.627  0.00  0.00    +0.000 HD
ENDBRANCH   7   8
ENDBRANCH   1   7
BRANCH   4  11
ATOM     11  C   UNL     1      44.072   4.723   9.517  0.00  0.00    +0.000 C 
BRANCH  11  12
ATOM     12  N   UNL     1      44.628   3.450   9.057  0.00  0.00    +0.000 N 
ATOM     13  C   UNL     1      44.191   2.198   9.426  0.00  0.00    +0.000 A 
ATOM     14  C   UNL     1      45.090   1.268   8.943  0.00  0.00    +0.000 A 
ATOM     15  C   UNL     1      46.001   1.961   8.115  0.00  0.00    +0.000 A 
ATOM     16  C   UNL     1      47.074   1.576   7.294  0.00  0.00    +0.000 A 
ATOM     17  C   UNL     1      47.713   2.570   6.560  0.00  0.00    +0.000 A 
ATOM     18  C   UNL     1      47.291   3.885   6.703  0.00  0.00    +0.000 A 
ATOM     19  N   UNL     1      46.295   4.317   7.514  0.00  0.00    +0.000 NA
ATOM     20  C   UNL     1      45.682   3.319   8.179  0.00  0.00    +0.000 A 
ENDBRANCH  11  12
ENDBRANCH   4  11
TORSDOF 4
ENDMDL
MODEL 4
REMARK VINA RESULT:    -5.481      5.064      8.032
REMARK INTER + INTRA:          -7.142
REMARK INTER:                  -6.951
REMARK INTRA:                  -0.191
REMARK UNBOUND:                -0.539
REMARK  Name = 
REMARK  4 active torsions:
REMARK  status: ('A' for Active; 'I' for Inactive)
REMARK    1  A    between atoms: N_1  and  C_2
REMARK    2  A    between atoms: C_2  and  C_3
REMARK    3  A    between atoms: C_6  and  C_7
REMARK    4  A    between atoms: C_7  and  N_8
REMARK                            x       y       z     vdW  Elec       q    Type
REMARK                         _______ _______ _______ _____ _____    ______ ____
ROOT
ATOM      1  C   UNL     1      49.513   4.017  18.080  0.00  0.00    +0.000 C 
ATOM      2  C   UNL     1      48.555   2.872  17.697  0.00  0.00    +0.000 C 
ATOM      3  C   UNL     1      47.154   3.340  17.307  0.00  0.00    +0.000 C 
ATOM      4  C   UNL     1      47.150   4.397  16.188  0.00  0.00    +0.000 C 
ATOM      5  C   UNL     1      48.094   5.559  16.574  0.00  0.00    +0.000 C 
ATOM      6  C   UNL     1      49.490   5.110  17.003  0.00  0.00    +0.000 C 
ENDROOT
BRANCH   1   7
ATOM      7  C   UNL     1      49.305   4.504  19.524  0.00  0.00    +0.000 C 
BRANCH   7   8
ATOM      8  N   UNL     1      48.510   3.641  20.393  0.00  0.00    +0.000 NA
ATOM      9  H   UNL     1      48.236   2.801  19.873  0.00  0.00    +0.000 HD
ATOM     10  H   UNL     1      47.631   4.098  20.622  0.00  0.00    +0.000 HD
ENDBRANCH   7   8
ENDBRANCH   1   7
BRANCH   4  11
ATOM     11  C   UNL     1      47.464   3.811  14.785  0.00  0.00    +0.000 C 
BRANCH  11  12
ATOM     12  N   UNL     1      46.987   4.621  13.664  0.00  0.00    +0.000 N 
ATOM     13  C   UNL     1      47.539   5.805  13.231  0.00  0.00    +0.000 A 
ATOM     14  C   UNL     1      46.693   6.356  12.290  0.00  0.00    +0.000 A 
ATOM     15  C   UNL     1      45.690   5.398  12.021  0.00  0.00    +0.000 A 
ATOM     16  C   UNL     1      44.611   5.329  11.123  0.00  0.00    +0.000 A 
ATOM     17  C   UNL     1      43.860   4.158  11.107  0.00  0.00    +0.000 A 
ATOM     18  C   UNL     1      44.185   3.142  11.997  0.00  0.00    +0.000 A 
ATOM     19  N   UNL     1      45.183   3.175  12.912  0.00  0.00    +0.000 NA
ATOM     20  C   UNL     1      45.905   4.311  12.870  0.00  0.00    +0.000 A 
ENDBRANCH  11  12
ENDBRANCH   4  11
TORSDOF 4
ENDMDL
MODEL 5
REMARK VINA RESULT:    -5.265      3.539      5.867
REMARK INTER + INTRA:          -6.882
REMARK INTER:                  -6.466
REMARK INTRA:                  -0.416
REMARK UNBOUND:                -0.539
REMARK  Name = 
REMARK  4 active torsions:
REMARK  status: ('A' for Active; 'I' for Inactive)
REMARK    1  A    between atoms: N_1  and  C_2
REMARK    2  A    between atoms: C_2  and  C_3
REMARK    3  A    between atoms: C_6  and  C_7
REMARK    4  A    between atoms: C_7  and  N_8
REMARK                            x       y       z     vdW  Elec       q    Type
REMARK                         _______ _______ _______ _____ _____    ______ ____
ROOT
ATOM      1  C   UNL     1      44.963   3.680  11.133  0.00  0.00    +0.000 C 
ATOM      2  C   UNL     1      45.311   5.038  10.491  0.00  0.00    +0.000 C 
ATOM      3  C   UNL     1      45.045   6.239  11.397  0.00  0.00    +0.000 C 
ATOM      4  C   UNL     1      45.735   6.138  12.768  0.00  0.00    +0.000 C 
ATOM      5  C   UNL     1      45.374   4.788  13.428  0.00  0.00    +0.000 C 
ATOM      6  C   UNL     1      45.598   3.575  12.526  0.00  0.00    +0.000 C 
ENDROOT
BRANCH   1   7
ATOM      7  C   UNL     1      43.460   3.363  11.064  0.00  0.00    +0.000 C 
BRANCH   7   8
ATOM      8  N   UNL     1      43.022   2.139  11.731  0.00  0.00    +0.000 NA
ATOM      9  H   UNL     1      42.003   2.057  11.647  0.00  0.00    +0.000 HD
ATOM     10  H   UNL     1      43.191   2.212  12.731  0.00  0.00    +0.000 HD
ENDBRANCH   7   8
ENDBRANCH   1   7
BRANCH   4  11
ATOM     11  C   UNL     1      47.266   6.384  12.708  0.00  0.00    +0.000 C 
BRANCH  11  12
ATOM     12  N   UNL     1      47.783   7.277  13.746  0.00  0.00    +0.000 N 
ATOM     13  C   UNL     1      47.824   8.651  13.681  0.00  0.00    +0.000 A 
ATOM     14  C   UNL     1      48.557   9.111  14.756  0.00  0.00    +0.000 A 
ATOM     15  C   UNL     1      48.823   7.999  15.586  0.00  0.00    +0.000 A 
ATOM     16  C   UNL     1      49.443   7.829  16.835  0.00  0.00    +0.000 A 
ATOM     17  C   UNL     1      49.457   6.547  17.378  0.00  0.00    +0.000 A 
ATOM     18  C   UNL     1      48.900   5.504  16.649  0.00  0.00    +0.000 A 
ATOM     19  N   UNL     1      48.333   5.605  15.423  0.00  0.00    +0.000 NA
ATOM     20  C   UNL     1      48.310   6.866  14.951  0.00  0.00    +0.000 A 
ENDBRANCH  11  12
ENDBRANCH   4  11
TORSDOF 4
ENDMDL
MODEL 6
REMARK VINA RESULT:    -5.238      3.638      5.509
REMARK INTER + INTRA:          -6.849
REMARK INTER:                  -6.489
REMARK INTRA:                  -0.360
REMARK UNBOUND:                -0.539
REMARK  Name = 
REMARK  4 active torsions:
REMARK  status: ('A' for Active; 'I' for Inactive)
REMARK    1  A    between atoms: N_1  and  C_2
REMARK    2  A    between atoms: C_2  and  C_3
REMARK    3  A    between atoms: C_6  and  C_7
REMARK    4  A    between atoms: C_7  and  N_8
REMARK                            x       y       z     vdW  Elec       q    Type
REMARK                         _______ _______ _______ _____ _____    ______ ____
ROOT
ATOM      1  C   UNL     1      43.983   3.923  12.432  0.00  0.00    +0.000 C 
ATOM      2  C   UNL     1      45.452   4.366  12.283  0.00  0.00    +0.000 C 
ATOM      3  C   UNL     1      45.664   5.476  11.254  0.00  0.00    +0.000 C 
ATOM      4  C   UNL     1      44.786   6.715  11.499  0.00  0.00    +0.000 C 
ATOM      5  C   UNL     1      43.308   6.281  11.628  0.00  0.00    +0.000 C 
ATOM      6  C   UNL     1      43.078   5.147  12.626  0.00  0.00    +0.000 C 
ENDROOT
BRANCH   1   7
ATOM      7  C   UNL     1      43.547   2.944  11.329  0.00  0.00    +0.000 C 
BRANCH   7   8
ATOM      8  N   UNL     1      43.068   1.638  11.771  0.00  0.00    +0.000 NA
ATOM      9  H   UNL     1      43.685   0.909  11.395  0.00  0.00    +0.000 HD
ATOM     10  H   UNL     1      42.161   1.444  11.355  0.00  0.00    +0.000 HD
ENDBRANCH   7   8
ENDBRANCH   1   7
BRANCH   4  11
ATOM     11  C   UNL     1      45.262   7.583  12.694  0.00  0.00    +0.000 C 
BRANCH  11  12
ATOM     12  N   UNL     1      46.215   8.637  12.343  0.00  0.00    +0.000 N 
ATOM     13  C   UNL     1      45.904   9.951  12.081  0.00  0.00    +0.000 A 
ATOM     14  C   UNL     1      47.038  10.574  11.599  0.00  0.00    +0.000 A 
ATOM     15  C   UNL     1      48.105   9.658  11.733  0.00  0.00    +0.000 A 
ATOM     16  C   UNL     1      49.489   9.719  11.500  0.00  0.00    +0.000 A 
ATOM     17  C   UNL     1      50.247   8.597  11.824  0.00  0.00    +0.000 A 
ATOM     18  C   UNL     1      49.601   7.472  12.317  0.00  0.00    +0.000 A 
ATOM     19  N   UNL     1      48.267   7.343  12.517  0.00  0.00    +0.000 NA
ATOM     20  C   UNL     1      47.577   8.462  12.224  0.00  0.00    +0.000 A 
ENDBRANCH  11  12
ENDBRANCH   4  11
TORSDOF 4
ENDMDL
MODEL 7
REMARK VINA RESULT:    -5.219      2.548      6.321
REMARK INTER + INTRA:          -6.826
REMARK INTER:                  -6.433
REMARK INTRA:                  -0.393
REMARK UNBOUND:                -0.539
REMARK  Name = 
REMARK  4 active torsions:
REMARK  status: ('A' for Active; 'I' for Inactive)
REMARK    1  A    between atoms: N_1  and  C_2
REMARK    2  A    between atoms: C_2  and  C_3
REMARK    3  A    between atoms: C_6  and  C_7
REMARK    4  A    between atoms: C_7  and  N_8
REMARK                            x       y       z     vdW  Elec       q    Type
REMARK                         _______ _______ _______ _____ _____    ______ ____
ROOT
ATOM      1  C   UNL     1      49.207   9.196  12.022  0.00  0.00    +0.000 C 
ATOM      2  C   UNL     1      49.319   7.718  11.600  0.00  0.00    +0.000 C 
ATOM      3  C   UNL     1      48.577   6.752  12.523  0.00  0.00    +0.000 C 
ATOM      4  C   UNL     1      47.093   7.109  12.719  0.00  0.00    +0.000 C 
ATOM      5  C   UNL     1      46.973   8.586  13.161  0.00  0.00    +0.000 C 
ATOM      6  C   UNL     1      47.739   9.565  12.273  0.00  0.00    +0.000 C 
ENDROOT
BRANCH   1   7
ATOM      7  C   UNL     1      50.186   9.566  13.148  0.00  0.00    +0.000 C 
BRANCH   7   8
ATOM      8  N   UNL     1      51.510   8.954  13.086  0.00  0.00    +0.000 NA
ATOM      9  H   UNL     1      51.716   8.696  12.114  0.00  0.00    +0.000 HD
ATOM     10  H   UNL     1      51.506   8.070  13.589  0.00  0.00    +0.000 HD
ENDBRANCH   7   8
ENDBRANCH   1   7
BRANCH   4  11
ATOM     11  C   UNL     1      46.211   6.780  11.485  0.00  0.00    +0.000 C 
BRANCH  11  12
ATOM     12  N   UNL     1      45.532   5.486  11.547  0.00  0.00    +0.000 N 
ATOM     13  C   UNL     1      45.039   4.886  12.682  0.00  0.00    +0.000 A 
ATOM     14  C   UNL     1      44.655   3.600  12.359  0.00  0.00    +0.000 A 
ATOM     15  C   UNL     1      44.761   3.475  10.956  0.00  0.00    +0.000 A 
ATOM     16  C   UNL     1      44.450   2.462  10.033  0.00  0.00    +0.000 A 
ATOM     17  C   UNL     1      44.639   2.742   8.683  0.00  0.00    +0.000 A 
ATOM     18  C   UNL     1      45.158   3.978   8.320  0.00  0.00    +0.000 A 
ATOM     19  N   UNL     1      45.518   4.970   9.170  0.00  0.00    +0.000 NA
ATOM     20  C   UNL     1      45.286   4.671  10.463  0.00  0.00    +0.000 A 
ENDBRANCH  11  12
ENDBRANCH   4  11
TORSDOF 4
ENDMDL
MODEL 8
REMARK VINA RESULT:    -4.978      2.820      6.307
REMARK INTER + INTRA:          -6.536
REMARK INTER:                  -6.169
REMARK INTRA:                  -0.367
REMARK UNBOUND:                -0.539
REMARK  Name = 
REMARK  4 active torsions:
REMARK  status: ('A' for Active; 'I' for Inactive)
REMARK    1  A    between atoms: N_1  and  C_2
REMARK    2  A    between atoms: C_2  and  C_3
REMARK    3  A    between atoms: C_6  and  C_7
REMARK    4  A    between atoms: C_7  and  N_8
REMARK                            x       y       z     vdW  Elec       q    Type
REMARK                         _______ _______ _______ _____ _____    ______ ____
ROOT
ATOM      1  C   UNL     1      49.298   8.620  12.548  0.00  0.00    +0.000 C 
ATOM      2  C   UNL     1      48.911   7.238  11.986  0.00  0.00    +0.000 C 
ATOM      3  C   UNL     1      47.859   6.503  12.815  0.00  0.00    +0.000 C 
ATOM      4  C   UNL     1      46.582   7.327  13.053  0.00  0.00    +0.000 C 
ATOM      5  C   UNL     1      46.960   8.708  13.636  0.00  0.00    +0.000 C 
ATOM      6  C   UNL     1      48.038   9.444  12.842  0.00  0.00    +0.000 C 
ENDROOT
BRANCH   1   7
ATOM      7  C   UNL     1      50.313   8.526  13.699  0.00  0.00    +0.000 C 
BRANCH   7   8
ATOM      8  N   UNL     1      51.657   8.076  13.347  0.00  0.00    +0.000 NA
ATOM      9  H   UNL     1      52.243   8.894  13.145  0.00  0.00    +0.000 HD
ATOM     10  H   UNL     1      51.630   7.560  12.472  0.00  0.00    +0.000 HD
ENDBRANCH   7   8
ENDBRANCH   1   7
BRANCH   4  11
ATOM     11  C   UNL     1      45.675   7.435  11.798  0.00  0.00    +0.000 C 
BRANCH  11  12
ATOM     12  N   UNL     1      45.457   6.173  11.090  0.00  0.00    +0.000 N 
ATOM     13  C   UNL     1      45.952   5.849   9.848  0.00  0.00    +0.000 A 
ATOM     14  C   UNL     1      45.367   4.666   9.446  0.00  0.00    +0.000 A 
ATOM     15  C   UNL     1      44.628   4.173  10.545  0.00  0.00    +0.000 A 
ATOM     16  C   UNL     1      43.890   3.002  10.789  0.00  0.00    +0.000 A 
ATOM     17  C   UNL     1      43.341   2.839  12.057  0.00  0.00    +0.000 A 
ATOM     18  C   UNL     1      43.513   3.848  12.996  0.00  0.00    +0.000 A 
ATOM     19  N   UNL     1      44.173   5.015  12.799  0.00  0.00    +0.000 NA
ATOM     20  C   UNL     1      44.717   5.115  11.571  0.00  0.00    +0.000 A 
ENDBRANCH  11  12
ENDBRANCH   4  11
TORSDOF 4
ENDMDL
MODEL 9
REMARK VINA RESULT:    -4.859      3.470      5.698
REMARK INTER + INTRA:          -6.393
REMARK INTER:                  -6.001
REMARK INTRA:                  -0.392
REMARK UNBOUND:                -0.539
REMARK  Name = 
REMARK  4 active torsions:
REMARK  status: ('A' for Active; 'I' for Inactive)
REMARK    1  A    between atoms: N_1  and  C_2
REMARK    2  A    between atoms: C_2  and  C_3
REMARK    3  A    between atoms: C_6  and  C_7
REMARK    4  A    between atoms: C_7  and  N_8
REMARK                            x       y       z     vdW  Elec       q    Type
REMARK                         _______ _______ _______ _____ _____    ______ ____
ROOT
ATOM      1  C   UNL     1      44.902   3.763  11.243  0.00  0.00    +0.000 C 
ATOM      2  C   UNL     1      45.204   5.138  10.615  0.00  0.00    +0.000 C 
ATOM      3  C   UNL     1      45.083   6.306  11.592  0.00  0.00    +0.000 C 
ATOM      4  C   UNL     1      45.935   6.133  12.862  0.00  0.00    +0.000 C 
ATOM      5  C   UNL     1      45.622   4.765  13.509  0.00  0.00    +0.000 C 
ATOM      6  C   UNL     1      45.701   3.586  12.540  0.00  0.00    +0.000 C 
ENDROOT
BRANCH   1   7
ATOM      7  C   UNL     1      43.394   3.481  11.349  0.00  0.00    +0.000 C 
BRANCH   7   8
ATOM      8  N   UNL     1      43.011   2.121  11.718  0.00  0.00    +0.000 NA
ATOM      9  H   UNL     1      43.587   1.812  12.509  0.00  0.00    +0.000 HD
ATOM     10  H   UNL     1      43.249   1.479  10.965  0.00  0.00    +0.000 HD
ENDBRANCH   7   8
ENDBRANCH   1   7
BRANCH   4  11
ATOM     11  C   UNL     1      47.453   6.349  12.621  0.00  0.00    +0.000 C 
BRANCH  11  12
ATOM     12  N   UNL     1      48.094   7.276  13.555  0.00  0.00    +0.000 N 
ATOM     13  C   UNL     1      48.625   6.948  14.781  0.00  0.00    +0.000 A 
ATOM     14  C   UNL     1      48.952   8.118  15.436  0.00  0.00    +0.000 A 
ATOM     15  C   UNL     1      48.772   9.175  14.516  0.00  0.00    +0.000 A 
ATOM     16  C   UNL     1      49.005  10.560  14.550  0.00  0.00    +0.000 A 
ATOM     17  C   UNL     1      48.757  11.284  13.387  0.00  0.00    +0.000 A 
ATOM     18  C   UNL     1      48.259  10.616  12.276  0.00  0.00    +0.000 A 
ATOM     19  N   UNL     1      47.973   9.294  12.204  0.00  0.00    +0.000 NA
ATOM     20  C   UNL     1      48.260   8.627  13.338  0.00  0.00    +0.000 A 
ENDBRANCH  11  12
ENDBRANCH   4  11
TORSDOF 4
ENDMDL
