MODEL 1
REMARK VINA RESULT:    -6.779      0.000      0.000
REMARK INTER + INTRA:          -8.546
REMARK INTER:                  -7.968
REMARK INTRA:                  -0.578
REMARK UNBOUND:                -0.578
REMARK  Name = 
REMARK  4 active torsions:
REMARK  status: ('A' for Active; 'I' for Inactive)
REMARK    1  A    between atoms: C_1  and  C_2
REMARK    2  A    between atoms: C_4  and  C_5
REMARK    3  A    between atoms: N_13  and  C_14
REMARK    4  A    between atoms: C_14  and  C_15
REMARK                            x       y       z     vdW  Elec       q    Type
REMARK                         _______ _______ _______ _____ _____    ______ ____
ROOT
ATOM      1  C   UNL     1      47.825   8.379  14.016  0.00  0.00    +0.000 C 
ATOM      2  C   UNL     1      46.640   8.104  13.138  0.00  0.00    +0.000 A 
ATOM      3  C   UNL     1      45.916   9.156  12.575  0.00  0.00    +0.000 A 
ATOM      4  C   UNL     1      44.824   8.885  11.750  0.00  0.00    +0.000 A 
ATOM      5  N   UNL     1      44.363   7.638  11.412  0.00  0.00    +0.000 NA
ATOM      6  C   UNL     1      45.098   6.645  11.975  0.00  0.00    +0.000 A 
ATOM      7  C   UNL     1      46.204   6.802  12.819  0.00  0.00    +0.000 A 
ATOM      8  C   UNL     1      46.664   5.503  13.165  0.00  0.00    +0.000 A 
ATOM      9  C   UNL     1      45.857   4.591  12.528  0.00  0.00    +0.000 A 
ATOM     10  N   UNL     1      44.910   5.285  11.810  0.00  0.00    +0.000 N 
ENDROOT
BRANCH   4  11
ATOM     11  C   UNL     1      44.103  10.068  11.172  0.00  0.00    +0.000 C 
ATOM     12  N   UNL     1      43.715   9.969   9.863  0.00  0.00    +0.000 N 
ATOM     13  O   UNL     1      43.867  11.088  11.820  0.00  0.00    +0.000 OA
ATOM     14  H   UNL     1      43.920   9.133   9.336  0.00  0.00    +0.000 HD
ATOM     15  H   UNL     1      43.243  10.752   9.437  0.00  0.00    +0.000 HD
ENDBRANCH   4  11
BRANCH  10  16
ATOM     16  C   UNL     1      43.926   4.637  10.952  0.00  0.00    +0.000 C 
BRANCH  16  17
ATOM     17  C   UNL     1      44.591   3.878   9.833  0.00  0.00    +0.000 A 
ATOM     18  C   UNL     1      44.527   2.483   9.797  0.00  0.00    +0.000 A 
ATOM     19  C   UNL     1      45.236   1.810   8.816  0.00  0.00    +0.000 A 
ATOM     20  N   UNL     1      45.985   2.422   7.874  0.00  0.00    +0.000 NA
ATOM     21  C   UNL     1      46.020   3.770   7.911  0.00  0.00    +0.000 A 
ATOM     22  C   UNL     1      45.341   4.534   8.849  0.00  0.00    +0.000 A 
ENDBRANCH  16  17
ENDBRANCH  10  16
TORSDOF 3
ENDMDL
MODEL 2
REMARK VINA RESULT:    -6.598      2.322      2.923
REMARK INTER + INTRA:          -8.333
REMARK INTER:                  -8.049
REMARK INTRA:                  -0.284
REMARK UNBOUND:                -0.578
REMARK  Name = 
REMARK  4 active torsions:
REMARK  status: ('A' for Active; 'I' for Inactive)
REMARK    1  A    between atoms: C_1  and  C_2
REMARK    2  A    between atoms: C_4  and  C_5
REMARK    3  A    between atoms: N_13  and  C_14
REMARK    4  A    between atoms: C_14  and  C_15
REMARK                            x       y       z     vdW  Elec       q    Type
REMARK                         _______ _______ _______ _____ _____    ______ ____
ROOT
ATOM      1  C   UNL     1      46.817   4.487  15.207  0.00  0.00    +0.000 C 
ATOM      2  C   UNL     1      46.646   5.045  13.825  0.00  0.00    +0.000 A 
ATOM      3  C   UNL     1      47.327   6.200  13.439  0.00  0.00    +0.000 A 
ATOM      4  C   UNL     1      47.170   6.700  12.146  0.00  0.00    +0.000 A 
ATOM      5  N   UNL     1      46.383   6.154  11.163  0.00  0.00    +0.000 NA
ATOM      6  C   UNL     1      45.744   5.030  11.578  0.00  0.00    +0.000 A 
ATOM      7  C   UNL     1      45.825   4.445  12.848  0.00  0.00    +0.000 A 
ATOM      8  C   UNL     1      45.003   3.287  12.837  0.00  0.00    +0.000 A 
ATOM      9  C   UNL     1      44.455   3.175  11.582  0.00  0.00    +0.000 A 
ATOM     10  N   UNL     1      44.905   4.232  10.823  0.00  0.00    +0.000 N 
ENDROOT
BRANCH   4  11
ATOM     11  C   UNL     1      47.943   7.940  11.801  0.00  0.00    +0.000 C 
ATOM     12  N   UNL     1      49.239   7.760  11.397  0.00  0.00    +0.000 N 
ATOM     13  O   UNL     1      47.461   9.071  11.877  0.00  0.00    +0.000 OA
ATOM     14  H   UNL     1      49.628   6.830  11.346  0.00  0.00    +0.000 HD
ATOM     15  H   UNL     1      49.793   8.572  11.174  0.00  0.00    +0.000 HD
ENDBRANCH   4  11
BRANCH  10  16
ATOM     16  C   UNL     1      44.580   4.396   9.412  0.00  0.00    +0.000 C 
BRANCH  16  17
ATOM     17  C   UNL     1      45.438   3.510   8.546  0.00  0.00    +0.000 A 
ATOM     18  C   UNL     1      45.433   2.126   8.737  0.00  0.00    +0.000 A 
ATOM     19  C   UNL     1      46.310   1.350   7.998  0.00  0.00    +0.000 A 
ATOM     20  N   UNL     1      47.172   1.847   7.086  0.00  0.00    +0.000 NA
ATOM     21  C   UNL     1      47.150   3.183   6.900  0.00  0.00    +0.000 A 
ATOM     22  C   UNL     1      46.307   4.044   7.586  0.00  0.00    +0.000 A 
ENDBRANCH  16  17
ENDBRANCH  10  16
TORSDOF 3
ENDMDL
MODEL 3
REMARK VINA RESULT:    -6.487      2.825      4.226
REMARK INTER + INTRA:          -8.202
REMARK INTER:                  -7.876
REMARK INTRA:                  -0.326
REMARK UNBOUND:                -0.578
REMARK  Name = 
REMARK  4 active torsions:
REMARK  status: ('A' for Active; 'I' for Inactive)
REMARK    1  A    between atoms: C_1  and  C_2
REMARK    2  A    between atoms: C_4  and  C_5
REMARK    3  A    between atoms: N_13  and  C_14
REMARK    4  A    between atoms: C_14  and  C_15
REMARK                            x       y       z     vdW  Elec       q    Type
REMARK                         _______ _______ _______ _____ _____    ______ ____
ROOT
ATOM      1  C   UNL     1      48.442   8.347  14.194  0.00  0.00    +0.000 C 
ATOM      2  C   UNL     1      47.655   7.088  13.980  0.00  0.00    +0.000 A 
ATOM      3  C   UNL     1      47.883   5.966  14.779  0.00  0.00    +0.000 A 
ATOM      4  C   UNL     1      47.134   4.806  14.578  0.00  0.00    +0.000 A 
ATOM      5  N   UNL     1      46.148   4.639  13.638  0.00  0.00    +0.000 NA
ATOM      6  C   UNL     1      45.954   5.755  12.888  0.00  0.00    +0.000 A 
ATOM      7  C   UNL     1      46.649   6.965  13.000  0.00  0.00    +0.000 A 
ATOM      8  C   UNL     1      46.118   7.853  12.026  0.00  0.00    +0.000 A 
ATOM      9  C   UNL     1      45.117   7.189  11.358  0.00  0.00    +0.000 A 
ATOM     10  N   UNL     1      45.021   5.920  11.882  0.00  0.00    +0.000 N 
ENDROOT
BRANCH   4  11
ATOM     11  C   UNL     1      47.428   3.645  15.484  0.00  0.00    +0.000 C 
ATOM     12  N   UNL     1      46.817   3.654  16.708  0.00  0.00    +0.000 N 
ATOM     13  O   UNL     1      48.183   2.725  15.166  0.00  0.00    +0.000 OA
ATOM     14  H   UNL     1      46.207   4.417  16.964  0.00  0.00    +0.000 HD
ATOM     15  H   UNL     1      47.006   2.899  17.349  0.00  0.00    +0.000 HD
ENDBRANCH   4  11
BRANCH  10  16
ATOM     16  C   UNL     1      44.013   4.955  11.459  0.00  0.00    +0.000 C 
BRANCH  16  17
ATOM     17  C   UNL     1      44.488   4.151  10.277  0.00  0.00    +0.000 A 
ATOM     18  C   UNL     1      44.219   2.782  10.206  0.00  0.00    +0.000 A 
ATOM     19  C   UNL     1      44.759   2.051   9.161  0.00  0.00    +0.000 A 
ATOM     20  N   UNL     1      45.528   2.584   8.188  0.00  0.00    +0.000 NA
ATOM     21  C   UNL     1      45.762   3.910   8.259  0.00  0.00    +0.000 A 
ATOM     22  C   UNL     1      45.263   4.728   9.262  0.00  0.00    +0.000 A 
ENDBRANCH  16  17
ENDBRANCH  10  16
TORSDOF 3
ENDMDL
MODEL 4
REMARK VINA RESULT:    -6.140      4.620      7.024
REMARK INTER + INTRA:          -7.795
REMARK INTER:                  -7.727
REMARK INTRA:                  -0.067
REMARK UNBOUND:                -0.578
REMARK  Name = 
REMARK  4 active torsions:
REMARK  status: ('A' for Active; 'I' for Inactive)
REMARK    1  A    between atoms: C_1  and  C_2
REMARK    2  A    between atoms: C_4  and  C_5
REMARK    3  A    between atoms: N_13  and  C_14
REMARK    4  A    between atoms: C_14  and  C_15
REMARK                            x       y       z     vdW  Elec       q    Type
REMARK                         _______ _______ _______ _____ _____    ______ ____
ROOT
ATOM      1  C   UNL     1      47.477   7.439  11.728  0.00  0.00    +0.000 C 
ATOM      2  C   UNL     1      47.042   6.284  12.580  0.00  0.00    +0.000 A 
ATOM      3  C   UNL     1      46.114   5.360  12.099  0.00  0.00    +0.000 A 
ATOM      4  C   UNL     1      45.729   4.282  12.898  0.00  0.00    +0.000 A 
ATOM      5  N   UNL     1      46.186   4.017  14.164  0.00  0.00    +0.000 NA
ATOM      6  C   UNL     1      47.090   4.935  14.590  0.00  0.00    +0.000 A 
ATOM      7  C   UNL     1      47.543   6.053  13.878  0.00  0.00    +0.000 A 
ATOM      8  C   UNL     1      48.484   6.730  14.700  0.00  0.00    +0.000 A 
ATOM      9  C   UNL     1      48.601   6.021  15.871  0.00  0.00    +0.000 A 
ATOM     10  N   UNL     1      47.756   4.937  15.802  0.00  0.00    +0.000 N 
ENDROOT
BRANCH   4  11
ATOM     11  C   UNL     1      44.735   3.324  12.307  0.00  0.00    +0.000 C 
ATOM     12  N   UNL     1      45.014   2.848  11.054  0.00  0.00    +0.000 N 
ATOM     13  O   UNL     1      43.712   2.975  12.897  0.00  0.00    +0.000 OA
ATOM     14  H   UNL     1      45.851   3.146  10.574  0.00  0.00    +0.000 HD
ATOM     15  H   UNL     1      44.360   2.216  10.620  0.00  0.00    +0.000 HD
ENDBRANCH   4  11
BRANCH  10  16
ATOM     16  C   UNL     1      47.671   3.923  16.846  0.00  0.00    +0.000 C 
BRANCH  16  17
ATOM     17  C   UNL     1      49.037   3.414  17.226  0.00  0.00    +0.000 A 
ATOM     18  C   UNL     1      49.898   4.214  17.982  0.00  0.00    +0.000 A 
ATOM     19  C   UNL     1      51.184   3.761  18.226  0.00  0.00    +0.000 A 
ATOM     20  N   UNL     1      51.663   2.579  17.784  0.00  0.00    +0.000 NA
ATOM     21  C   UNL     1      50.813   1.810  17.073  0.00  0.00    +0.000 A 
ATOM     22  C   UNL     1      49.506   2.172  16.781  0.00  0.00    +0.000 A 
ENDBRANCH  16  17
ENDBRANCH  10  16
TORSDOF 3
ENDMDL
MODEL 5
REMARK VINA RESULT:    -5.841      3.993      5.922
REMARK INTER + INTRA:          -7.443
REMARK INTER:                  -6.895
REMARK INTRA:                  -0.548
REMARK UNBOUND:                -0.578
REMARK  Name = 
REMARK  4 active torsions:
REMARK  status: ('A' for Active; 'I' for Inactive)
REMARK    1  A    between atoms: C_1  and  C_2
REMARK    2  A    between atoms: C_4  and  C_5
REMARK    3  A    between atoms: N_13  and  C_14
REMARK    4  A    between atoms: C_14  and  C_15
REMARK                            x       y       z     vdW  Elec       q    Type
REMARK                         _______ _______ _______ _____ _____    ______ ____
ROOT
ATOM      1  C   UNL     1      49.297   7.737  16.430  0.00  0.00    +0.000 C 
ATOM      2  C   UNL     1      48.623   6.448  16.063  0.00  0.00    +0.000 A 
ATOM      3  C   UNL     1      48.462   5.438  17.012  0.00  0.00    +0.000 A 
ATOM      4  C   UNL     1      47.821   4.249  16.661  0.00  0.00    +0.000 A 
ATOM      5  N   UNL     1      47.303   3.951  15.426  0.00  0.00    +0.000 NA
ATOM      6  C   UNL     1      47.475   4.961  14.535  0.00  0.00    +0.000 A 
ATOM      7  C   UNL     1      48.106   6.188  14.778  0.00  0.00    +0.000 A 
ATOM      8  C   UNL     1      48.054   6.939  13.572  0.00  0.00    +0.000 A 
ATOM      9  C   UNL     1      47.392   6.181  12.636  0.00  0.00    +0.000 A 
ATOM     10  N   UNL     1      47.045   4.985  13.222  0.00  0.00    +0.000 N 
ENDROOT
BRANCH   4  11
ATOM     11  C   UNL     1      47.676   3.214  17.739  0.00  0.00    +0.000 C 
ATOM     12  N   UNL     1      48.739   3.062  18.587  0.00  0.00    +0.000 N 
ATOM     13  O   UNL     1      46.665   2.522  17.868  0.00  0.00    +0.000 OA
ATOM     14  H   UNL     1      49.566   3.627  18.469  0.00  0.00    +0.000 HD
ATOM     15  H   UNL     1      48.683   2.364  19.313  0.00  0.00    +0.000 HD
ENDBRANCH   4  11
BRANCH  10  16
ATOM     16  C   UNL     1      46.266   3.959  12.539  0.00  0.00    +0.000 C 
BRANCH  16  17
ATOM     17  C   UNL     1      44.880   4.451  12.213  0.00  0.00    +0.000 A 
ATOM     18  C   UNL     1      44.560   4.828  10.906  0.00  0.00    +0.000 A 
ATOM     19  C   UNL     1      43.311   5.375  10.660  0.00  0.00    +0.000 A 
ATOM     20  N   UNL     1      42.369   5.559  11.608  0.00  0.00    +0.000 NA
ATOM     21  C   UNL     1      42.686   5.171  12.860  0.00  0.00    +0.000 A 
ATOM     22  C   UNL     1      43.906   4.609  13.207  0.00  0.00    +0.000 A 
ENDBRANCH  16  17
ENDBRANCH  10  16
TORSDOF 3
ENDMDL
MODEL 6
REMARK VINA RESULT:    -5.818      4.677      7.565
REMARK INTER + INTRA:          -7.416
REMARK INTER:                  -7.104
REMARK INTRA:                  -0.312
REMARK UNBOUND:                -0.578
REMARK  Name = 
REMARK  4 active torsions:
REMARK  status: ('A' for Active; 'I' for Inactive)
REMARK    1  A    between atoms: C_1  and  C_2
REMARK    2  A    between atoms: C_4  and  C_5
REMARK    3  A    between atoms: N_13  and  C_14
REMARK    4  A    between atoms: C_14  and  C_15
REMARK                            x       y       z     vdW  Elec       q    Type
REMARK                         _______ _______ _______ _____ _____    ______ ____
ROOT
ATOM      1  C   UNL     1      47.534   7.498  11.748  0.00  0.00    +0.000 C 
ATOM      2  C   UNL     1      47.084   6.367  12.625  0.00  0.00    +0.000 A 
ATOM      3  C   UNL     1      46.118   5.465  12.178  0.00  0.00    +0.000 A 
ATOM      4  C   UNL     1      45.719   4.410  12.999  0.00  0.00    +0.000 A 
ATOM      5  N   UNL     1      46.197   4.147  14.258  0.00  0.00    +0.000 NA
ATOM      6  C   UNL     1      47.138   5.044  14.652  0.00  0.00    +0.000 A 
ATOM      7  C   UNL     1      47.606   6.138  13.914  0.00  0.00    +0.000 A 
ATOM      8  C   UNL     1      48.586   6.796  14.706  0.00  0.00    +0.000 A 
ATOM      9  C   UNL     1      48.709   6.100  15.884  0.00  0.00    +0.000 A 
ATOM     10  N   UNL     1      47.830   5.041  15.848  0.00  0.00    +0.000 N 
ENDROOT
BRANCH   4  11
ATOM     11  C   UNL     1      44.684   3.474  12.444  0.00  0.00    +0.000 C 
ATOM     12  N   UNL     1      44.980   2.874  11.250  0.00  0.00    +0.000 N 
ATOM     13  O   UNL     1      43.615   3.249  13.011  0.00  0.00    +0.000 OA
ATOM     14  H   UNL     1      45.855   3.072  10.787  0.00  0.00    +0.000 HD
ATOM     15  H   UNL     1      44.300   2.253  10.839  0.00  0.00    +0.000 HD
ENDBRANCH   4  11
BRANCH  10  16
ATOM     16  C   UNL     1      47.739   4.043  16.907  0.00  0.00    +0.000 C 
BRANCH  16  17
ATOM     17  C   UNL     1      47.948   4.666  18.263  0.00  0.00    +0.000 A 
ATOM     18  C   UNL     1      48.999   4.237  19.077  0.00  0.00    +0.000 A 
ATOM     19  C   UNL     1      49.102   4.753  20.358  0.00  0.00    +0.000 A 
ATOM     20  N   UNL     1      48.248   5.662  20.874  0.00  0.00    +0.000 NA
ATOM     21  C   UNL     1      47.250   6.081  20.069  0.00  0.00    +0.000 A 
ATOM     22  C   UNL     1      47.066   5.629  18.771  0.00  0.00    +0.000 A 
ENDBRANCH  16  17
ENDBRANCH  10  16
TORSDOF 3
ENDMDL
MODEL 7
REMARK VINA RESULT:    -5.557      3.312      6.438
REMARK INTER + INTRA:          -7.109
REMARK INTER:                  -6.519
REMARK INTRA:                  -0.590
REMARK UNBOUND:                -0.578
REMARK  Name = 
REMARK  4 active torsions:
REMARK  status: ('A' for Active; 'I' for Inactive)
REMARK    1  A    between atoms: C_1  and  C_2
REMARK    2  A    between atoms: C_4  and  C_5
REMARK    3  A    between atoms: N_13  and  C_14
REMARK    4  A    between atoms: C_14  and  C_15
REMARK                            x       y       z     vdW  Elec       q    Type
REMARK                         _______ _______ _______ _____ _____    ______ ____
ROOT
ATOM      1  C   UNL     1      44.528   3.227  11.147  0.00  0.00    +0.000 C 
ATOM      2  C   UNL     1      45.179   4.185  12.099  0.00  0.00    +0.000 A 
ATOM      3  C   UNL     1      45.924   3.713  13.181  0.00  0.00    +0.000 A 
ATOM      4  C   UNL     1      46.536   4.616  14.050  0.00  0.00    +0.000 A 
ATOM      5  N   UNL     1      46.487   5.984  13.953  0.00  0.00    +0.000 NA
ATOM      6  C   UNL     1      45.760   6.400  12.885  0.00  0.00    +0.000 A 
ATOM      7  C   UNL     1      45.101   5.585  11.956  0.00  0.00    +0.000 A 
ATOM      8  C   UNL     1      44.475   6.440  11.009  0.00  0.00    +0.000 A 
ATOM      9  C   UNL     1      44.767   7.736  11.359  0.00  0.00    +0.000 A 
ATOM     10  N   UNL     1      45.544   7.708  12.495  0.00  0.00    +0.000 N 
ENDROOT
BRANCH   4  11
ATOM     11  C   UNL     1      47.329   4.032  15.184  0.00  0.00    +0.000 C 
ATOM     12  N   UNL     1      47.443   4.801  16.310  0.00  0.00    +0.000 N 
ATOM     13  O   UNL     1      47.864   2.924  15.124  0.00  0.00    +0.000 OA
ATOM     14  H   UNL     1      47.009   5.711  16.348  0.00  0.00    +0.000 HD
ATOM     15  H   UNL     1      47.982   4.447  17.085  0.00  0.00    +0.000 HD
ENDBRANCH   4  11
BRANCH  10  16
ATOM     16  C   UNL     1      46.100   8.907  13.111  0.00  0.00    +0.000 C 
BRANCH  16  17
ATOM     17  C   UNL     1      47.264   9.439  12.318  0.00  0.00    +0.000 A 
ATOM     18  C   UNL     1      48.456   8.714  12.250  0.00  0.00    +0.000 A 
ATOM     19  C   UNL     1      49.543   9.279  11.602  0.00  0.00    +0.000 A 
ATOM     20  N   UNL     1      49.521  10.494  11.015  0.00  0.00    +0.000 NA
ATOM     21  C   UNL     1      48.356  11.172  11.071  0.00  0.00    +0.000 A 
ATOM     22  C   UNL     1      47.213  10.691  11.692  0.00  0.00    +0.000 A 
ENDBRANCH  16  17
ENDBRANCH  10  16
TORSDOF 3
ENDMDL
MODEL 8
REMARK VINA RESULT:    -5.519      4.219      6.411
REMARK INTER + INTRA:          -7.065
REMARK INTER:                  -6.504
REMARK INTRA:                  -0.561
REMARK UNBOUND:                -0.578
REMARK  Name = 
REMARK  4 active torsions:
REMARK  status: ('A' for Active; 'I' for Inactive)
REMARK    1  A    between atoms: C_1  and  C_2
REMARK    2  A    between atoms: C_4  and  C_5
REMARK    3  A    between atoms: N_13  and  C_14
REMARK    4  A    between atoms: C_14  and  C_15
REMARK                            x       y       z     vdW  Elec       q    Type
REMARK                         _______ _______ _______ _____ _____    ______ ____
ROOT
ATOM      1  C   UNL     1      48.977   8.221  18.754  0.00  0.00    +0.000 C 
ATOM      2  C   UNL     1      48.661   7.140  17.763  0.00  0.00    +0.000 A 
ATOM      3  C   UNL     1      48.292   5.867  18.198  0.00  0.00    +0.000 A 
ATOM      4  C   UNL     1      47.987   4.875  17.265  0.00  0.00    +0.000 A 
ATOM      5  N   UNL     1      48.010   5.021  15.901  0.00  0.00    +0.000 NA
ATOM      6  C   UNL     1      48.367   6.275  15.521  0.00  0.00    +0.000 A 
ATOM      7  C   UNL     1      48.697   7.340  16.368  0.00  0.00    +0.000 A 
ATOM      8  C   UNL     1      49.000   8.459  15.546  0.00  0.00    +0.000 A 
ATOM      9  C   UNL     1      48.838   8.072  14.238  0.00  0.00    +0.000 A 
ATOM     10  N   UNL     1      48.457   6.750  14.227  0.00  0.00    +0.000 N 
ENDROOT
BRANCH   4  11
ATOM     11  C   UNL     1      47.587   3.534  17.810  0.00  0.00    +0.000 C 
ATOM     12  N   UNL     1      48.335   3.048  18.848  0.00  0.00    +0.000 N 
ATOM     13  O   UNL     1      46.644   2.884  17.357  0.00  0.00    +0.000 OA
ATOM     14  H   UNL     1      49.112   3.583  19.207  0.00  0.00    +0.000 HD
ATOM     15  H   UNL     1      48.105   2.142  19.227  0.00  0.00    +0.000 HD
ENDBRANCH   4  11
BRANCH  10  16
ATOM     16  C   UNL     1      48.128   6.025  13.005  0.00  0.00    +0.000 C 
BRANCH  16  17
ATOM     17  C   UNL     1      46.650   6.079  12.718  0.00  0.00    +0.000 A 
ATOM     18  C   UNL     1      45.825   5.014  13.085  0.00  0.00    +0.000 A 
ATOM     19  C   UNL     1      44.491   5.047  12.714  0.00  0.00    +0.000 A 
ATOM     20  N   UNL     1      43.926   6.060  12.022  0.00  0.00    +0.000 NA
ATOM     21  C   UNL     1      44.732   7.090  11.693  0.00  0.00    +0.000 A 
ATOM     22  C   UNL     1      46.078   7.152  12.023  0.00  0.00    +0.000 A 
ENDBRANCH  16  17
ENDBRANCH  10  16
TORSDOF 3
ENDMDL
MODEL 9
REMARK VINA RESULT:    -5.406      4.932      7.307
REMARK INTER + INTRA:          -6.932
REMARK INTER:                  -6.365
REMARK INTRA:                  -0.566
REMARK UNBOUND:                -0.578
REMARK  Name = 
REMARK  4 active torsions:
REMARK  status: ('A' for Active; 'I' for Inactive)
REMARK    1  A    between atoms: C_1  and  C_2
REMARK    2  A    between atoms: C_4  and  C_5
REMARK    3  A    between atoms: N_13  and  C_14
REMARK    4  A    between atoms: C_14  and  C_15
REMARK                            x       y       z     vdW  Elec       q    Type
REMARK                         _______ _______ _______ _____ _____    ______ ____
ROOT
ATOM      1  C   UNL     1      49.085   8.043  11.855  0.00  0.00    +0.000 C 
ATOM      2  C   UNL     1      48.589   7.106  12.916  0.00  0.00    +0.000 A 
ATOM      3  C   UNL     1      47.567   6.198  12.636  0.00  0.00    +0.000 A 
ATOM      4  C   UNL     1      47.124   5.322  13.628  0.00  0.00    +0.000 A 
ATOM      5  N   UNL     1      47.607   5.251  14.910  0.00  0.00    +0.000 NA
ATOM      6  C   UNL     1      48.603   6.145  15.138  0.00  0.00    +0.000 A 
ATOM      7  C   UNL     1      49.119   7.069  14.221  0.00  0.00    +0.000 A 
ATOM      8  C   UNL     1      50.147   7.795  14.881  0.00  0.00    +0.000 A 
ATOM      9  C   UNL     1      50.251   7.304  16.160  0.00  0.00    +0.000 A 
ATOM     10  N   UNL     1      49.314   6.306  16.312  0.00  0.00    +0.000 N 
ENDROOT
BRANCH   4  11
ATOM     11  C   UNL     1      46.029   4.367  13.249  0.00  0.00    +0.000 C 
ATOM     12  N   UNL     1      44.831   4.922  12.890  0.00  0.00    +0.000 N 
ATOM     13  O   UNL     1      46.177   3.145  13.259  0.00  0.00    +0.000 OA
ATOM     14  H   UNL     1      44.716   5.925  12.893  0.00  0.00    +0.000 HD
ATOM     15  H   UNL     1      44.068   4.310  12.645  0.00  0.00    +0.000 HD
ENDBRANCH   4  11
BRANCH  10  16
ATOM     16  C   UNL     1      49.186   5.510  17.527  0.00  0.00    +0.000 C 
BRANCH  16  17
ATOM     17  C   UNL     1      50.058   4.283  17.471  0.00  0.00    +0.000 A 
ATOM     18  C   UNL     1      49.509   3.049  17.114  0.00  0.00    +0.000 A 
ATOM     19  C   UNL     1      50.311   1.921  17.174  0.00  0.00    +0.000 A 
ATOM     20  N   UNL     1      51.608   1.939  17.548  0.00  0.00    +0.000 NA
ATOM     21  C   UNL     1      52.129   3.141  17.870  0.00  0.00    +0.000 A 
ATOM     22  C   UNL     1      51.409   4.327  17.837  0.00  0.00    +0.000 A 
ENDBRANCH  16  17
ENDBRANCH  10  16
TORSDOF 3
ENDMDL
