MODEL 1
REMARK VINA RESULT:    -8.019      0.000      0.000
REMARK INTER + INTRA:         -12.684
REMARK INTER:                 -11.301
REMARK INTRA:                  -1.383
REMARK UNBOUND:                -1.383
REMARK  Name = 
REMARK  9 active torsions:
REMARK  status: ('A' for Active; 'I' for Inactive)
REMARK    1  A    between atoms: C_1  and  C_2
REMARK    2  A    between atoms: C_2  and  C_3
REMARK    3  A    between atoms: C_3  and  N_4
REMARK    4  A    between atoms: C_3  and  C_18
REMARK    5  A    between atoms: C_5  and  C_7
REMARK    6  A    between atoms: N_13  and  C_14
REMARK    7  A    between atoms: C_21  and  O_22
REMARK    8  A    between atoms: O_22  and  C_23
REMARK    9  A    between atoms: C_23  and  C_24
REMARK                            x       y       z     vdW  Elec       q    Type
REMARK                         _______ _______ _______ _____ _____    ______ ____
ROOT
ATOM      1  C   UNL     1      47.076   7.492  13.150  0.00  0.00    +0.000 C 
ENDROOT
BRANCH   1   2
ATOM      2  C   UNL     1      46.334   6.302  12.560  0.00  0.00    +0.000 A 
ATOM      3  C   UNL     1      45.821   6.379  11.254  0.00  0.00    +0.000 A 
ATOM      4  C   UNL     1      45.253   5.257  10.643  0.00  0.00    +0.000 A 
ATOM      5  C   UNL     1      45.197   4.041  11.323  0.00  0.00    +0.000 A 
ATOM      6  C   UNL     1      45.598   3.983  12.655  0.00  0.00    +0.000 A 
ATOM      7  C   UNL     1      46.151   5.106  13.270  0.00  0.00    +0.000 A 
BRANCH   5   8
ATOM      8  O   UNL     1      44.743   2.968  10.605  0.00  0.00    +0.000 OA
BRANCH   8   9
ATOM      9  C   UNL     1      44.456   3.255   9.229  0.00  0.00    +0.000 C 
BRANCH   9  10
ATOM     10  C   UNL     1      45.525   2.665   8.342  0.00  0.00    +0.000 A 
ATOM     11  C   UNL     1      46.213   3.482   7.444  0.00  0.00    +0.000 A 
ATOM     12  C   UNL     1      47.222   2.927   6.666  0.00  0.00    +0.000 A 
ATOM     13  C   UNL     1      47.521   1.578   6.805  0.00  0.00    +0.000 A 
ATOM     14  C   UNL     1      46.800   0.837   7.726  0.00  0.00    +0.000 A 
ATOM     15  N   UNL     1      45.818   1.349   8.500  0.00  0.00    +0.000 NA
ENDBRANCH   9  10
ENDBRANCH   8   9
ENDBRANCH   5   8
ENDBRANCH   1   2
BRANCH   1  16
ATOM     16  N   UNL     1      48.158   7.032  13.999  0.00  0.00    +0.000 N 
ATOM     17  C   UNL     1      48.644   7.733  15.070  0.00  0.00    +0.000 C 
ATOM     18  O   UNL     1      48.206   8.834  15.393  0.00  0.00    +0.000 OA
ATOM     19  H   UNL     1      48.429   6.063  13.879  0.00  0.00    +0.000 HD
BRANCH  17  20
ATOM     20  C   UNL     1      49.773   7.118  15.787  0.00  0.00    +0.000 A 
ATOM     21  C   UNL     1      51.013   7.743  15.785  0.00  0.00    +0.000 A 
ATOM     22  S   UNL     1      52.209   6.895  16.656  0.00  0.00    +0.000 S 
ATOM     23  C   UNL     1      51.100   5.686  17.109  0.00  0.00    +0.000 A 
ATOM     24  N   UNL     1      51.474   4.667  17.921  0.00  0.00    +0.000 NA
ATOM     25  C   UNL     1      50.518   3.852  18.233  0.00  0.00    +0.000 A 
ATOM     26  N   UNL     1      49.219   3.938  17.782  0.00  0.00    +0.000 N 
ATOM     27  C   UNL     1      48.220   2.972  18.196  0.00  0.00    +0.000 C 
ATOM     28  C   UNL     1      48.826   4.914  16.878  0.00  0.00    +0.000 A 
ATOM     29  O   UNL     1      47.714   4.924  16.357  0.00  0.00    +0.000 OA
ATOM     30  C   UNL     1      49.848   5.900  16.566  0.00  0.00    +0.000 A 
ENDBRANCH  17  20
ENDBRANCH   1  16
BRANCH   1  32
ATOM     31  C   UNL     1      49.022   8.043  11.563  0.00  0.00    +0.000 C 
ATOM     32  C   UNL     1      47.662   8.467  12.102  0.00  0.00    +0.000 C 
ENDBRANCH   1  32
TORSDOF 7
ENDMDL
MODEL 2
REMARK VINA RESULT:    -7.750      1.810      2.078
REMARK INTER + INTRA:         -12.304
REMARK INTER:                 -11.104
REMARK INTRA:                  -1.201
REMARK UNBOUND:                -1.383
REMARK  Name = 
REMARK  9 active torsions:
REMARK  status: ('A' for Active; 'I' for Inactive)
REMARK    1  A    between atoms: C_1  and  C_2
REMARK    2  A    between atoms: C_2  and  C_3
REMARK    3  A    between atoms: C_3  and  N_4
REMARK    4  A    between atoms: C_3  and  C_18
REMARK    5  A    between atoms: C_5  and  C_7
REMARK    6  A    between atoms: N_13  and  C_14
REMARK    7  A    between atoms: C_21  and  O_22
REMARK    8  A    between atoms: O_22  and  C_23
REMARK    9  A    between atoms: C_23  and  C_24
REMARK                            x       y       z     vdW  Elec       q    Type
REMARK                         _______ _______ _______ _____ _____    ______ ____
ROOT
ATOM      1  C   UNL     1      47.926   7.479  13.259  0.00  0.00    +0.000 C 
ENDROOT
BRANCH   1   2
ATOM      2  C   UNL     1      46.886   6.513  12.709  0.00  0.00    +0.000 A 
ATOM      3  C   UNL     1      46.274   6.780  11.473  0.00  0.00    +0.000 A 
ATOM      4  C   UNL     1      45.415   5.846  10.886  0.00  0.00    +0.000 A 
ATOM      5  C   UNL     1      45.164   4.629  11.518  0.00  0.00    +0.000 A 
ATOM      6  C   UNL     1      45.674   4.404  12.793  0.00  0.00    +0.000 A 
ATOM      7  C   UNL     1      46.519   5.342  13.387  0.00  0.00    +0.000 A 
BRANCH   5   8
ATOM      8  O   UNL     1      44.416   3.725  10.813  0.00  0.00    +0.000 OA
BRANCH   8   9
ATOM      9  C   UNL     1      44.241   4.053   9.428  0.00  0.00    +0.000 C 
BRANCH   9  10
ATOM     10  C   UNL     1      45.276   3.342   8.591  0.00  0.00    +0.000 A 
ATOM     11  C   UNL     1      45.507   1.979   8.781  0.00  0.00    +0.000 A 
ATOM     12  C   UNL     1      46.434   1.335   7.971  0.00  0.00    +0.000 A 
ATOM     13  C   UNL     1      47.102   2.061   6.994  0.00  0.00    +0.000 A 
ATOM     14  C   UNL     1      46.808   3.407   6.861  0.00  0.00    +0.000 A 
ATOM     15  N   UNL     1      45.909   4.060   7.629  0.00  0.00    +0.000 NA
ENDBRANCH   9  10
ENDBRANCH   8   9
ENDBRANCH   5   8
ENDBRANCH   1   2
BRANCH   1  16
ATOM     16  N   UNL     1      47.922   7.441  14.709  0.00  0.00    +0.000 N 
ATOM     17  C   UNL     1      48.398   8.448  15.505  0.00  0.00    +0.000 C 
ATOM     18  O   UNL     1      48.891   9.475  15.045  0.00  0.00    +0.000 OA
ATOM     19  H   UNL     1      47.372   6.699  15.128  0.00  0.00    +0.000 HD
BRANCH  17  20
ATOM     20  C   UNL     1      48.343   8.207  16.956  0.00  0.00    +0.000 A 
ATOM     21  C   UNL     1      47.942   9.226  17.809  0.00  0.00    +0.000 A 
ATOM     22  S   UNL     1      47.943   8.781  19.455  0.00  0.00    +0.000 S 
ATOM     23  C   UNL     1      48.431   7.194  19.083  0.00  0.00    +0.000 A 
ATOM     24  N   UNL     1      48.571   6.261  20.057  0.00  0.00    +0.000 NA
ATOM     25  C   UNL     1      48.890   5.083  19.629  0.00  0.00    +0.000 A 
ATOM     26  N   UNL     1      49.118   4.749  18.312  0.00  0.00    +0.000 N 
ATOM     27  C   UNL     1      49.468   3.393  17.936  0.00  0.00    +0.000 C 
ATOM     28  C   UNL     1      49.074   5.699  17.302  0.00  0.00    +0.000 A 
ATOM     29  O   UNL     1      49.410   5.453  16.147  0.00  0.00    +0.000 OA
ATOM     30  C   UNL     1      48.637   7.018  17.728  0.00  0.00    +0.000 A 
ENDBRANCH  17  20
ENDBRANCH   1  16
BRANCH   1  32
ATOM     31  C   UNL     1      49.827   8.160  11.668  0.00  0.00    +0.000 C 
ATOM     32  C   UNL     1      49.369   7.214  12.771  0.00  0.00    +0.000 C 
ENDBRANCH   1  32
TORSDOF 7
ENDMDL
MODEL 3
REMARK VINA RESULT:    -7.697      1.528      2.224
REMARK INTER + INTRA:         -12.230
REMARK INTER:                 -11.136
REMARK INTRA:                  -1.094
REMARK UNBOUND:                -1.383
REMARK  Name = 
REMARK  9 active torsions:
REMARK  status: ('A' for Active; 'I' for Inactive)
REMARK    1  A    between atoms: C_1  and  C_2
REMARK    2  A    between atoms: C_2  and  C_3
REMARK    3  A    between atoms: C_3  and  N_4
REMARK    4  A    between atoms: C_3  and  C_18
REMARK    5  A    between atoms: C_5  and  C_7
REMARK    6  A    between atoms: N_13  and  C_14
REMARK    7  A    between atoms: C_21  and  O_22
REMARK    8  A    between atoms: O_22  and  C_23
REMARK    9  A    between atoms: C_23  and  C_24
REMARK                            x       y       z     vdW  Elec       q    Type
REMARK                         _______ _______ _______ _____ _____    ______ ____
ROOT
ATOM      1  C   UNL     1      47.573   6.686  13.118  0.00  0.00    +0.000 C 
ENDROOT
BRANCH   1   2
ATOM      2  C   UNL     1      46.529   5.872  12.367  0.00  0.00    +0.000 A 
ATOM      3  C   UNL     1      46.006   6.359  11.157  0.00  0.00    +0.000 A 
ATOM      4  C   UNL     1      45.147   5.573  10.383  0.00  0.00    +0.000 A 
ATOM      5  C   UNL     1      44.805   4.288  10.801  0.00  0.00    +0.000 A 
ATOM      6  C   UNL     1      45.225   3.841  12.051  0.00  0.00    +0.000 A 
ATOM      7  C   UNL     1      46.071   4.631  12.830  0.00  0.00    +0.000 A 
BRANCH   5   8
ATOM      8  O   UNL     1      44.064   3.544   9.923  0.00  0.00    +0.000 OA
BRANCH   8   9
ATOM      9  C   UNL     1      44.571   2.222   9.692  0.00  0.00    +0.000 C 
BRANCH   9  10
ATOM     10  C   UNL     1      45.489   2.219   8.494  0.00  0.00    +0.000 A 
ATOM     11  C   UNL     1      45.546   3.335   7.660  0.00  0.00    +0.000 A 
ATOM     12  C   UNL     1      46.428   3.328   6.586  0.00  0.00    +0.000 A 
ATOM     13  C   UNL     1      47.230   2.214   6.375  0.00  0.00    +0.000 A 
ATOM     14  C   UNL     1      47.122   1.151   7.255  0.00  0.00    +0.000 A 
ATOM     15  N   UNL     1      46.279   1.130   8.310  0.00  0.00    +0.000 NA
ENDBRANCH   9  10
ENDBRANCH   8   9
ENDBRANCH   5   8
ENDBRANCH   1   2
BRANCH   1  16
ATOM     16  N   UNL     1      47.977   5.985  14.322  0.00  0.00    +0.000 N 
ATOM     17  C   UNL     1      48.368   6.606  15.477  0.00  0.00    +0.000 C 
ATOM     18  O   UNL     1      48.425   7.829  15.583  0.00  0.00    +0.000 OA
ATOM     19  H   UNL     1      47.781   4.990  14.338  0.00  0.00    +0.000 HD
BRANCH  17  20
ATOM     20  C   UNL     1      48.781   5.722  16.580  0.00  0.00    +0.000 A 
ATOM     21  C   UNL     1      47.826   4.985  17.267  0.00  0.00    +0.000 A 
ATOM     22  S   UNL     1      48.473   4.021  18.516  0.00  0.00    +0.000 S 
ATOM     23  C   UNL     1      50.059   4.515  18.150  0.00  0.00    +0.000 A 
ATOM     24  N   UNL     1      51.120   4.009  18.827  0.00  0.00    +0.000 NA
ATOM     25  C   UNL     1      52.271   4.426  18.409  0.00  0.00    +0.000 A 
ATOM     26  N   UNL     1      52.467   5.334  17.391  0.00  0.00    +0.000 N 
ATOM     27  C   UNL     1      53.804   5.733  16.996  0.00  0.00    +0.000 C 
ATOM     28  C   UNL     1      51.402   5.940  16.740  0.00  0.00    +0.000 A 
ATOM     29  O   UNL     1      51.553   6.851  15.932  0.00  0.00    +0.000 OA
ATOM     30  C   UNL     1      50.093   5.438  17.123  0.00  0.00    +0.000 A 
ENDBRANCH  17  20
ENDBRANCH   1  16
BRANCH   1  32
ATOM     31  C   UNL     1      48.985   8.492  11.956  0.00  0.00    +0.000 C 
ATOM     32  C   UNL     1      48.842   7.015  12.298  0.00  0.00    +0.000 C 
ENDBRANCH   1  32
TORSDOF 7
ENDMDL
MODEL 4
REMARK VINA RESULT:    -7.695      2.610      3.719
REMARK INTER + INTRA:         -12.227
REMARK INTER:                 -11.010
REMARK INTRA:                  -1.216
REMARK UNBOUND:                -1.383
REMARK  Name = 
REMARK  9 active torsions:
REMARK  status: ('A' for Active; 'I' for Inactive)
REMARK    1  A    between atoms: C_1  and  C_2
REMARK    2  A    between atoms: C_2  and  C_3
REMARK    3  A    between atoms: C_3  and  N_4
REMARK    4  A    between atoms: C_3  and  C_18
REMARK    5  A    between atoms: C_5  and  C_7
REMARK    6  A    between atoms: N_13  and  C_14
REMARK    7  A    between atoms: C_21  and  O_22
REMARK    8  A    between atoms: O_22  and  C_23
REMARK    9  A    between atoms: C_23  and  C_24
REMARK                            x       y       z     vdW  Elec       q    Type
REMARK                         _______ _______ _______ _____ _____    ______ ____
ROOT
ATOM      1  C   UNL     1      47.598   4.906  14.730  0.00  0.00    +0.000 C 
ENDROOT
BRANCH   1   2
ATOM      2  C   UNL     1      46.662   4.691  13.550  0.00  0.00    +0.000 A 
ATOM      3  C   UNL     1      46.413   5.748  12.658  0.00  0.00    +0.000 A 
ATOM      4  C   UNL     1      45.664   5.539  11.496  0.00  0.00    +0.000 A 
ATOM      5  C   UNL     1      45.162   4.272  11.203  0.00  0.00    +0.000 A 
ATOM      6  C   UNL     1      45.306   3.248  12.135  0.00  0.00    +0.000 A 
ATOM      7  C   UNL     1      46.040   3.459  13.301  0.00  0.00    +0.000 A 
BRANCH   5   8
ATOM      8  O   UNL     1      44.551   4.131   9.986  0.00  0.00    +0.000 OA
BRANCH   8   9
ATOM      9  C   UNL     1      44.445   2.774   9.532  0.00  0.00    +0.000 C 
BRANCH   9  10
ATOM     10  C   UNL     1      45.469   2.504   8.457  0.00  0.00    +0.000 A 
ATOM     11  C   UNL     1      45.844   3.523   7.582  0.00  0.00    +0.000 A 
ATOM     12  C   UNL     1      46.820   3.264   6.627  0.00  0.00    +0.000 A 
ATOM     13  C   UNL     1      47.397   2.003   6.571  0.00  0.00    +0.000 A 
ATOM     14  C   UNL     1      46.978   1.049   7.483  0.00  0.00    +0.000 A 
ATOM     15  N   UNL     1      46.037   1.271   8.425  0.00  0.00    +0.000 NA
ENDBRANCH   9  10
ENDBRANCH   8   9
ENDBRANCH   5   8
ENDBRANCH   1   2
BRANCH   1  16
ATOM     16  N   UNL     1      47.811   6.326  14.944  0.00  0.00    +0.000 N 
ATOM     17  C   UNL     1      48.944   6.857  15.498  0.00  0.00    +0.000 C 
ATOM     18  O   UNL     1      49.881   6.161  15.881  0.00  0.00    +0.000 OA
ATOM     19  H   UNL     1      47.147   6.943  14.490  0.00  0.00    +0.000 HD
BRANCH  17  20
ATOM     20  C   UNL     1      48.955   8.320  15.670  0.00  0.00    +0.000 A 
ATOM     21  C   UNL     1      49.406   9.131  14.638  0.00  0.00    +0.000 A 
ATOM     22  S   UNL     1      49.359  10.796  15.006  0.00  0.00    +0.000 S 
ATOM     23  C   UNL     1      48.687  10.494  16.539  0.00  0.00    +0.000 A 
ATOM     24  N   UNL     1      48.348  11.515  17.364  0.00  0.00    +0.000 NA
ATOM     25  C   UNL     1      47.794  11.147  18.474  0.00  0.00    +0.000 A 
ATOM     26  N   UNL     1      47.574   9.842  18.860  0.00  0.00    +0.000 N 
ATOM     27  C   UNL     1      46.941   9.536  20.127  0.00  0.00    +0.000 C 
ATOM     28  C   UNL     1      47.993   8.773  18.081  0.00  0.00    +0.000 A 
ATOM     29  O   UNL     1      47.935   7.610  18.469  0.00  0.00    +0.000 OA
ATOM     30  C   UNL     1      48.544   9.143  16.788  0.00  0.00    +0.000 A 
ENDBRANCH  17  20
ENDBRANCH   1  16
BRANCH   1  32
ATOM     31  C   UNL     1      48.026   3.191  16.596  0.00  0.00    +0.000 C 
ATOM     32  C   UNL     1      47.111   4.283  16.058  0.00  0.00    +0.000 C 
ENDBRANCH   1  32
TORSDOF 7
ENDMDL
MODEL 5
REMARK VINA RESULT:    -6.970      1.284      1.671
REMARK INTER + INTRA:         -11.205
REMARK INTER:                  -9.601
REMARK INTRA:                  -1.604
REMARK UNBOUND:                -1.383
REMARK  Name = 
REMARK  9 active torsions:
REMARK  status: ('A' for Active; 'I' for Inactive)
REMARK    1  A    between atoms: C_1  and  C_2
REMARK    2  A    between atoms: C_2  and  C_3
REMARK    3  A    between atoms: C_3  and  N_4
REMARK    4  A    between atoms: C_3  and  C_18
REMARK    5  A    between atoms: C_5  and  C_7
REMARK    6  A    between atoms: N_13  and  C_14
REMARK    7  A    between atoms: C_21  and  O_22
REMARK    8  A    between atoms: O_22  and  C_23
REMARK    9  A    between atoms: C_23  and  C_24
REMARK                            x       y       z     vdW  Elec       q    Type
REMARK                         _______ _______ _______ _____ _____    ______ ____
ROOT
ATOM      1  C   UNL     1      47.814   8.653  13.629  0.00  0.00    +0.000 C 
ENDROOT
BRANCH   1   2
ATOM      2  C   UNL     1      46.899   7.602  13.019  0.00  0.00    +0.000 A 
ATOM      3  C   UNL     1      47.334   6.270  12.926  0.00  0.00    +0.000 A 
ATOM      4  C   UNL     1      46.465   5.264  12.492  0.00  0.00    +0.000 A 
ATOM      5  C   UNL     1      45.148   5.572  12.155  0.00  0.00    +0.000 A 
ATOM      6  C   UNL     1      44.741   6.903  12.135  0.00  0.00    +0.000 A 
ATOM      7  C   UNL     1      45.612   7.909  12.553  0.00  0.00    +0.000 A 
BRANCH   5   8
ATOM      8  O   UNL     1      44.335   4.510  11.865  0.00  0.00    +0.000 OA
BRANCH   8   9
ATOM      9  C   UNL     1      43.736   4.562  10.562  0.00  0.00    +0.000 C 
BRANCH   9  10
ATOM     10  C   UNL     1      44.579   3.796   9.572  0.00  0.00    +0.000 A 
ATOM     11  C   UNL     1      45.367   4.486   8.651  0.00  0.00    +0.000 A 
ATOM     12  C   UNL     1      46.167   3.762   7.775  0.00  0.00    +0.000 A 
ATOM     13  C   UNL     1      46.165   2.375   7.843  0.00  0.00    +0.000 A 
ATOM     14  C   UNL     1      45.363   1.766   8.793  0.00  0.00    +0.000 A 
ATOM     15  N   UNL     1      44.579   2.442   9.661  0.00  0.00    +0.000 NA
ENDBRANCH   9  10
ENDBRANCH   8   9
ENDBRANCH   5   8
ENDBRANCH   1   2
BRANCH   1  16
ATOM     16  N   UNL     1      48.675   8.045  14.626  0.00  0.00    +0.000 N 
ATOM     17  C   UNL     1      48.669   8.380  15.953  0.00  0.00    +0.000 C 
ATOM     18  O   UNL     1      47.933   9.250  16.411  0.00  0.00    +0.000 OA
ATOM     19  H   UNL     1      49.169   7.210  14.330  0.00  0.00    +0.000 HD
BRANCH  17  20
ATOM     20  C   UNL     1      49.645   7.678  16.802  0.00  0.00    +0.000 A 
ATOM     21  C   UNL     1      50.644   8.397  17.443  0.00  0.00    +0.000 A 
ATOM     22  S   UNL     1      51.691   7.430  18.380  0.00  0.00    +0.000 S 
ATOM     23  C   UNL     1      50.817   6.021  18.002  0.00  0.00    +0.000 A 
ATOM     24  N   UNL     1      51.162   4.823  18.535  0.00  0.00    +0.000 NA
ATOM     25  C   UNL     1      50.379   3.845  18.211  0.00  0.00    +0.000 A 
ATOM     26  N   UNL     1      49.291   3.942  17.369  0.00  0.00    +0.000 N 
ATOM     27  C   UNL     1      48.473   2.783  17.073  0.00  0.00    +0.000 C 
ATOM     28  C   UNL     1      48.966   5.132  16.735  0.00  0.00    +0.000 A 
ATOM     29  O   UNL     1      48.091   5.207  15.877  0.00  0.00    +0.000 OA
ATOM     30  C   UNL     1      49.770   6.274  17.137  0.00  0.00    +0.000 A 
ENDBRANCH  17  20
ENDBRANCH   1  16
BRANCH   1  32
ATOM     31  C   UNL     1      50.108   8.821  12.480  0.00  0.00    +0.000 C 
ATOM     32  C   UNL     1      48.705   9.399  12.608  0.00  0.00    +0.000 C 
ENDBRANCH   1  32
TORSDOF 7
ENDMDL
MODEL 6
REMARK VINA RESULT:    -6.534      2.037      2.643
REMARK INTER + INTRA:         -10.592
REMARK INTER:                  -9.028
REMARK INTRA:                  -1.563
REMARK UNBOUND:                -1.383
REMARK  Name = 
REMARK  9 active torsions:
REMARK  status: ('A' for Active; 'I' for Inactive)
REMARK    1  A    between atoms: C_1  and  C_2
REMARK    2  A    between atoms: C_2  and  C_3
REMARK    3  A    between atoms: C_3  and  N_4
REMARK    4  A    between atoms: C_3  and  C_18
REMARK    5  A    between atoms: C_5  and  C_7
REMARK    6  A    between atoms: N_13  and  C_14
REMARK    7  A    between atoms: C_21  and  O_22
REMARK    8  A    between atoms: O_22  and  C_23
REMARK    9  A    between atoms: C_23  and  C_24
REMARK                            x       y       z     vdW  Elec       q    Type
REMARK                         _______ _______ _______ _____ _____    ______ ____
ROOT
ATOM      1  C   UNL     1      48.928   8.827  14.323  0.00  0.00    +0.000 C 
ENDROOT
BRANCH   1   2
ATOM      2  C   UNL     1      47.823   8.119  13.554  0.00  0.00    +0.000 A 
ATOM      3  C   UNL     1      46.570   8.738  13.408  0.00  0.00    +0.000 A 
ATOM      4  C   UNL     1      45.583   8.169  12.597  0.00  0.00    +0.000 A 
ATOM      5  C   UNL     1      45.836   6.980  11.914  0.00  0.00    +0.000 A 
ATOM      6  C   UNL     1      47.030   6.302  12.141  0.00  0.00    +0.000 A 
ATOM      7  C   UNL     1      48.009   6.861  12.961  0.00  0.00    +0.000 A 
BRANCH   5   8
ATOM      8  O   UNL     1      44.863   6.564  11.045  0.00  0.00    +0.000 OA
BRANCH   8   9
ATOM      9  C   UNL     1      44.366   5.243  11.302  0.00  0.00    +0.000 C 
BRANCH   9  10
ATOM     10  C   UNL     1      44.718   4.324  10.159  0.00  0.00    +0.000 A 
ATOM     11  C   UNL     1      45.459   4.808   9.080  0.00  0.00    +0.000 A 
ATOM     12  C   UNL     1      45.808   3.934   8.058  0.00  0.00    +0.000 A 
ATOM     13  C   UNL     1      45.415   2.604   8.138  0.00  0.00    +0.000 A 
ATOM     14  C   UNL     1      44.691   2.200   9.247  0.00  0.00    +0.000 A 
ATOM     15  N   UNL     1      44.341   3.023  10.258  0.00  0.00    +0.000 NA
ENDBRANCH   9  10
ENDBRANCH   8   9
ENDBRANCH   5   8
ENDBRANCH   1   2
BRANCH   1  16
ATOM     16  N   UNL     1      49.149   8.168  15.596  0.00  0.00    +0.000 N 
ATOM     17  C   UNL     1      48.572   8.560  16.773  0.00  0.00    +0.000 C 
ATOM     18  O   UNL     1      47.820   9.529  16.850  0.00  0.00    +0.000 OA
ATOM     19  H   UNL     1      49.618   7.270  15.551  0.00  0.00    +0.000 HD
BRANCH  17  20
ATOM     20  C   UNL     1      48.951   7.788  17.969  0.00  0.00    +0.000 A 
ATOM     21  C   UNL     1      49.500   8.440  19.064  0.00  0.00    +0.000 A 
ATOM     22  S   UNL     1      49.887   7.399  20.358  0.00  0.00    +0.000 S 
ATOM     23  C   UNL     1      49.289   6.045  19.519  0.00  0.00    +0.000 A 
ATOM     24  N   UNL     1      49.274   4.818  20.096  0.00  0.00    +0.000 NA
ATOM     25  C   UNL     1      48.739   3.890  19.371  0.00  0.00    +0.000 A 
ATOM     26  N   UNL     1      48.241   4.063  18.097  0.00  0.00    +0.000 N 
ATOM     27  C   UNL     1      47.657   2.954  17.368  0.00  0.00    +0.000 C 
ATOM     28  C   UNL     1      48.325   5.283  17.442  0.00  0.00    +0.000 A 
ATOM     29  O   UNL     1      48.018   5.423  16.262  0.00  0.00    +0.000 OA
ATOM     30  C   UNL     1      48.843   6.373  18.253  0.00  0.00    +0.000 A 
ENDBRANCH  17  20
ENDBRANCH   1  16
BRANCH   1  32
ATOM     31  C   UNL     1      50.228   9.734  12.299  0.00  0.00    +0.000 C 
ATOM     32  C   UNL     1      50.280   8.907  13.576  0.00  0.00    +0.000 C 
ENDBRANCH   1  32
TORSDOF 7
ENDMDL
MODEL 7
REMARK VINA RESULT:    -6.428      2.706      8.364
REMARK INTER + INTRA:         -10.442
REMARK INTER:                 -10.065
REMARK INTRA:                  -0.377
REMARK UNBOUND:                -1.383
REMARK  Name = 
REMARK  9 active torsions:
REMARK  status: ('A' for Active; 'I' for Inactive)
REMARK    1  A    between atoms: C_1  and  C_2
REMARK    2  A    between atoms: C_2  and  C_3
REMARK    3  A    between atoms: C_3  and  N_4
REMARK    4  A    between atoms: C_3  and  C_18
REMARK    5  A    between atoms: C_5  and  C_7
REMARK    6  A    between atoms: N_13  and  C_14
REMARK    7  A    between atoms: C_21  and  O_22
REMARK    8  A    between atoms: O_22  and  C_23
REMARK    9  A    between atoms: C_23  and  C_24
REMARK                            x       y       z     vdW  Elec       q    Type
REMARK                         _______ _______ _______ _____ _____    ______ ____
ROOT
ATOM      1  C   UNL     1      46.541   8.252  12.096  0.00  0.00    +0.000 C 
ENDROOT
BRANCH   1   2
ATOM      2  C   UNL     1      47.680   8.185  13.103  0.00  0.00    +0.000 A 
ATOM      3  C   UNL     1      47.534   8.796  14.359  0.00  0.00    +0.000 A 
ATOM      4  C   UNL     1      48.510   8.637  15.348  0.00  0.00    +0.000 A 
ATOM      5  C   UNL     1      49.640   7.859  15.099  0.00  0.00    +0.000 A 
ATOM      6  C   UNL     1      49.849   7.345  13.822  0.00  0.00    +0.000 A 
ATOM      7  C   UNL     1      48.882   7.516  12.831  0.00  0.00    +0.000 A 
BRANCH   5   8
ATOM      8  O   UNL     1      50.478   7.654  16.162  0.00  0.00    +0.000 OA
BRANCH   8   9
ATOM      9  C   UNL     1      49.825   7.181  17.348  0.00  0.00    +0.000 C 
BRANCH   9  10
ATOM     10  C   UNL     1      49.625   5.687  17.272  0.00  0.00    +0.000 A 
ATOM     11  C   UNL     1      50.692   4.828  17.537  0.00  0.00    +0.000 A 
ATOM     12  C   UNL     1      50.476   3.456  17.502  0.00  0.00    +0.000 A 
ATOM     13  C   UNL     1      49.206   2.977  17.208  0.00  0.00    +0.000 A 
ATOM     14  C   UNL     1      48.198   3.894  16.967  0.00  0.00    +0.000 A 
ATOM     15  N   UNL     1      48.375   5.233  16.999  0.00  0.00    +0.000 NA
ENDBRANCH   9  10
ENDBRANCH   8   9
ENDBRANCH   5   8
ENDBRANCH   1   2
BRANCH   1  16
ATOM     16  N   UNL     1      46.045   6.917  11.818  0.00  0.00    +0.000 N 
ATOM     17  C   UNL     1      44.773   6.645  11.392  0.00  0.00    +0.000 C 
ATOM     18  O   UNL     1      43.930   7.523  11.226  0.00  0.00    +0.000 OA
ATOM     19  H   UNL     1      46.747   6.187  11.773  0.00  0.00    +0.000 HD
BRANCH  17  20
ATOM     20  C   UNL     1      44.445   5.222  11.202  0.00  0.00    +0.000 A 
ATOM     21  C   UNL     1      43.633   4.573  12.122  0.00  0.00    +0.000 A 
ATOM     22  S   UNL     1      43.360   2.930  11.754  0.00  0.00    +0.000 S 
ATOM     23  C   UNL     1      44.275   3.040  10.325  0.00  0.00    +0.000 A 
ATOM     24  N   UNL     1      44.402   1.976   9.495  0.00  0.00    +0.000 NA
ATOM     25  C   UNL     1      45.076   2.214   8.416  0.00  0.00    +0.000 A 
ATOM     26  N   UNL     1      45.671   3.416   8.098  0.00  0.00    +0.000 N 
ATOM     27  C   UNL     1      46.404   3.580   6.858  0.00  0.00    +0.000 C 
ATOM     28  C   UNL     1      45.639   4.496   8.968  0.00  0.00    +0.000 A 
ATOM     29  O   UNL     1      46.279   5.525   8.769  0.00  0.00    +0.000 OA
ATOM     30  C   UNL     1      44.822   4.297  10.153  0.00  0.00    +0.000 A 
ENDBRANCH  17  20
ENDBRANCH   1  16
BRANCH   1  32
ATOM     31  C   UNL     1      45.305  10.492  11.849  0.00  0.00    +0.000 C 
ATOM     32  C   UNL     1      45.348   9.132  12.533  0.00  0.00    +0.000 C 
ENDBRANCH   1  32
TORSDOF 7
ENDMDL
MODEL 8
REMARK VINA RESULT:    -5.569      3.372      7.668
REMARK INTER + INTRA:          -9.231
REMARK INTER:                  -7.519
REMARK INTRA:                  -1.711
REMARK UNBOUND:                -1.383
REMARK  Name = 
REMARK  9 active torsions:
REMARK  status: ('A' for Active; 'I' for Inactive)
REMARK    1  A    between atoms: C_1  and  C_2
REMARK    2  A    between atoms: C_2  and  C_3
REMARK    3  A    between atoms: C_3  and  N_4
REMARK    4  A    between atoms: C_3  and  C_18
REMARK    5  A    between atoms: C_5  and  C_7
REMARK    6  A    between atoms: N_13  and  C_14
REMARK    7  A    between atoms: C_21  and  O_22
REMARK    8  A    between atoms: O_22  and  C_23
REMARK    9  A    between atoms: C_23  and  C_24
REMARK                            x       y       z     vdW  Elec       q    Type
REMARK                         _______ _______ _______ _____ _____    ______ ____
ROOT
ATOM      1  C   UNL     1      50.529   8.990  14.614  0.00  0.00    +0.000 C 
ENDROOT
BRANCH   1   2
ATOM      2  C   UNL     1      50.687   8.161  15.881  0.00  0.00    +0.000 A 
ATOM      3  C   UNL     1      49.974   8.517  17.038  0.00  0.00    +0.000 A 
ATOM      4  C   UNL     1      49.999   7.698  18.171  0.00  0.00    +0.000 A 
ATOM      5  C   UNL     1      50.727   6.509  18.162  0.00  0.00    +0.000 A 
ATOM      6  C   UNL     1      51.527   6.206  17.063  0.00  0.00    +0.000 A 
ATOM      7  C   UNL     1      51.514   7.030  15.938  0.00  0.00    +0.000 A 
BRANCH   5   8
ATOM      8  O   UNL     1      50.593   5.709  19.264  0.00  0.00    +0.000 OA
BRANCH   8   9
ATOM      9  C   UNL     1      49.248   5.284  19.526  0.00  0.00    +0.000 C 
BRANCH   9  10
ATOM     10  C   UNL     1      48.744   4.426  18.392  0.00  0.00    +0.000 A 
ATOM     11  C   UNL     1      47.600   4.804  17.689  0.00  0.00    +0.000 A 
ATOM     12  C   UNL     1      47.178   4.022  16.621  0.00  0.00    +0.000 A 
ATOM     13  C   UNL     1      47.904   2.888  16.281  0.00  0.00    +0.000 A 
ATOM     14  C   UNL     1      49.034   2.587  17.022  0.00  0.00    +0.000 A 
ATOM     15  N   UNL     1      49.473   3.330  18.061  0.00  0.00    +0.000 NA
ENDBRANCH   9  10
ENDBRANCH   8   9
ENDBRANCH   5   8
ENDBRANCH   1   2
BRANCH   1  16
ATOM     16  N   UNL     1      49.185   8.845  14.089  0.00  0.00    +0.000 N 
ATOM     17  C   UNL     1      48.863   8.069  13.008  0.00  0.00    +0.000 C 
ATOM     18  O   UNL     1      49.705   7.437  12.374  0.00  0.00    +0.000 OA
ATOM     19  H   UNL     1      48.442   9.204  14.677  0.00  0.00    +0.000 HD
BRANCH  17  20
ATOM     20  C   UNL     1      47.448   8.081  12.601  0.00  0.00    +0.000 A 
ATOM     21  C   UNL     1      46.847   9.277  12.231  0.00  0.00    +0.000 A 
ATOM     22  S   UNL     1      45.207   9.113  11.796  0.00  0.00    +0.000 S 
ATOM     23  C   UNL     1      45.254   7.430  12.037  0.00  0.00    +0.000 A 
ATOM     24  N   UNL     1      44.167   6.659  11.784  0.00  0.00    +0.000 NA
ATOM     25  C   UNL     1      44.358   5.390  11.954  0.00  0.00    +0.000 A 
ATOM     26  N   UNL     1      45.532   4.813  12.388  0.00  0.00    +0.000 N 
ATOM     27  C   UNL     1      45.643   3.376  12.542  0.00  0.00    +0.000 C 
ATOM     28  C   UNL     1      46.633   5.580  12.743  0.00  0.00    +0.000 A 
ATOM     29  O   UNL     1      47.634   5.098  13.264  0.00  0.00    +0.000 OA
ATOM     30  C   UNL     1      46.488   7.004  12.488  0.00  0.00    +0.000 A 
ENDBRANCH  17  20
ENDBRANCH   1  16
BRANCH   1  32
ATOM     31  C   UNL     1      52.272  10.807  15.132  0.00  0.00    +0.000 C 
ATOM     32  C   UNL     1      50.820  10.498  14.794  0.00  0.00    +0.000 C 
ENDBRANCH   1  32
TORSDOF 7
ENDMDL
