MODEL 1
REMARK VINA RESULT:    -7.664      0.000      0.000
REMARK INTER + INTRA:         -10.628
REMARK INTER:                  -9.904
REMARK INTRA:                  -0.724
REMARK UNBOUND:                -0.724
REMARK  Name = 
REMARK  8 active torsions:
REMARK  status: ('A' for Active; 'I' for Inactive)
REMARK    1  A    between atoms: C_1  and  N_2
REMARK    2  A    between atoms: C_8  and  C_9
REMARK    3  A    between atoms: N_11  and  C_12
REMARK    4  A    between atoms: C_12  and  C_13
REMARK    5  A    between atoms: C_12  and  C_14
REMARK    6  A    between atoms: C_12  and  C_15
REMARK    7  A    between atoms: C_18  and  O_19
REMARK    8  A    between atoms: O_19  and  C_20
REMARK                            x       y       z     vdW  Elec       q    Type
REMARK                         _______ _______ _______ _____ _____    ______ ____
ROOT
ATOM      1  C   UNL     1      46.453   7.396  12.639  0.00  0.00    +0.000 C 
ATOM      2  C   UNL     1      45.359   8.459  12.897  0.00  0.00    +0.000 C 
ATOM      3  C   UNL     1      47.734   8.135  12.204  0.00  0.00    +0.000 C 
ENDROOT
BRANCH   1   4
ATOM      4  C   UNL     1      45.900   6.424  11.587  0.00  0.00    +0.000 A 
ATOM      5  C   UNL     1      44.800   5.599  11.894  0.00  0.00    +0.000 A 
ATOM      6  C   UNL     1      44.316   4.666  10.978  0.00  0.00    +0.000 A 
ATOM      7  C   UNL     1      44.852   4.610   9.693  0.00  0.00    +0.000 A 
ATOM      8  C   UNL     1      45.932   5.425   9.363  0.00  0.00    +0.000 A 
ATOM      9  C   UNL     1      46.451   6.325  10.298  0.00  0.00    +0.000 A 
BRANCH   7  10
ATOM     10  O   UNL     1      44.422   3.746   8.711  0.00  0.00    +0.000 OA
BRANCH  10  11
ATOM     11  C   UNL     1      45.329   2.945   8.081  0.00  0.00    +0.000 A 
ATOM     12  C   UNL     1      46.054   3.252   6.948  0.00  0.00    +0.000 A 
ATOM     13  N   UNL     1      46.921   2.404   6.354  0.00  0.00    +0.000 NA
ATOM     14  C   UNL     1      47.082   1.220   6.967  0.00  0.00    +0.000 A 
ATOM     15  N   UNL     1      46.481   0.830   8.102  0.00  0.00    +0.000 NA
ATOM     16  C   UNL     1      45.615   1.718   8.637  0.00  0.00    +0.000 A 
ENDBRANCH  10  11
ENDBRANCH   7  10
ENDBRANCH   1   4
BRANCH   1  19
ATOM     17  C   UNL     1      47.606   5.674  14.079  0.00  0.00    +0.000 C 
ATOM     18  O   UNL     1      48.222   5.152  13.157  0.00  0.00    +0.000 OA
ATOM     19  N   UNL     1      46.717   6.708  13.910  0.00  0.00    +0.000 N 
ATOM     20  H   UNL     1      46.410   7.202  14.738  0.00  0.00    +0.000 HD
BRANCH  17  28
ATOM     21  C   UNL     1      50.163   8.555  18.287  0.00  0.00    +0.000 C 
ATOM     22  N   UNL     1      49.490   7.295  18.057  0.00  0.00    +0.000 N 
ATOM     23  C   UNL     1      49.331   6.381  19.077  0.00  0.00    +0.000 A 
ATOM     24  N   UNL     1      48.732   5.238  18.975  0.00  0.00    +0.000 NA
ATOM     25  C   UNL     1      48.251   4.965  17.737  0.00  0.00    +0.000 A 
ATOM     26  S   UNL     1      47.465   3.491  17.409  0.00  0.00    +0.000 S 
ATOM     27  C   UNL     1      47.241   3.909  15.771  0.00  0.00    +0.000 A 
ATOM     28  C   UNL     1      47.730   5.171  15.453  0.00  0.00    +0.000 A 
ATOM     29  C   UNL     1      48.320   5.776  16.621  0.00  0.00    +0.000 A 
ATOM     30  C   UNL     1      48.976   7.062  16.786  0.00  0.00    +0.000 A 
ATOM     31  O   UNL     1      49.043   7.891  15.887  0.00  0.00    +0.000 OA
ENDBRANCH  17  28
ENDBRANCH   1  19
TORSDOF 5
ENDMDL
MODEL 2
REMARK VINA RESULT:    -7.633      1.997      3.028
REMARK INTER + INTRA:         -10.589
REMARK INTER:                 -10.525
REMARK INTRA:                  -0.064
REMARK UNBOUND:                -0.724
REMARK  Name = 
REMARK  8 active torsions:
REMARK  status: ('A' for Active; 'I' for Inactive)
REMARK    1  A    between atoms: C_1  and  N_2
REMARK    2  A    between atoms: C_8  and  C_9
REMARK    3  A    between atoms: N_11  and  C_12
REMARK    4  A    between atoms: C_12  and  C_13
REMARK    5  A    between atoms: C_12  and  C_14
REMARK    6  A    between atoms: C_12  and  C_15
REMARK    7  A    between atoms: C_18  and  O_19
REMARK    8  A    between atoms: O_19  and  C_20
REMARK                            x       y       z     vdW  Elec       q    Type
REMARK                         _______ _______ _______ _____ _____    ______ ____
ROOT
ATOM      1  C   UNL     1      44.489   6.004  12.374  0.00  0.00    +0.000 C 
ATOM      2  C   UNL     1      43.262   5.568  13.209  0.00  0.00    +0.000 C 
ATOM      3  C   UNL     1      44.164   7.370  11.738  0.00  0.00    +0.000 C 
ENDROOT
BRANCH   1   4
ATOM      4  C   UNL     1      44.765   4.887  11.358  0.00  0.00    +0.000 A 
ATOM      5  C   UNL     1      45.066   5.205  10.019  0.00  0.00    +0.000 A 
ATOM      6  C   UNL     1      45.263   4.209   9.063  0.00  0.00    +0.000 A 
ATOM      7  C   UNL     1      45.269   2.869   9.446  0.00  0.00    +0.000 A 
ATOM      8  C   UNL     1      44.985   2.531  10.767  0.00  0.00    +0.000 A 
ATOM      9  C   UNL     1      44.737   3.528  11.715  0.00  0.00    +0.000 A 
BRANCH   7  10
ATOM     10  O   UNL     1      45.484   1.818   8.583  0.00  0.00    +0.000 OA
BRANCH  10  11
ATOM     11  C   UNL     1      46.327   1.985   7.524  0.00  0.00    +0.000 A 
ATOM     12  C   UNL     1      47.464   1.253   7.251  0.00  0.00    +0.000 A 
ATOM     13  N   UNL     1      48.276   1.483   6.197  0.00  0.00    +0.000 NA
ATOM     14  C   UNL     1      47.884   2.467   5.371  0.00  0.00    +0.000 A 
ATOM     15  N   UNL     1      46.772   3.207   5.497  0.00  0.00    +0.000 NA
ATOM     16  C   UNL     1      46.012   2.938   6.580  0.00  0.00    +0.000 A 
ENDBRANCH  10  11
ENDBRANCH   7  10
ENDBRANCH   1   4
BRANCH   1  19
ATOM     17  C   UNL     1      46.904   6.495  12.922  0.00  0.00    +0.000 C 
ATOM     18  O   UNL     1      47.265   6.594  11.755  0.00  0.00    +0.000 OA
ATOM     19  N   UNL     1      45.621   6.174  13.296  0.00  0.00    +0.000 N 
ATOM     20  H   UNL     1      45.368   6.309  14.267  0.00  0.00    +0.000 HD
BRANCH  17  28
ATOM     21  C   UNL     1      47.200   2.949  17.383  0.00  0.00    +0.000 C 
ATOM     22  N   UNL     1      47.833   4.148  16.876  0.00  0.00    +0.000 N 
ATOM     23  C   UNL     1      48.853   4.759  17.574  0.00  0.00    +0.000 A 
ATOM     24  N   UNL     1      49.491   5.820  17.198  0.00  0.00    +0.000 NA
ATOM     25  C   UNL     1      49.070   6.340  16.017  0.00  0.00    +0.000 A 
ATOM     26  S   UNL     1      49.770   7.756  15.385  0.00  0.00    +0.000 S 
ATOM     27  C   UNL     1      48.729   7.735  14.035  0.00  0.00    +0.000 A 
ATOM     28  C   UNL     1      47.859   6.651  14.026  0.00  0.00    +0.000 A 
ATOM     29  C   UNL     1      48.073   5.842  15.200  0.00  0.00    +0.000 A 
ATOM     30  C   UNL     1      47.403   4.633  15.646  0.00  0.00    +0.000 A 
ATOM     31  O   UNL     1      46.549   4.064  14.976  0.00  0.00    +0.000 OA
ENDBRANCH  17  28
ENDBRANCH   1  19
TORSDOF 5
ENDMDL
MODEL 3
REMARK VINA RESULT:    -7.185      4.182      9.611
REMARK INTER + INTRA:         -10.010
REMARK INTER:                  -9.815
REMARK INTRA:                  -0.195
REMARK UNBOUND:                -0.724
REMARK  Name = 
REMARK  8 active torsions:
REMARK  status: ('A' for Active; 'I' for Inactive)
REMARK    1  A    between atoms: C_1  and  N_2
REMARK    2  A    between atoms: C_8  and  C_9
REMARK    3  A    between atoms: N_11  and  C_12
REMARK    4  A    between atoms: C_12  and  C_13
REMARK    5  A    between atoms: C_12  and  C_14
REMARK    6  A    between atoms: C_12  and  C_15
REMARK    7  A    between atoms: C_18  and  O_19
REMARK    8  A    between atoms: O_19  and  C_20
REMARK                            x       y       z     vdW  Elec       q    Type
REMARK                         _______ _______ _______ _____ _____    ______ ____
ROOT
ATOM      1  C   UNL     1      47.927   4.317  17.365  0.00  0.00    +0.000 C 
ATOM      2  C   UNL     1      47.599   5.284  18.527  0.00  0.00    +0.000 C 
ATOM      3  C   UNL     1      47.021   3.078  17.513  0.00  0.00    +0.000 C 
ENDROOT
BRANCH   1   4
ATOM      4  C   UNL     1      49.429   4.010  17.440  0.00  0.00    +0.000 A 
ATOM      5  C   UNL     1      49.883   2.678  17.402  0.00  0.00    +0.000 A 
ATOM      6  C   UNL     1      51.237   2.368  17.528  0.00  0.00    +0.000 A 
ATOM      7  C   UNL     1      52.181   3.391  17.588  0.00  0.00    +0.000 A 
ATOM      8  C   UNL     1      51.756   4.717  17.616  0.00  0.00    +0.000 A 
ATOM      9  C   UNL     1      50.395   5.026  17.541  0.00  0.00    +0.000 A 
BRANCH   7  10
ATOM     10  O   UNL     1      53.539   3.187  17.683  0.00  0.00    +0.000 OA
BRANCH  10  11
ATOM     11  C   UNL     1      54.045   2.557  18.782  0.00  0.00    +0.000 A 
ATOM     12  C   UNL     1      54.095   3.053  20.068  0.00  0.00    +0.000 A 
ATOM     13  N   UNL     1      54.635   2.389  21.113  0.00  0.00    +0.000 NA
ATOM     14  C   UNL     1      55.097   1.159  20.839  0.00  0.00    +0.000 A 
ATOM     15  N   UNL     1      55.051   0.546  19.646  0.00  0.00    +0.000 NA
ATOM     16  C   UNL     1      54.513   1.269  18.640  0.00  0.00    +0.000 A 
ENDBRANCH  10  11
ENDBRANCH   7  10
ENDBRANCH   1   4
BRANCH   1  19
ATOM     17  C   UNL     1      47.369   4.371  14.903  0.00  0.00    +0.000 C 
ATOM     18  O   UNL     1      47.517   3.168  14.729  0.00  0.00    +0.000 OA
ATOM     19  N   UNL     1      47.587   4.998  16.107  0.00  0.00    +0.000 N 
ATOM     20  H   UNL     1      47.251   5.947  16.209  0.00  0.00    +0.000 HD
BRANCH  17  28
ATOM     21  C   UNL     1      43.951   2.818  10.607  0.00  0.00    +0.000 C 
ATOM     22  N   UNL     1      44.714   3.962  11.058  0.00  0.00    +0.000 N 
ATOM     23  C   UNL     1      44.728   5.134  10.331  0.00  0.00    +0.000 A 
ATOM     24  N   UNL     1      45.364   6.213  10.658  0.00  0.00    +0.000 NA
ATOM     25  C   UNL     1      46.067   6.122  11.815  0.00  0.00    +0.000 A 
ATOM     26  S   UNL     1      46.992   7.433  12.381  0.00  0.00    +0.000 S 
ATOM     27  C   UNL     1      47.529   6.543  13.733  0.00  0.00    +0.000 A 
ATOM     28  C   UNL     1      47.002   5.258  13.792  0.00  0.00    +0.000 A 
ATOM     29  C   UNL     1      46.144   5.028  12.656  0.00  0.00    +0.000 A 
ATOM     30  C   UNL     1      45.393   3.848  12.265  0.00  0.00    +0.000 A 
ATOM     31  O   UNL     1      45.334   2.841  12.961  0.00  0.00    +0.000 OA
ENDBRANCH  17  28
ENDBRANCH   1  19
TORSDOF 5
ENDMDL
MODEL 4
REMARK VINA RESULT:    -6.988      2.751      4.120
REMARK INTER + INTRA:          -9.755
REMARK INTER:                  -9.007
REMARK INTRA:                  -0.747
REMARK UNBOUND:                -0.724
REMARK  Name = 
REMARK  8 active torsions:
REMARK  status: ('A' for Active; 'I' for Inactive)
REMARK    1  A    between atoms: C_1  and  N_2
REMARK    2  A    between atoms: C_8  and  C_9
REMARK    3  A    between atoms: N_11  and  C_12
REMARK    4  A    between atoms: C_12  and  C_13
REMARK    5  A    between atoms: C_12  and  C_14
REMARK    6  A    between atoms: C_12  and  C_15
REMARK    7  A    between atoms: C_18  and  O_19
REMARK    8  A    between atoms: O_19  and  C_20
REMARK                            x       y       z     vdW  Elec       q    Type
REMARK                         _______ _______ _______ _____ _____    ______ ____
ROOT
ATOM      1  C   UNL     1      49.199   8.720  13.522  0.00  0.00    +0.000 C 
ATOM      2  C   UNL     1      48.970  10.232  13.755  0.00  0.00    +0.000 C 
ATOM      3  C   UNL     1      50.445   8.565  12.627  0.00  0.00    +0.000 C 
ENDROOT
BRANCH   1   4
ATOM      4  C   UNL     1      47.910   8.157  12.908  0.00  0.00    +0.000 A 
ATOM      5  C   UNL     1      46.692   8.847  13.060  0.00  0.00    +0.000 A 
ATOM      6  C   UNL     1      45.496   8.328  12.564  0.00  0.00    +0.000 A 
ATOM      7  C   UNL     1      45.507   7.157  11.809  0.00  0.00    +0.000 A 
ATOM      8  C   UNL     1      46.702   6.463  11.636  0.00  0.00    +0.000 A 
ATOM      9  C   UNL     1      47.892   6.957  12.177  0.00  0.00    +0.000 A 
BRANCH   7  10
ATOM     10  O   UNL     1      44.386   6.584  11.253  0.00  0.00    +0.000 OA
BRANCH  10  11
ATOM     11  C   UNL     1      44.059   5.301  11.580  0.00  0.00    +0.000 A 
ATOM     12  C   UNL     1      43.859   4.798  12.849  0.00  0.00    +0.000 A 
ATOM     13  N   UNL     1      43.561   3.507  13.111  0.00  0.00    +0.000 NA
ATOM     14  C   UNL     1      43.421   2.717  12.035  0.00  0.00    +0.000 A 
ATOM     15  N   UNL     1      43.531   3.100  10.753  0.00  0.00    +0.000 NA
ATOM     16  C   UNL     1      43.845   4.400  10.560  0.00  0.00    +0.000 A 
ENDBRANCH  10  11
ENDBRANCH   7  10
ENDBRANCH   1   4
BRANCH   1  19
ATOM     17  C   UNL     1      48.837   8.414  16.001  0.00  0.00    +0.000 C 
ATOM     18  O   UNL     1      48.007   9.310  16.105  0.00  0.00    +0.000 OA
ATOM     19  N   UNL     1      49.479   8.103  14.827  0.00  0.00    +0.000 N 
ATOM     20  H   UNL     1      49.992   7.232  14.789  0.00  0.00    +0.000 HD
BRANCH  17  28
ATOM     21  C   UNL     1      48.059   2.785  16.513  0.00  0.00    +0.000 C 
ATOM     22  N   UNL     1      48.610   3.900  17.254  0.00  0.00    +0.000 N 
ATOM     23  C   UNL     1      49.163   3.714  18.503  0.00  0.00    +0.000 A 
ATOM     24  N   UNL     1      49.694   4.640  19.235  0.00  0.00    +0.000 NA
ATOM     25  C   UNL     1      49.664   5.879  18.682  0.00  0.00    +0.000 A 
ATOM     26  S   UNL     1      50.284   7.225  19.518  0.00  0.00    +0.000 S 
ATOM     27  C   UNL     1      49.852   8.282  18.251  0.00  0.00    +0.000 A 
ATOM     28  C   UNL     1      49.260   7.636  17.172  0.00  0.00    +0.000 A 
ATOM     29  C   UNL     1      49.157   6.223  17.444  0.00  0.00    +0.000 A 
ATOM     30  C   UNL     1      48.597   5.148  16.644  0.00  0.00    +0.000 A 
ATOM     31  O   UNL     1      48.176   5.321  15.506  0.00  0.00    +0.000 OA
ENDBRANCH  17  28
ENDBRANCH   1  19
TORSDOF 5
ENDMDL
MODEL 5
REMARK VINA RESULT:    -6.868      1.972      3.162
REMARK INTER + INTRA:          -9.600
REMARK INTER:                  -8.954
REMARK INTRA:                  -0.645
REMARK UNBOUND:                -0.724
REMARK  Name = 
REMARK  8 active torsions:
REMARK  status: ('A' for Active; 'I' for Inactive)
REMARK    1  A    between atoms: C_1  and  N_2
REMARK    2  A    between atoms: C_8  and  C_9
REMARK    3  A    between atoms: N_11  and  C_12
REMARK    4  A    between atoms: C_12  and  C_13
REMARK    5  A    between atoms: C_12  and  C_14
REMARK    6  A    between atoms: C_12  and  C_15
REMARK    7  A    between atoms: C_18  and  O_19
REMARK    8  A    between atoms: O_19  and  C_20
REMARK                            x       y       z     vdW  Elec       q    Type
REMARK                         _______ _______ _______ _____ _____    ______ ____
ROOT
ATOM      1  C   UNL     1      48.231   8.076  13.794  0.00  0.00    +0.000 C 
ATOM      2  C   UNL     1      47.823   9.559  13.635  0.00  0.00    +0.000 C 
ATOM      3  C   UNL     1      49.690   7.935  13.316  0.00  0.00    +0.000 C 
ENDROOT
BRANCH   1   4
ATOM      4  C   UNL     1      47.223   7.240  12.992  0.00  0.00    +0.000 A 
ATOM      5  C   UNL     1      46.309   7.872  12.127  0.00  0.00    +0.000 A 
ATOM      6  C   UNL     1      45.345   7.142  11.432  0.00  0.00    +0.000 A 
ATOM      7  C   UNL     1      45.340   5.751  11.504  0.00  0.00    +0.000 A 
ATOM      8  C   UNL     1      46.242   5.103  12.345  0.00  0.00    +0.000 A 
ATOM      9  C   UNL     1      47.176   5.838  13.081  0.00  0.00    +0.000 A 
BRANCH   7  10
ATOM     10  O   UNL     1      44.449   4.943  10.833  0.00  0.00    +0.000 OA
BRANCH  10  11
ATOM     11  C   UNL     1      44.909   4.108   9.857  0.00  0.00    +0.000 A 
ATOM     12  C   UNL     1      44.768   2.737   9.811  0.00  0.00    +0.000 A 
ATOM     13  N   UNL     1      45.270   1.959   8.827  0.00  0.00    +0.000 NA
ATOM     14  C   UNL     1      45.897   2.614   7.837  0.00  0.00    +0.000 A 
ATOM     15  N   UNL     1      46.045   3.944   7.740  0.00  0.00    +0.000 NA
ATOM     16  C   UNL     1      45.535   4.664   8.763  0.00  0.00    +0.000 A 
ENDBRANCH  10  11
ENDBRANCH   7  10
ENDBRANCH   1   4
BRANCH   1  19
ATOM     17  C   UNL     1      48.821   8.437  16.222  0.00  0.00    +0.000 C 
ATOM     18  O   UNL     1      49.595   9.364  16.012  0.00  0.00    +0.000 OA
ATOM     19  N   UNL     1      48.173   7.747  15.225  0.00  0.00    +0.000 N 
ATOM     20  H   UNL     1      47.411   7.139  15.496  0.00  0.00    +0.000 HD
BRANCH  17  28
ATOM     21  C   UNL     1      49.448   2.985  17.783  0.00  0.00    +0.000 C 
ATOM     22  N   UNL     1      49.066   4.263  18.347  0.00  0.00    +0.000 N 
ATOM     23  C   UNL     1      48.710   4.372  19.674  0.00  0.00    +0.000 A 
ATOM     24  N   UNL     1      48.370   5.468  20.273  0.00  0.00    +0.000 NA
ATOM     25  C   UNL     1      48.371   6.567  19.477  0.00  0.00    +0.000 A 
ATOM     26  S   UNL     1      47.916   8.089  20.086  0.00  0.00    +0.000 S 
ATOM     27  C   UNL     1      48.137   8.827  18.564  0.00  0.00    +0.000 A 
ATOM     28  C   UNL     1      48.580   7.946  17.584  0.00  0.00    +0.000 A 
ATOM     29  C   UNL     1      48.712   6.622  18.139  0.00  0.00    +0.000 A 
ATOM     30  C   UNL     1      49.114   5.374  17.514  0.00  0.00    +0.000 A 
ATOM     31  O   UNL     1      49.498   5.310  16.352  0.00  0.00    +0.000 OA
ENDBRANCH  17  28
ENDBRANCH   1  19
TORSDOF 5
ENDMDL
MODEL 6
REMARK VINA RESULT:    -6.636      2.245      8.991
REMARK INTER + INTRA:          -9.300
REMARK INTER:                  -9.041
REMARK INTRA:                  -0.259
REMARK UNBOUND:                -0.724
REMARK  Name = 
REMARK  8 active torsions:
REMARK  status: ('A' for Active; 'I' for Inactive)
REMARK    1  A    between atoms: C_1  and  N_2
REMARK    2  A    between atoms: C_8  and  C_9
REMARK    3  A    between atoms: N_11  and  C_12
REMARK    4  A    between atoms: C_12  and  C_13
REMARK    5  A    between atoms: C_12  and  C_14
REMARK    6  A    between atoms: C_12  and  C_15
REMARK    7  A    between atoms: C_18  and  O_19
REMARK    8  A    between atoms: O_19  and  C_20
REMARK                            x       y       z     vdW  Elec       q    Type
REMARK                         _______ _______ _______ _____ _____    ______ ____
ROOT
ATOM      1  C   UNL     1      47.062   7.934  12.858  0.00  0.00    +0.000 C 
ATOM      2  C   UNL     1      48.122   8.177  11.758  0.00  0.00    +0.000 C 
ATOM      3  C   UNL     1      46.072   9.116  12.827  0.00  0.00    +0.000 C 
ENDROOT
BRANCH   1   4
ATOM      4  C   UNL     1      47.815   7.779  14.187  0.00  0.00    +0.000 A 
ATOM      5  C   UNL     1      48.057   8.904  14.999  0.00  0.00    +0.000 A 
ATOM      6  C   UNL     1      48.789   8.800  16.182  0.00  0.00    +0.000 A 
ATOM      7  C   UNL     1      49.205   7.550  16.635  0.00  0.00    +0.000 A 
ATOM      8  C   UNL     1      48.967   6.422  15.853  0.00  0.00    +0.000 A 
ATOM      9  C   UNL     1      48.277   6.533  14.642  0.00  0.00    +0.000 A 
BRANCH   7  10
ATOM     10  O   UNL     1      49.905   7.343  17.802  0.00  0.00    +0.000 OA
BRANCH  10  11
ATOM     11  C   UNL     1      49.315   6.658  18.823  0.00  0.00    +0.000 A 
ATOM     12  C   UNL     1      48.084   6.918  19.388  0.00  0.00    +0.000 A 
ATOM     13  N   UNL     1      47.562   6.218  20.418  0.00  0.00    +0.000 NA
ATOM     14  C   UNL     1      48.308   5.189  20.853  0.00  0.00    +0.000 A 
ATOM     15  N   UNL     1      49.489   4.801  20.348  0.00  0.00    +0.000 NA
ATOM     16  C   UNL     1      49.962   5.553  19.330  0.00  0.00    +0.000 A 
ENDBRANCH  10  11
ENDBRANCH   7  10
ENDBRANCH   1   4
BRANCH   1  19
ATOM     17  C   UNL     1      45.288   6.628  11.626  0.00  0.00    +0.000 C 
ATOM     18  O   UNL     1      44.789   7.605  11.080  0.00  0.00    +0.000 OA
ATOM     19  N   UNL     1      46.334   6.705  12.514  0.00  0.00    +0.000 N 
ATOM     20  H   UNL     1      46.806   5.844  12.758  0.00  0.00    +0.000 HD
BRANCH  17  28
ATOM     21  C   UNL     1      46.179   3.565   6.895  0.00  0.00    +0.000 C 
ATOM     22  N   UNL     1      45.487   3.470   8.163  0.00  0.00    +0.000 N 
ATOM     23  C   UNL     1      44.762   2.344   8.491  0.00  0.00    +0.000 A 
ATOM     24  N   UNL     1      44.125   2.158   9.602  0.00  0.00    +0.000 NA
ATOM     25  C   UNL     1      44.201   3.194  10.474  0.00  0.00    +0.000 A 
ATOM     26  S   UNL     1      43.394   3.140  11.971  0.00  0.00    +0.000 S 
ATOM     27  C   UNL     1      43.930   4.705  12.381  0.00  0.00    +0.000 A 
ATOM     28  C   UNL     1      44.744   5.281  11.412  0.00  0.00    +0.000 A 
ATOM     29  C   UNL     1      44.891   4.378  10.298  0.00  0.00    +0.000 A 
ATOM     30  C   UNL     1      45.616   4.534   9.048  0.00  0.00    +0.000 A 
ATOM     31  O   UNL     1      46.314   5.511   8.806  0.00  0.00    +0.000 OA
ENDBRANCH  17  28
ENDBRANCH   1  19
TORSDOF 5
ENDMDL
MODEL 7
REMARK VINA RESULT:    -6.316      3.052      4.263
REMARK INTER + INTRA:          -8.886
REMARK INTER:                  -8.287
REMARK INTRA:                  -0.599
REMARK UNBOUND:                -0.724
REMARK  Name = 
REMARK  8 active torsions:
REMARK  status: ('A' for Active; 'I' for Inactive)
REMARK    1  A    between atoms: C_1  and  N_2
REMARK    2  A    between atoms: C_8  and  C_9
REMARK    3  A    between atoms: N_11  and  C_12
REMARK    4  A    between atoms: C_12  and  C_13
REMARK    5  A    between atoms: C_12  and  C_14
REMARK    6  A    between atoms: C_12  and  C_15
REMARK    7  A    between atoms: C_18  and  O_19
REMARK    8  A    between atoms: O_19  and  C_20
REMARK                            x       y       z     vdW  Elec       q    Type
REMARK                         _______ _______ _______ _____ _____    ______ ____
ROOT
ATOM      1  C   UNL     1      49.429   8.496  13.576  0.00  0.00    +0.000 C 
ATOM      2  C   UNL     1      49.182   9.809  14.355  0.00  0.00    +0.000 C 
ATOM      3  C   UNL     1      50.495   8.782  12.498  0.00  0.00    +0.000 C 
ENDROOT
BRANCH   1   4
ATOM      4  C   UNL     1      48.075   8.040  13.016  0.00  0.00    +0.000 A 
ATOM      5  C   UNL     1      46.896   8.730  13.362  0.00  0.00    +0.000 A 
ATOM      6  C   UNL     1      45.647   8.301  12.915  0.00  0.00    +0.000 A 
ATOM      7  C   UNL     1      45.556   7.235  12.023  0.00  0.00    +0.000 A 
ATOM      8  C   UNL     1      46.709   6.545  11.657  0.00  0.00    +0.000 A 
ATOM      9  C   UNL     1      47.957   6.943  12.146  0.00  0.00    +0.000 A 
BRANCH   7  10
ATOM     10  O   UNL     1      44.373   6.759  11.503  0.00  0.00    +0.000 OA
BRANCH  10  11
ATOM     11  C   UNL     1      44.039   5.450  11.693  0.00  0.00    +0.000 A 
ATOM     12  C   UNL     1      43.878   4.806  12.902  0.00  0.00    +0.000 A 
ATOM     13  N   UNL     1      43.571   3.497  13.025  0.00  0.00    +0.000 NA
ATOM     14  C   UNL     1      43.378   2.838  11.871  0.00  0.00    +0.000 A 
ATOM     15  N   UNL     1      43.447   3.366  10.640  0.00  0.00    +0.000 NA
ATOM     16  C   UNL     1      43.774   4.675  10.585  0.00  0.00    +0.000 A 
ENDBRANCH  10  11
ENDBRANCH   7  10
ENDBRANCH   1   4
BRANCH   1  19
ATOM     17  C   UNL     1      49.509   7.303  15.799  0.00  0.00    +0.000 C 
ATOM     18  O   UNL     1      48.635   7.984  16.323  0.00  0.00    +0.000 OA
ATOM     19  N   UNL     1      49.972   7.510  14.521  0.00  0.00    +0.000 N 
ATOM     20  H   UNL     1      50.542   6.785  14.106  0.00  0.00    +0.000 HD
BRANCH  17  28
ATOM     21  C   UNL     1      55.178   6.745  16.112  0.00  0.00    +0.000 C 
ATOM     22  N   UNL     1      53.973   6.093  16.579  0.00  0.00    +0.000 N 
ATOM     23  C   UNL     1      54.039   4.960  17.362  0.00  0.00    +0.000 A 
ATOM     24  N   UNL     1      53.023   4.317  17.840  0.00  0.00    +0.000 NA
ATOM     25  C   UNL     1      51.818   4.839  17.501  0.00  0.00    +0.000 A 
ATOM     26  S   UNL     1      50.370   4.103  18.010  0.00  0.00    +0.000 S 
ATOM     27  C   UNL     1      49.426   5.262  17.191  0.00  0.00    +0.000 A 
ATOM     28  C   UNL     1      50.183   6.232  16.544  0.00  0.00    +0.000 A 
ATOM     29  C   UNL     1      51.587   5.967  16.737  0.00  0.00    +0.000 A 
ATOM     30  C   UNL     1      52.756   6.675  16.245  0.00  0.00    +0.000 A 
ATOM     31  O   UNL     1      52.678   7.721  15.612  0.00  0.00    +0.000 OA
ENDBRANCH  17  28
ENDBRANCH   1  19
TORSDOF 5
ENDMDL
MODEL 8
REMARK VINA RESULT:    -6.262      3.860      8.150
REMARK INTER + INTRA:          -8.816
REMARK INTER:                  -8.071
REMARK INTRA:                  -0.745
REMARK UNBOUND:                -0.724
REMARK  Name = 
REMARK  8 active torsions:
REMARK  status: ('A' for Active; 'I' for Inactive)
REMARK    1  A    between atoms: C_1  and  N_2
REMARK    2  A    between atoms: C_8  and  C_9
REMARK    3  A    between atoms: N_11  and  C_12
REMARK    4  A    between atoms: C_12  and  C_13
REMARK    5  A    between atoms: C_12  and  C_14
REMARK    6  A    between atoms: C_12  and  C_15
REMARK    7  A    between atoms: C_18  and  O_19
REMARK    8  A    between atoms: O_19  and  C_20
REMARK                            x       y       z     vdW  Elec       q    Type
REMARK                         _______ _______ _______ _____ _____    ______ ____
ROOT
ATOM      1  C   UNL     1      48.809   8.171  15.056  0.00  0.00    +0.000 C 
ATOM      2  C   UNL     1      49.818   8.520  13.937  0.00  0.00    +0.000 C 
ATOM      3  C   UNL     1      48.370   9.490  15.722  0.00  0.00    +0.000 C 
ENDROOT
BRANCH   1   4
ATOM      4  C   UNL     1      49.509   7.189  16.006  0.00  0.00    +0.000 A 
ATOM      5  C   UNL     1      48.772   6.518  17.001  0.00  0.00    +0.000 A 
ATOM      6  C   UNL     1      49.393   5.667  17.915  0.00  0.00    +0.000 A 
ATOM      7  C   UNL     1      50.751   5.383  17.788  0.00  0.00    +0.000 A 
ATOM      8  C   UNL     1      51.498   6.026  16.805  0.00  0.00    +0.000 A 
ATOM      9  C   UNL     1      50.886   6.919  15.920  0.00  0.00    +0.000 A 
BRANCH   7  10
ATOM     10  O   UNL     1      51.445   4.534  18.620  0.00  0.00    +0.000 OA
BRANCH  10  11
ATOM     11  C   UNL     1      51.703   3.258  18.210  0.00  0.00    +0.000 A 
ATOM     12  C   UNL     1      50.919   2.485  17.379  0.00  0.00    +0.000 A 
ATOM     13  N   UNL     1      51.215   1.215  17.029  0.00  0.00    +0.000 NA
ATOM     14  C   UNL     1      52.374   0.738  17.511  0.00  0.00    +0.000 A 
ATOM     15  N   UNL     1      53.247   1.411  18.277  0.00  0.00    +0.000 NA
ATOM     16  C   UNL     1      52.885   2.671  18.604  0.00  0.00    +0.000 A 
ENDBRANCH  10  11
ENDBRANCH   7  10
ENDBRANCH   1   4
BRANCH   1  19
ATOM     17  C   UNL     1      47.665   6.429  13.632  0.00  0.00    +0.000 C 
ATOM     18  O   UNL     1      48.699   5.862  13.297  0.00  0.00    +0.000 OA
ATOM     19  N   UNL     1      47.636   7.552  14.424  0.00  0.00    +0.000 N 
ATOM     20  H   UNL     1      46.743   7.830  14.810  0.00  0.00    +0.000 HD
BRANCH  17  28
ATOM     21  C   UNL     1      44.041   9.726  10.708  0.00  0.00    +0.000 C 
ATOM     22  N   UNL     1      44.141   8.379  11.230  0.00  0.00    +0.000 N 
ATOM     23  C   UNL     1      43.116   7.474  11.049  0.00  0.00    +0.000 A 
ATOM     24  N   UNL     1      43.117   6.247  11.462  0.00  0.00    +0.000 NA
ATOM     25  C   UNL     1      44.238   5.880  12.131  0.00  0.00    +0.000 A 
ATOM     26  S   UNL     1      44.398   4.314  12.778  0.00  0.00    +0.000 S 
ATOM     27  C   UNL     1      45.934   4.677  13.425  0.00  0.00    +0.000 A 
ATOM     28  C   UNL     1      46.358   5.970  13.144  0.00  0.00    +0.000 A 
ATOM     29  C   UNL     1      45.349   6.663  12.383  0.00  0.00    +0.000 A 
ATOM     30  C   UNL     1      45.318   8.024  11.877  0.00  0.00    +0.000 A 
ATOM     31  O   UNL     1      46.268   8.791  11.984  0.00  0.00    +0.000 OA
ENDBRANCH  17  28
ENDBRANCH   1  19
TORSDOF 5
ENDMDL
MODEL 9
REMARK VINA RESULT:    -6.066      2.436      9.007
REMARK INTER + INTRA:          -8.564
REMARK INTER:                  -8.465
REMARK INTRA:                  -0.098
REMARK UNBOUND:                -0.724
REMARK  Name = 
REMARK  8 active torsions:
REMARK  status: ('A' for Active; 'I' for Inactive)
REMARK    1  A    between atoms: C_1  and  N_2
REMARK    2  A    between atoms: C_8  and  C_9
REMARK    3  A    between atoms: N_11  and  C_12
REMARK    4  A    between atoms: C_12  and  C_13
REMARK    5  A    between atoms: C_12  and  C_14
REMARK    6  A    between atoms: C_12  and  C_15
REMARK    7  A    between atoms: C_18  and  O_19
REMARK    8  A    between atoms: O_19  and  C_20
REMARK                            x       y       z     vdW  Elec       q    Type
REMARK                         _______ _______ _______ _____ _____    ______ ____
ROOT
ATOM      1  C   UNL     1      47.315   7.974  12.699  0.00  0.00    +0.000 C 
ATOM      2  C   UNL     1      48.473   8.026  11.675  0.00  0.00    +0.000 C 
ATOM      3  C   UNL     1      46.413   9.201  12.453  0.00  0.00    +0.000 C 
ENDROOT
BRANCH   1   4
ATOM      4  C   UNL     1      47.948   7.930  14.097  0.00  0.00    +0.000 A 
ATOM      5  C   UNL     1      48.522   6.736  14.578  0.00  0.00    +0.000 A 
ATOM      6  C   UNL     1      49.051   6.653  15.865  0.00  0.00    +0.000 A 
ATOM      7  C   UNL     1      49.115   7.791  16.666  0.00  0.00    +0.000 A 
ATOM      8  C   UNL     1      48.565   8.985  16.207  0.00  0.00    +0.000 A 
ATOM      9  C   UNL     1      47.989   9.057  14.935  0.00  0.00    +0.000 A 
BRANCH   7  10
ATOM     10  O   UNL     1      49.646   7.816  17.936  0.00  0.00    +0.000 OA
BRANCH  10  11
ATOM     11  C   UNL     1      50.958   7.492  18.119  0.00  0.00    +0.000 A 
ATOM     12  C   UNL     1      52.051   8.157  17.603  0.00  0.00    +0.000 A 
ATOM     13  N   UNL     1      53.331   7.771  17.799  0.00  0.00    +0.000 NA
ATOM     14  C   UNL     1      53.496   6.695  18.585  0.00  0.00    +0.000 A 
ATOM     15  N   UNL     1      52.519   6.002  19.190  0.00  0.00    +0.000 NA
ATOM     16  C   UNL     1      51.262   6.429  18.941  0.00  0.00    +0.000 A 
ENDBRANCH  10  11
ENDBRANCH   7  10
ENDBRANCH   1   4
BRANCH   1  19
ATOM     17  C   UNL     1      45.409   6.698  11.645  0.00  0.00    +0.000 C 
ATOM     18  O   UNL     1      44.881   7.682  11.142  0.00  0.00    +0.000 OA
ATOM     19  N   UNL     1      46.535   6.758  12.432  0.00  0.00    +0.000 N 
ATOM     20  H   UNL     1      47.010   5.888  12.636  0.00  0.00    +0.000 HD
BRANCH  17  28
ATOM     21  C   UNL     1      46.009   3.494   6.962  0.00  0.00    +0.000 C 
ATOM     22  N   UNL     1      45.373   3.450   8.262  0.00  0.00    +0.000 N 
ATOM     23  C   UNL     1      44.635   2.352   8.650  0.00  0.00    +0.000 A 
ATOM     24  N   UNL     1      44.043   2.211   9.793  0.00  0.00    +0.000 NA
ATOM     25  C   UNL     1      44.184   3.267  10.633  0.00  0.00    +0.000 A 
ATOM     26  S   UNL     1      43.443   3.272  12.165  0.00  0.00    +0.000 S 
ATOM     27  C   UNL     1      44.038   4.832  12.510  0.00  0.00    +0.000 A 
ATOM     28  C   UNL     1      44.822   5.361  11.491  0.00  0.00    +0.000 A 
ATOM     29  C   UNL     1      44.896   4.427  10.395  0.00  0.00    +0.000 A 
ATOM     30  C   UNL     1      45.568   4.531   9.112  0.00  0.00    +0.000 A 
ATOM     31  O   UNL     1      46.280   5.483   8.813  0.00  0.00    +0.000 OA
ENDBRANCH  17  28
ENDBRANCH   1  19
TORSDOF 5
ENDMDL
