MODEL 1
REMARK VINA RESULT:    -7.888      0.000      0.000
REMARK INTER + INTRA:         -12.112
REMARK INTER:                 -11.347
REMARK INTRA:                  -0.766
REMARK UNBOUND:                -0.766
REMARK  Name = 
REMARK  8 active torsions:
REMARK  status: ('A' for Active; 'I' for Inactive)
REMARK    1  A    between atoms: N_1  and  C_2
REMARK    2  A    between atoms: C_2  and  C_3
REMARK    3  A    between atoms: C_3  and  C_4
REMARK    4  A    between atoms: C_3  and  N_25
REMARK    5  A    between atoms: C_4  and  C_5
REMARK    6  A    between atoms: C_8  and  C_9
REMARK    7  A    between atoms: N_11  and  C_12
REMARK    8  A    between atoms: C_12  and  C_13
REMARK                            x       y       z     vdW  Elec       q    Type
REMARK                         _______ _______ _______ _____ _____    ______ ____
ROOT
ATOM      1  C   UNL     1      45.386   5.233  11.382  0.00  0.00    +0.000 A 
ATOM      2  C   UNL     1      46.277   6.265  11.051  0.00  0.00    +0.000 A 
ATOM      3  C   UNL     1      47.217   6.726  11.977  0.00  0.00    +0.000 A 
ATOM      4  C   UNL     1      47.287   6.146  13.249  0.00  0.00    +0.000 A 
ATOM      5  C   UNL     1      46.399   5.120  13.589  0.00  0.00    +0.000 A 
ATOM      6  C   UNL     1      45.456   4.662  12.661  0.00  0.00    +0.000 A 
ENDROOT
BRANCH   4   7
ATOM      7  C   UNL     1      48.268   6.637  14.261  0.00  0.00    +0.000 C 
ATOM      8  O   UNL     1      49.210   7.343  13.915  0.00  0.00    +0.000 OA
ATOM      9  N   UNL     1      48.020   6.281  15.571  0.00  0.00    +0.000 N 
ATOM     10  H   UNL     1      47.057   6.034  15.796  0.00  0.00    +0.000 HD
BRANCH   9  11
ATOM     11  C   UNL     1      48.810   6.813  16.652  0.00  0.00    +0.000 C 
BRANCH  11  12
ATOM     12  C   UNL     1      49.942   5.889  17.032  0.00  0.00    +0.000 A 
ATOM     13  C   UNL     1      51.205   6.370  17.346  0.00  0.00    +0.000 A 
ATOM     14  S   UNL     1      52.342   5.144  17.687  0.00  0.00    +0.000 S 
ATOM     15  C   UNL     1      51.178   3.924  17.447  0.00  0.00    +0.000 A 
ATOM     16  N   UNL     1      51.512   2.607  17.545  0.00  0.00    +0.000 NA
ATOM     17  C   UNL     1      50.533   1.795  17.326  0.00  0.00    +0.000 A 
ATOM     18  N   UNL     1      49.247   2.177  17.042  0.00  0.00    +0.000 N 
ATOM     19  C   UNL     1      48.849   3.493  17.014  0.00  0.00    +0.000 A 
ATOM     20  O   UNL     1      47.667   3.805  16.886  0.00  0.00    +0.000 OA
ATOM     21  C   UNL     1      49.933   4.448  17.163  0.00  0.00    +0.000 A 
ATOM     22  H   UNL     1      48.519   1.488  16.932  0.00  0.00    +0.000 HD
ENDBRANCH  11  12
ENDBRANCH   9  11
ENDBRANCH   4   7
BRANCH   1  23
ATOM     23  C   UNL     1      44.340   4.795  10.375  0.00  0.00    +0.000 C 
BRANCH  23  24
ATOM     24  C   UNL     1      44.354   3.306   9.917  0.00  0.00    +0.000 C 
BRANCH  24  25
ATOM     25  N   UNL     1      45.530   3.065   9.007  0.00  0.00    +0.000 NA
ATOM     26  C   UNL     1      45.623   1.672   8.531  0.00  0.00    +0.000 C 
ATOM     27  C   UNL     1      46.840   1.430   7.639  0.00  0.00    +0.000 C 
ATOM     28  C   UNL     1      46.861   2.399   6.467  0.00  0.00    +0.000 C 
ATOM     29  C   UNL     1      46.775   3.830   6.979  0.00  0.00    +0.000 C 
ATOM     30  C   UNL     1      45.553   4.016   7.881  0.00  0.00    +0.000 C 
ENDBRANCH  24  25
BRANCH  24  31
ATOM     31  C   UNL     1      44.289   2.290  11.104  0.00  0.00    +0.000 C 
BRANCH  31  32
ATOM     32  N   UNL     1      42.998   2.145  11.764  0.00  0.00    +0.000 NA
ATOM     33  H   UNL     1      42.927   1.220  12.182  0.00  0.00    +0.000 HD
ATOM     34  H   UNL     1      42.243   2.226  11.085  0.00  0.00    +0.000 HD
ENDBRANCH  31  32
ENDBRANCH  24  31
ENDBRANCH  23  24
ENDBRANCH   1  23
TORSDOF 8
ENDMDL
MODEL 2
REMARK VINA RESULT:    -7.800      1.881      2.318
REMARK INTER + INTRA:         -11.986
REMARK INTER:                 -11.246
REMARK INTRA:                  -0.740
REMARK UNBOUND:                -0.766
REMARK  Name = 
REMARK  8 active torsions:
REMARK  status: ('A' for Active; 'I' for Inactive)
REMARK    1  A    between atoms: N_1  and  C_2
REMARK    2  A    between atoms: C_2  and  C_3
REMARK    3  A    between atoms: C_3  and  C_4
REMARK    4  A    between atoms: C_3  and  N_25
REMARK    5  A    between atoms: C_4  and  C_5
REMARK    6  A    between atoms: C_8  and  C_9
REMARK    7  A    between atoms: N_11  and  C_12
REMARK    8  A    between atoms: C_12  and  C_13
REMARK                            x       y       z     vdW  Elec       q    Type
REMARK                         _______ _______ _______ _____ _____    ______ ____
ROOT
ATOM      1  C   UNL     1      45.214   5.483  11.423  0.00  0.00    +0.000 A 
ATOM      2  C   UNL     1      45.315   5.047  12.753  0.00  0.00    +0.000 A 
ATOM      3  C   UNL     1      46.361   5.480  13.573  0.00  0.00    +0.000 A 
ATOM      4  C   UNL     1      47.316   6.373  13.073  0.00  0.00    +0.000 A 
ATOM      5  C   UNL     1      47.226   6.808  11.747  0.00  0.00    +0.000 A 
ATOM      6  C   UNL     1      46.180   6.370  10.926  0.00  0.00    +0.000 A 
ENDROOT
BRANCH   4   7
ATOM      7  C   UNL     1      48.454   6.831  13.923  0.00  0.00    +0.000 C 
ATOM      8  O   UNL     1      49.510   7.181  13.405  0.00  0.00    +0.000 OA
ATOM      9  N   UNL     1      48.221   6.865  15.283  0.00  0.00    +0.000 N 
ATOM     10  H   UNL     1      47.246   6.924  15.572  0.00  0.00    +0.000 HD
BRANCH   9  11
ATOM     11  C   UNL     1      49.190   7.425  16.192  0.00  0.00    +0.000 C 
BRANCH  11  12
ATOM     12  C   UNL     1      48.771   7.263  17.633  0.00  0.00    +0.000 A 
ATOM     13  C   UNL     1      48.280   8.327  18.376  0.00  0.00    +0.000 A 
ATOM     14  S   UNL     1      47.926   7.927  19.997  0.00  0.00    +0.000 S 
ATOM     15  C   UNL     1      48.397   6.309  19.757  0.00  0.00    +0.000 A 
ATOM     16  N   UNL     1      48.379   5.414  20.784  0.00  0.00    +0.000 NA
ATOM     17  C   UNL     1      48.774   4.229  20.460  0.00  0.00    +0.000 A 
ATOM     18  N   UNL     1      49.162   3.849  19.200  0.00  0.00    +0.000 N 
ATOM     19  C   UNL     1      49.118   4.698  18.119  0.00  0.00    +0.000 A 
ATOM     20  O   UNL     1      49.346   4.300  16.979  0.00  0.00    +0.000 OA
ATOM     21  C   UNL     1      48.768   6.069  18.449  0.00  0.00    +0.000 A 
ATOM     22  H   UNL     1      49.411   2.892  19.005  0.00  0.00    +0.000 HD
ENDBRANCH  11  12
ENDBRANCH   9  11
ENDBRANCH   4   7
BRANCH   1  23
ATOM     23  C   UNL     1      44.101   4.950  10.542  0.00  0.00    +0.000 C 
BRANCH  23  24
ATOM     24  C   UNL     1      44.131   3.436  10.174  0.00  0.00    +0.000 C 
BRANCH  24  25
ATOM     25  N   UNL     1      45.307   3.154   9.276  0.00  0.00    +0.000 NA
ATOM     26  C   UNL     1      45.347   1.763   8.788  0.00  0.00    +0.000 C 
ATOM     27  C   UNL     1      46.564   1.477   7.908  0.00  0.00    +0.000 C 
ATOM     28  C   UNL     1      46.640   2.455   6.746  0.00  0.00    +0.000 C 
ATOM     29  C   UNL     1      46.609   3.884   7.272  0.00  0.00    +0.000 C 
ATOM     30  C   UNL     1      45.385   4.113   8.160  0.00  0.00    +0.000 C 
ENDBRANCH  24  25
BRANCH  24  31
ATOM     31  C   UNL     1      44.080   2.492  11.420  0.00  0.00    +0.000 C 
BRANCH  31  32
ATOM     32  N   UNL     1      42.837   1.763  11.632  0.00  0.00    +0.000 NA
ATOM     33  H   UNL     1      42.633   1.711  12.627  0.00  0.00    +0.000 HD
ATOM     34  H   UNL     1      42.927   0.805  11.294  0.00  0.00    +0.000 HD
ENDBRANCH  31  32
ENDBRANCH  24  31
ENDBRANCH  23  24
ENDBRANCH   1  23
TORSDOF 8
ENDMDL
MODEL 3
REMARK VINA RESULT:    -7.204      2.317      3.450
REMARK INTER + INTRA:         -11.129
REMARK INTER:                 -10.789
REMARK INTRA:                  -0.340
REMARK UNBOUND:                -0.766
REMARK  Name = 
REMARK  8 active torsions:
REMARK  status: ('A' for Active; 'I' for Inactive)
REMARK    1  A    between atoms: N_1  and  C_2
REMARK    2  A    between atoms: C_2  and  C_3
REMARK    3  A    between atoms: C_3  and  C_4
REMARK    4  A    between atoms: C_3  and  N_25
REMARK    5  A    between atoms: C_4  and  C_5
REMARK    6  A    between atoms: C_8  and  C_9
REMARK    7  A    between atoms: N_11  and  C_12
REMARK    8  A    between atoms: C_12  and  C_13
REMARK                            x       y       z     vdW  Elec       q    Type
REMARK                         _______ _______ _______ _____ _____    ______ ____
ROOT
ATOM      1  C   UNL     1      45.967   5.467  12.072  0.00  0.00    +0.000 A 
ATOM      2  C   UNL     1      46.734   6.294  12.906  0.00  0.00    +0.000 A 
ATOM      3  C   UNL     1      47.243   5.819  14.117  0.00  0.00    +0.000 A 
ATOM      4  C   UNL     1      47.003   4.496  14.505  0.00  0.00    +0.000 A 
ATOM      5  C   UNL     1      46.235   3.665  13.682  0.00  0.00    +0.000 A 
ATOM      6  C   UNL     1      45.722   4.144  12.471  0.00  0.00    +0.000 A 
ENDROOT
BRANCH   4   7
ATOM      7  C   UNL     1      47.518   3.973  15.804  0.00  0.00    +0.000 C 
ATOM      8  O   UNL     1      48.218   2.965  15.830  0.00  0.00    +0.000 OA
ATOM      9  N   UNL     1      47.191   4.706  16.927  0.00  0.00    +0.000 N 
ATOM     10  H   UNL     1      46.947   5.683  16.772  0.00  0.00    +0.000 HD
BRANCH   9  11
ATOM     11  C   UNL     1      47.748   4.385  18.217  0.00  0.00    +0.000 C 
BRANCH  11  12
ATOM     12  C   UNL     1      48.292   5.606  18.917  0.00  0.00    +0.000 A 
ATOM     13  C   UNL     1      47.764   6.055  20.119  0.00  0.00    +0.000 A 
ATOM     14  S   UNL     1      48.493   7.486  20.698  0.00  0.00    +0.000 S 
ATOM     15  C   UNL     1      49.557   7.544  19.369  0.00  0.00    +0.000 A 
ATOM     16  N   UNL     1      50.443   8.569  19.225  0.00  0.00    +0.000 NA
ATOM     17  C   UNL     1      51.176   8.489  18.166  0.00  0.00    +0.000 A 
ATOM     18  N   UNL     1      51.123   7.469  17.251  0.00  0.00    +0.000 N 
ATOM     19  C   UNL     1      50.303   6.375  17.401  0.00  0.00    +0.000 A 
ATOM     20  O   UNL     1      50.367   5.414  16.638  0.00  0.00    +0.000 OA
ATOM     21  C   UNL     1      49.392   6.462  18.529  0.00  0.00    +0.000 A 
ATOM     22  H   UNL     1      51.763   7.444  16.472  0.00  0.00    +0.000 HD
ENDBRANCH  11  12
ENDBRANCH   9  11
ENDBRANCH   4   7
BRANCH   1  23
ATOM     23  C   UNL     1      45.379   6.029  10.792  0.00  0.00    +0.000 C 
BRANCH  23  24
ATOM     24  C   UNL     1      44.041   5.418  10.279  0.00  0.00    +0.000 C 
BRANCH  24  25
ATOM     25  N   UNL     1      44.330   4.277   9.340  0.00  0.00    +0.000 NA
ATOM     26  C   UNL     1      45.608   4.423   8.620  0.00  0.00    +0.000 C 
ATOM     27  C   UNL     1      45.874   3.279   7.642  0.00  0.00    +0.000 C 
ATOM     28  C   UNL     1      45.805   1.932   8.346  0.00  0.00    +0.000 C 
ATOM     29  C   UNL     1      44.474   1.796   9.072  0.00  0.00    +0.000 C 
ATOM     30  C   UNL     1      44.248   2.973  10.023  0.00  0.00    +0.000 C 
ENDBRANCH  24  25
BRANCH  24  31
ATOM     31  C   UNL     1      43.058   5.021  11.430  0.00  0.00    +0.000 C 
BRANCH  31  32
ATOM     32  N   UNL     1      42.040   6.003  11.781  0.00  0.00    +0.000 NA
ATOM     33  H   UNL     1      42.075   6.193  12.780  0.00  0.00    +0.000 HD
ATOM     34  H   UNL     1      41.111   5.637  11.578  0.00  0.00    +0.000 HD
ENDBRANCH  31  32
ENDBRANCH  24  31
ENDBRANCH  23  24
ENDBRANCH   1  23
TORSDOF 8
ENDMDL
MODEL 4
REMARK VINA RESULT:    -7.176      1.295      2.064
REMARK INTER + INTRA:         -11.089
REMARK INTER:                 -10.229
REMARK INTRA:                  -0.860
REMARK UNBOUND:                -0.766
REMARK  Name = 
REMARK  8 active torsions:
REMARK  status: ('A' for Active; 'I' for Inactive)
REMARK    1  A    between atoms: N_1  and  C_2
REMARK    2  A    between atoms: C_2  and  C_3
REMARK    3  A    between atoms: C_3  and  C_4
REMARK    4  A    between atoms: C_3  and  N_25
REMARK    5  A    between atoms: C_4  and  C_5
REMARK    6  A    between atoms: C_8  and  C_9
REMARK    7  A    between atoms: N_11  and  C_12
REMARK    8  A    between atoms: C_12  and  C_13
REMARK                            x       y       z     vdW  Elec       q    Type
REMARK                         _______ _______ _______ _____ _____    ______ ____
ROOT
ATOM      1  C   UNL     1      46.013   6.795  11.966  0.00  0.00    +0.000 A 
ATOM      2  C   UNL     1      46.842   5.761  12.428  0.00  0.00    +0.000 A 
ATOM      3  C   UNL     1      47.726   5.970  13.490  0.00  0.00    +0.000 A 
ATOM      4  C   UNL     1      47.781   7.220  14.117  0.00  0.00    +0.000 A 
ATOM      5  C   UNL     1      46.963   8.258  13.660  0.00  0.00    +0.000 A 
ATOM      6  C   UNL     1      46.080   8.048  12.593  0.00  0.00    +0.000 A 
ENDROOT
BRANCH   4   7
ATOM      7  C   UNL     1      48.734   7.472  15.238  0.00  0.00    +0.000 C 
ATOM      8  O   UNL     1      49.531   8.403  15.173  0.00  0.00    +0.000 OA
ATOM      9  N   UNL     1      48.626   6.633  16.328  0.00  0.00    +0.000 N 
ATOM     10  H   UNL     1      47.729   6.163  16.449  0.00  0.00    +0.000 HD
BRANCH   9  11
ATOM     11  C   UNL     1      49.389   6.866  17.528  0.00  0.00    +0.000 C 
BRANCH  11  12
ATOM     12  C   UNL     1      50.494   5.852  17.701  0.00  0.00    +0.000 A 
ATOM     13  C   UNL     1      51.789   6.230  18.029  0.00  0.00    +0.000 A 
ATOM     14  S   UNL     1      52.885   4.924  18.113  0.00  0.00    +0.000 S 
ATOM     15  C   UNL     1      51.661   3.803  17.733  0.00  0.00    +0.000 A 
ATOM     16  N   UNL     1      51.942   2.476  17.601  0.00  0.00    +0.000 NA
ATOM     17  C   UNL     1      50.921   1.747  17.299  0.00  0.00    +0.000 A 
ATOM     18  N   UNL     1      49.642   2.216  17.141  0.00  0.00    +0.000 N 
ATOM     19  C   UNL     1      49.300   3.532  17.345  0.00  0.00    +0.000 A 
ATOM     20  O   UNL     1      48.129   3.902  17.325  0.00  0.00    +0.000 OA
ATOM     21  C   UNL     1      50.429   4.411  17.597  0.00  0.00    +0.000 A 
ATOM     22  H   UNL     1      48.881   1.581  16.956  0.00  0.00    +0.000 HD
ENDBRANCH  11  12
ENDBRANCH   9  11
ENDBRANCH   4   7
BRANCH   1  23
ATOM     23  C   UNL     1      45.107   6.553  10.775  0.00  0.00    +0.000 C 
BRANCH  23  24
ATOM     24  C   UNL     1      43.983   5.484  10.924  0.00  0.00    +0.000 C 
BRANCH  24  25
ATOM     25  N   UNL     1      44.187   4.387   9.912  0.00  0.00    +0.000 NA
ATOM     26  C   UNL     1      45.340   4.621   9.023  0.00  0.00    +0.000 C 
ATOM     27  C   UNL     1      45.515   3.520   7.977  0.00  0.00    +0.000 C 
ATOM     28  C   UNL     1      45.614   2.152   8.633  0.00  0.00    +0.000 C 
ATOM     29  C   UNL     1      44.409   1.926   9.538  0.00  0.00    +0.000 C 
ATOM     30  C   UNL     1      44.267   3.062  10.553  0.00  0.00    +0.000 C 
ENDBRANCH  24  25
BRANCH  24  31
ATOM     31  C   UNL     1      43.832   4.941  12.383  0.00  0.00    +0.000 C 
BRANCH  31  32
ATOM     32  N   UNL     1      42.806   5.569  13.206  0.00  0.00    +0.000 NA
ATOM     33  H   UNL     1      41.948   5.024  13.161  0.00  0.00    +0.000 HD
ATOM     34  H   UNL     1      42.589   6.499  12.852  0.00  0.00    +0.000 HD
ENDBRANCH  31  32
ENDBRANCH  24  31
ENDBRANCH  23  24
ENDBRANCH   1  23
TORSDOF 8
ENDMDL
MODEL 5
REMARK VINA RESULT:    -7.156      1.645      2.499
REMARK INTER + INTRA:         -11.059
REMARK INTER:                 -11.436
REMARK INTRA:                   0.377
REMARK UNBOUND:                -0.766
REMARK  Name = 
REMARK  8 active torsions:
REMARK  status: ('A' for Active; 'I' for Inactive)
REMARK    1  A    between atoms: N_1  and  C_2
REMARK    2  A    between atoms: C_2  and  C_3
REMARK    3  A    between atoms: C_3  and  C_4
REMARK    4  A    between atoms: C_3  and  N_25
REMARK    5  A    between atoms: C_4  and  C_5
REMARK    6  A    between atoms: C_8  and  C_9
REMARK    7  A    between atoms: N_11  and  C_12
REMARK    8  A    between atoms: C_12  and  C_13
REMARK                            x       y       z     vdW  Elec       q    Type
REMARK                         _______ _______ _______ _____ _____    ______ ____
ROOT
ATOM      1  C   UNL     1      45.588   4.955  11.373  0.00  0.00    +0.000 A 
ATOM      2  C   UNL     1      45.838   3.731  12.013  0.00  0.00    +0.000 A 
ATOM      3  C   UNL     1      46.456   3.690  13.266  0.00  0.00    +0.000 A 
ATOM      4  C   UNL     1      46.819   4.881  13.905  0.00  0.00    +0.000 A 
ATOM      5  C   UNL     1      46.578   6.105  13.273  0.00  0.00    +0.000 A 
ATOM      6  C   UNL     1      45.962   6.144  12.016  0.00  0.00    +0.000 A 
ENDROOT
BRANCH   4   7
ATOM      7  C   UNL     1      47.500   4.860  15.233  0.00  0.00    +0.000 C 
ATOM      8  O   UNL     1      48.318   5.729  15.522  0.00  0.00    +0.000 OA
ATOM      9  N   UNL     1      47.125   3.848  16.093  0.00  0.00    +0.000 N 
ATOM     10  H   UNL     1      46.211   3.429  15.924  0.00  0.00    +0.000 HD
BRANCH   9  11
ATOM     11  C   UNL     1      47.603   3.807  17.452  0.00  0.00    +0.000 C 
BRANCH  11  12
ATOM     12  C   UNL     1      49.043   3.362  17.531  0.00  0.00    +0.000 A 
ATOM     13  C   UNL     1      49.461   2.144  17.012  0.00  0.00    +0.000 A 
ATOM     14  S   UNL     1      51.118   1.822  17.267  0.00  0.00    +0.000 S 
ATOM     15  C   UNL     1      51.340   3.312  18.062  0.00  0.00    +0.000 A 
ATOM     16  N   UNL     1      52.551   3.654  18.583  0.00  0.00    +0.000 NA
ATOM     17  C   UNL     1      52.569   4.805  19.168  0.00  0.00    +0.000 A 
ATOM     18  N   UNL     1      51.496   5.655  19.258  0.00  0.00    +0.000 N 
ATOM     19  C   UNL     1      50.280   5.385  18.676  0.00  0.00    +0.000 A 
ATOM     20  O   UNL     1      49.377   6.217  18.659  0.00  0.00    +0.000 OA
ATOM     21  C   UNL     1      50.181   4.062  18.085  0.00  0.00    +0.000 A 
ATOM     22  H   UNL     1      51.595   6.563  19.685  0.00  0.00    +0.000 HD
ENDBRANCH  11  12
ENDBRANCH   9  11
ENDBRANCH   4   7
BRANCH   1  23
ATOM     23  C   UNL     1      44.969   4.964   9.989  0.00  0.00    +0.000 C 
BRANCH  23  24
ATOM     24  C   UNL     1      44.263   3.662   9.502  0.00  0.00    +0.000 C 
BRANCH  24  25
ATOM     25  N   UNL     1      45.059   3.039   8.385  0.00  0.00    +0.000 NA
ATOM     26  C   UNL     1      46.016   3.972   7.761  0.00  0.00    +0.000 C 
ATOM     27  C   UNL     1      46.792   3.340   6.605  0.00  0.00    +0.000 C 
ATOM     28  C   UNL     1      47.496   2.068   7.050  0.00  0.00    +0.000 C 
ATOM     29  C   UNL     1      46.489   1.115   7.681  0.00  0.00    +0.000 C 
ATOM     30  C   UNL     1      45.728   1.799   8.817  0.00  0.00    +0.000 C 
ENDBRANCH  24  25
BRANCH  24  31
ATOM     31  C   UNL     1      43.952   2.655  10.658  0.00  0.00    +0.000 C 
BRANCH  31  32
ATOM     32  N   UNL     1      42.715   2.878  11.396  0.00  0.00    +0.000 NA
ATOM     33  H   UNL     1      42.909   3.413  12.239  0.00  0.00    +0.000 HD
ATOM     34  H   UNL     1      42.314   1.988  11.691  0.00  0.00    +0.000 HD
ENDBRANCH  31  32
ENDBRANCH  24  31
ENDBRANCH  23  24
ENDBRANCH   1  23
TORSDOF 8
ENDMDL
MODEL 6
REMARK VINA RESULT:    -7.054      1.875      2.435
REMARK INTER + INTRA:         -10.913
REMARK INTER:                 -10.620
REMARK INTRA:                  -0.293
REMARK UNBOUND:                -0.766
REMARK  Name = 
REMARK  8 active torsions:
REMARK  status: ('A' for Active; 'I' for Inactive)
REMARK    1  A    between atoms: N_1  and  C_2
REMARK    2  A    between atoms: C_2  and  C_3
REMARK    3  A    between atoms: C_3  and  C_4
REMARK    4  A    between atoms: C_3  and  N_25
REMARK    5  A    between atoms: C_4  and  C_5
REMARK    6  A    between atoms: C_8  and  C_9
REMARK    7  A    between atoms: N_11  and  C_12
REMARK    8  A    between atoms: C_12  and  C_13
REMARK                            x       y       z     vdW  Elec       q    Type
REMARK                         _______ _______ _______ _____ _____    ______ ____
ROOT
ATOM      1  C   UNL     1      45.211   5.730  11.589  0.00  0.00    +0.000 A 
ATOM      2  C   UNL     1      45.684   4.985  12.680  0.00  0.00    +0.000 A 
ATOM      3  C   UNL     1      46.839   5.369  13.365  0.00  0.00    +0.000 A 
ATOM      4  C   UNL     1      47.532   6.521  12.974  0.00  0.00    +0.000 A 
ATOM      5  C   UNL     1      47.071   7.267  11.885  0.00  0.00    +0.000 A 
ATOM      6  C   UNL     1      45.915   6.877  11.197  0.00  0.00    +0.000 A 
ENDROOT
BRANCH   4   7
ATOM      7  C   UNL     1      48.781   6.939  13.677  0.00  0.00    +0.000 C 
ATOM      8  O   UNL     1      49.641   7.579  13.080  0.00  0.00    +0.000 OA
ATOM      9  N   UNL     1      48.872   6.595  15.010  0.00  0.00    +0.000 N 
ATOM     10  H   UNL     1      47.991   6.414  15.491  0.00  0.00    +0.000 HD
BRANCH   9  11
ATOM     11  C   UNL     1      49.960   7.066  15.830  0.00  0.00    +0.000 C 
BRANCH  11  12
ATOM     12  C   UNL     1      50.116   6.244  17.087  0.00  0.00    +0.000 A 
ATOM     13  C   UNL     1      51.092   5.265  17.203  0.00  0.00    +0.000 A 
ATOM     14  S   UNL     1      51.046   4.423  18.687  0.00  0.00    +0.000 S 
ATOM     15  C   UNL     1      49.731   5.355  19.237  0.00  0.00    +0.000 A 
ATOM     16  N   UNL     1      49.160   5.114  20.450  0.00  0.00    +0.000 NA
ATOM     17  C   UNL     1      48.165   5.888  20.729  0.00  0.00    +0.000 A 
ATOM     18  N   UNL     1      47.705   6.896  19.920  0.00  0.00    +0.000 N 
ATOM     19  C   UNL     1      48.304   7.225  18.726  0.00  0.00    +0.000 A 
ATOM     20  O   UNL     1      47.954   8.212  18.083  0.00  0.00    +0.000 OA
ATOM     21  C   UNL     1      49.370   6.325  18.323  0.00  0.00    +0.000 A 
ATOM     22  H   UNL     1      46.955   7.497  20.224  0.00  0.00    +0.000 HD
ENDBRANCH  11  12
ENDBRANCH   9  11
ENDBRANCH   4   7
BRANCH   1  23
ATOM     23  C   UNL     1      43.987   5.254  10.831  0.00  0.00    +0.000 C 
BRANCH  23  24
ATOM     24  C   UNL     1      43.904   3.741  10.466  0.00  0.00    +0.000 C 
BRANCH  24  25
ATOM     25  N   UNL     1      45.059   3.368   9.574  0.00  0.00    +0.000 NA
ATOM     26  C   UNL     1      44.991   1.980   9.081  0.00  0.00    +0.000 C 
ATOM     27  C   UNL     1      46.186   1.600   8.207  0.00  0.00    +0.000 C 
ATOM     28  C   UNL     1      46.348   2.573   7.049  0.00  0.00    +0.000 C 
ATOM     29  C   UNL     1      46.428   3.999   7.580  0.00  0.00    +0.000 C 
ATOM     30  C   UNL     1      45.221   4.322   8.462  0.00  0.00    +0.000 C 
ENDBRANCH  24  25
BRANCH  24  31
ATOM     31  C   UNL     1      43.777   2.807  11.714  0.00  0.00    +0.000 C 
BRANCH  31  32
ATOM     32  N   UNL     1      42.816   1.716  11.613  0.00  0.00    +0.000 NA
ATOM     33  H   UNL     1      42.228   1.850  10.793  0.00  0.00    +0.000 HD
ATOM     34  H   UNL     1      42.202   1.710  12.425  0.00  0.00    +0.000 HD
ENDBRANCH  31  32
ENDBRANCH  24  31
ENDBRANCH  23  24
ENDBRANCH   1  23
TORSDOF 8
ENDMDL
MODEL 7
REMARK VINA RESULT:    -6.949      3.013      8.545
REMARK INTER + INTRA:         -10.761
REMARK INTER:                  -9.562
REMARK INTRA:                  -1.199
REMARK UNBOUND:                -0.766
REMARK  Name = 
REMARK  8 active torsions:
REMARK  status: ('A' for Active; 'I' for Inactive)
REMARK    1  A    between atoms: N_1  and  C_2
REMARK    2  A    between atoms: C_2  and  C_3
REMARK    3  A    between atoms: C_3  and  C_4
REMARK    4  A    between atoms: C_3  and  N_25
REMARK    5  A    between atoms: C_4  and  C_5
REMARK    6  A    between atoms: C_8  and  C_9
REMARK    7  A    between atoms: N_11  and  C_12
REMARK    8  A    between atoms: C_12  and  C_13
REMARK                            x       y       z     vdW  Elec       q    Type
REMARK                         _______ _______ _______ _____ _____    ______ ____
ROOT
ATOM      1  C   UNL     1      49.705   6.158  16.433  0.00  0.00    +0.000 A 
ATOM      2  C   UNL     1      50.347   7.055  15.566  0.00  0.00    +0.000 A 
ATOM      3  C   UNL     1      49.775   7.401  14.339  0.00  0.00    +0.000 A 
ATOM      4  C   UNL     1      48.537   6.863  13.969  0.00  0.00    +0.000 A 
ATOM      5  C   UNL     1      47.892   5.964  14.825  0.00  0.00    +0.000 A 
ATOM      6  C   UNL     1      48.469   5.616  16.052  0.00  0.00    +0.000 A 
ENDROOT
BRANCH   4   7
ATOM      7  C   UNL     1      47.918   7.201  12.654  0.00  0.00    +0.000 C 
ATOM      8  O   UNL     1      48.619   7.585  11.722  0.00  0.00    +0.000 OA
ATOM      9  N   UNL     1      46.554   7.019  12.559  0.00  0.00    +0.000 N 
ATOM     10  H   UNL     1      46.138   6.367  13.223  0.00  0.00    +0.000 HD
BRANCH   9  11
ATOM     11  C   UNL     1      45.865   7.173  11.302  0.00  0.00    +0.000 C 
BRANCH  11  12
ATOM     12  C   UNL     1      45.470   5.842  10.709  0.00  0.00    +0.000 A 
ATOM     13  C   UNL     1      45.781   5.504   9.399  0.00  0.00    +0.000 A 
ATOM     14  S   UNL     1      45.184   3.977   8.924  0.00  0.00    +0.000 S 
ATOM     15  C   UNL     1      44.506   3.704  10.462  0.00  0.00    +0.000 A 
ATOM     16  N   UNL     1      43.797   2.571  10.724  0.00  0.00    +0.000 NA
ATOM     17  C   UNL     1      43.331   2.504  11.926  0.00  0.00    +0.000 A 
ATOM     18  N   UNL     1      43.529   3.453  12.896  0.00  0.00    +0.000 N 
ATOM     19  C   UNL     1      44.305   4.571  12.699  0.00  0.00    +0.000 A 
ATOM     20  O   UNL     1      44.573   5.338  13.621  0.00  0.00    +0.000 OA
ATOM     21  C   UNL     1      44.776   4.738  11.336  0.00  0.00    +0.000 A 
ATOM     22  H   UNL     1      43.179   3.312  13.831  0.00  0.00    +0.000 HD
ENDBRANCH  11  12
ENDBRANCH   9  11
ENDBRANCH   4   7
BRANCH   1  23
ATOM     23  C   UNL     1      50.379   5.758  17.731  0.00  0.00    +0.000 C 
BRANCH  23  24
ATOM     24  C   UNL     1      49.808   4.524  18.493  0.00  0.00    +0.000 C 
BRANCH  24  25
ATOM     25  N   UNL     1      50.843   3.430  18.537  0.00  0.00    +0.000 NA
ATOM     26  C   UNL     1      50.771   2.514  17.384  0.00  0.00    +0.000 C 
ATOM     27  C   UNL     1      51.800   1.386  17.456  0.00  0.00    +0.000 C 
ATOM     28  C   UNL     1      53.208   1.940  17.614  0.00  0.00    +0.000 C 
ATOM     29  C   UNL     1      53.263   2.874  18.816  0.00  0.00    +0.000 C 
ATOM     30  C   UNL     1      52.203   3.971  18.704  0.00  0.00    +0.000 C 
ENDBRANCH  24  25
BRANCH  24  31
ATOM     31  C   UNL     1      49.240   4.876  19.907  0.00  0.00    +0.000 C 
BRANCH  31  32
ATOM     32  N   UNL     1      48.467   3.836  20.573  0.00  0.00    +0.000 NA
ATOM     33  H   UNL     1      48.167   3.141  19.893  0.00  0.00    +0.000 HD
ATOM     34  H   UNL     1      47.626   4.232  20.989  0.00  0.00    +0.000 HD
ENDBRANCH  31  32
ENDBRANCH  24  31
ENDBRANCH  23  24
ENDBRANCH   1  23
TORSDOF 8
ENDMDL
MODEL 8
REMARK VINA RESULT:    -6.783      2.858      8.872
REMARK INTER + INTRA:         -10.522
REMARK INTER:                  -9.719
REMARK INTRA:                  -0.803
REMARK UNBOUND:                -0.766
REMARK  Name = 
REMARK  8 active torsions:
REMARK  status: ('A' for Active; 'I' for Inactive)
REMARK    1  A    between atoms: N_1  and  C_2
REMARK    2  A    between atoms: C_2  and  C_3
REMARK    3  A    between atoms: C_3  and  C_4
REMARK    4  A    between atoms: C_3  and  N_25
REMARK    5  A    between atoms: C_4  and  C_5
REMARK    6  A    between atoms: C_8  and  C_9
REMARK    7  A    between atoms: N_11  and  C_12
REMARK    8  A    between atoms: C_12  and  C_13
REMARK                            x       y       z     vdW  Elec       q    Type
REMARK                         _______ _______ _______ _____ _____    ______ ____
ROOT
ATOM      1  C   UNL     1      49.851   6.586  16.047  0.00  0.00    +0.000 A 
ATOM      2  C   UNL     1      48.635   5.895  15.932  0.00  0.00    +0.000 A 
ATOM      3  C   UNL     1      47.863   5.991  14.772  0.00  0.00    +0.000 A 
ATOM      4  C   UNL     1      48.308   6.772  13.699  0.00  0.00    +0.000 A 
ATOM      5  C   UNL     1      49.516   7.468  13.807  0.00  0.00    +0.000 A 
ATOM      6  C   UNL     1      50.287   7.374  14.972  0.00  0.00    +0.000 A 
ENDROOT
BRANCH   4   7
ATOM      7  C   UNL     1      47.488   6.906  12.458  0.00  0.00    +0.000 C 
ATOM      8  O   UNL     1      48.019   7.231  11.400  0.00  0.00    +0.000 OA
ATOM      9  N   UNL     1      46.146   6.610  12.582  0.00  0.00    +0.000 N 
ATOM     10  H   UNL     1      45.886   6.010  13.363  0.00  0.00    +0.000 HD
BRANCH   9  11
ATOM     11  C   UNL     1      45.283   6.563  11.428  0.00  0.00    +0.000 C 
BRANCH  11  12
ATOM     12  C   UNL     1      44.733   5.177  11.191  0.00  0.00    +0.000 A 
ATOM     13  C   UNL     1      43.849   4.580  12.079  0.00  0.00    +0.000 A 
ATOM     14  S   UNL     1      43.405   2.991  11.640  0.00  0.00    +0.000 S 
ATOM     15  C   UNL     1      44.364   3.054  10.234  0.00  0.00    +0.000 A 
ATOM     16  N   UNL     1      44.467   1.976   9.407  0.00  0.00    +0.000 NA
ATOM     17  C   UNL     1      45.237   2.163   8.388  0.00  0.00    +0.000 A 
ATOM     18  N   UNL     1      45.893   3.334   8.106  0.00  0.00    +0.000 N 
ATOM     19  C   UNL     1      45.752   4.470   8.868  0.00  0.00    +0.000 A 
ATOM     20  O   UNL     1      46.245   5.541   8.523  0.00  0.00    +0.000 OA
ATOM     21  C   UNL     1      44.969   4.285  10.077  0.00  0.00    +0.000 A 
ATOM     22  H   UNL     1      46.438   3.427   7.263  0.00  0.00    +0.000 HD
ENDBRANCH  11  12
ENDBRANCH   9  11
ENDBRANCH   4   7
BRANCH   1  23
ATOM     23  C   UNL     1      50.638   6.509  17.341  0.00  0.00    +0.000 C 
BRANCH  23  24
ATOM     24  C   UNL     1      50.384   5.284  18.271  0.00  0.00    +0.000 C 
BRANCH  24  25
ATOM     25  N   UNL     1      51.047   4.061  17.694  0.00  0.00    +0.000 NA
ATOM     26  C   UNL     1      52.277   3.673  18.409  0.00  0.00    +0.000 C 
ATOM     27  C   UNL     1      52.962   2.453  17.793  0.00  0.00    +0.000 C 
ATOM     28  C   UNL     1      52.002   1.276  17.699  0.00  0.00    +0.000 C 
ATOM     29  C   UNL     1      50.745   1.695  16.949  0.00  0.00    +0.000 C 
ATOM     30  C   UNL     1      50.109   2.929  17.592  0.00  0.00    +0.000 C 
ENDBRANCH  24  25
BRANCH  24  31
ATOM     31  C   UNL     1      50.784   5.543  19.761  0.00  0.00    +0.000 C 
BRANCH  31  32
ATOM     32  N   UNL     1      50.163   4.680  20.758  0.00  0.00    +0.000 NA
ATOM     33  H   UNL     1      50.873   4.110  21.210  0.00  0.00    +0.000 HD
ATOM     34  H   UNL     1      49.504   4.043  20.314  0.00  0.00    +0.000 HD
ENDBRANCH  31  32
ENDBRANCH  24  31
ENDBRANCH  23  24
ENDBRANCH   1  23
TORSDOF 8
ENDMDL
MODEL 9
REMARK VINA RESULT:    -6.544      3.237      9.357
REMARK INTER + INTRA:         -10.178
REMARK INTER:                  -9.118
REMARK INTRA:                  -1.060
REMARK UNBOUND:                -0.766
REMARK  Name = 
REMARK  8 active torsions:
REMARK  status: ('A' for Active; 'I' for Inactive)
REMARK    1  A    between atoms: N_1  and  C_2
REMARK    2  A    between atoms: C_2  and  C_3
REMARK    3  A    between atoms: C_3  and  C_4
REMARK    4  A    between atoms: C_3  and  N_25
REMARK    5  A    between atoms: C_4  and  C_5
REMARK    6  A    between atoms: C_8  and  C_9
REMARK    7  A    between atoms: N_11  and  C_12
REMARK    8  A    between atoms: C_12  and  C_13
REMARK                            x       y       z     vdW  Elec       q    Type
REMARK                         _______ _______ _______ _____ _____    ______ ____
ROOT
ATOM      1  C   UNL     1      49.502   5.580  17.098  0.00  0.00    +0.000 A 
ATOM      2  C   UNL     1      48.370   4.839  16.728  0.00  0.00    +0.000 A 
ATOM      3  C   UNL     1      47.701   5.101  15.529  0.00  0.00    +0.000 A 
ATOM      4  C   UNL     1      48.171   6.103  14.672  0.00  0.00    +0.000 A 
ATOM      5  C   UNL     1      49.296   6.850  15.036  0.00  0.00    +0.000 A 
ATOM      6  C   UNL     1      49.961   6.590  16.240  0.00  0.00    +0.000 A 
ENDROOT
BRANCH   4   7
ATOM      7  C   UNL     1      47.460   6.415  13.397  0.00  0.00    +0.000 C 
ATOM      8  O   UNL     1      48.097   6.735  12.398  0.00  0.00    +0.000 OA
ATOM      9  N   UNL     1      46.087   6.282  13.418  0.00  0.00    +0.000 N 
ATOM     10  H   UNL     1      45.704   5.671  14.139  0.00  0.00    +0.000 HD
BRANCH   9  11
ATOM     11  C   UNL     1      45.305   6.413  12.214  0.00  0.00    +0.000 C 
BRANCH  11  12
ATOM     12  C   UNL     1      44.743   5.088  11.759  0.00  0.00    +0.000 A 
ATOM     13  C   UNL     1      43.895   4.339  12.562  0.00  0.00    +0.000 A 
ATOM     14  S   UNL     1      43.429   2.851  11.868  0.00  0.00    +0.000 S 
ATOM     15  C   UNL     1      44.330   3.166  10.457  0.00  0.00    +0.000 A 
ATOM     16  N   UNL     1      44.397   2.251   9.450  0.00  0.00    +0.000 NA
ATOM     17  C   UNL     1      45.126   2.619   8.450  0.00  0.00    +0.000 A 
ATOM     18  N   UNL     1      45.772   3.824   8.353  0.00  0.00    +0.000 N 
ATOM     19  C   UNL     1      45.665   4.808   9.308  0.00  0.00    +0.000 A 
ATOM     20  O   UNL     1      46.146   5.925   9.138  0.00  0.00    +0.000 OA
ATOM     21  C   UNL     1      44.931   4.408  10.496  0.00  0.00    +0.000 A 
ATOM     22  H   UNL     1      46.283   4.067   7.518  0.00  0.00    +0.000 HD
ENDBRANCH  11  12
ENDBRANCH   9  11
ENDBRANCH   4   7
BRANCH   1  23
ATOM     23  C   UNL     1      50.170   5.312  18.433  0.00  0.00    +0.000 C 
BRANCH  23  24
ATOM     24  C   UNL     1      49.610   6.050  19.685  0.00  0.00    +0.000 C 
BRANCH  24  25
ATOM     25  N   UNL     1      49.021   7.374  19.275  0.00  0.00    +0.000 NA
ATOM     26  C   UNL     1      47.730   7.665  19.925  0.00  0.00    +0.000 C 
ATOM     27  C   UNL     1      47.124   8.994  19.474  0.00  0.00    +0.000 C 
ATOM     28  C   UNL     1      48.100  10.140  19.685  0.00  0.00    +0.000 C 
ATOM     29  C   UNL     1      49.422   9.825  18.997  0.00  0.00    +0.000 C 
ATOM     30  C   UNL     1      49.977   8.480  19.468  0.00  0.00    +0.000 C 
ENDBRANCH  24  25
BRANCH  24  31
ATOM     31  C   UNL     1      48.617   5.181  20.526  0.00  0.00    +0.000 C 
BRANCH  31  32
ATOM     32  N   UNL     1      48.510   3.776  20.155  0.00  0.00    +0.000 NA
ATOM     33  H   UNL     1      47.654   3.623  19.628  0.00  0.00    +0.000 HD
ATOM     34  H   UNL     1      48.458   3.193  20.989  0.00  0.00    +0.000 HD
ENDBRANCH  31  32
ENDBRANCH  24  31
ENDBRANCH  23  24
ENDBRANCH   1  23
TORSDOF 8
ENDMDL
