MODEL 1
REMARK VINA RESULT:    -8.673      0.000      0.000
REMARK INTER + INTRA:         -11.779
REMARK INTER:                 -11.208
REMARK INTRA:                  -0.571
REMARK UNBOUND:                -0.571
REMARK  Name = 
REMARK  5 active torsions:
REMARK  status: ('A' for Active; 'I' for Inactive)
REMARK    1  A    between atoms: C_2  and  C_4
REMARK    2  A    between atoms: C_7  and  C_8
REMARK    3  A    between atoms: C_8  and  S_9
REMARK    4  A    between atoms: S_9  and  C_10
REMARK    5  A    between atoms: C_14  and  C_15
REMARK                            x       y       z     vdW  Elec       q    Type
REMARK                         _______ _______ _______ _____ _____    ______ ____
ROOT
ATOM      1  S   UNL     1      43.804   4.256  11.951  0.00  0.00    +0.000 S 
ENDROOT
BRANCH   1   2
ATOM      2  C   UNL     1      45.311   4.994  12.551  0.00  0.00    +0.000 A 
ATOM      3  C   UNL     1      46.021   6.045  11.987  0.00  0.00    +0.000 A 
ATOM      4  N   UNL     1      47.163   6.559  12.506  0.00  0.00    +0.000 NA
ATOM      5  C   UNL     1      47.632   5.991  13.648  0.00  0.00    +0.000 A 
ATOM      6  C   UNL     1      47.033   4.917  14.302  0.00  0.00    +0.000 A 
ATOM      7  C   UNL     1      45.844   4.442  13.726  0.00  0.00    +0.000 A 
BRANCH   6   8
ATOM      8  C   UNL     1      47.607   4.321  15.517  0.00  0.00    +0.000 A 
ATOM      9  C   UNL     1      47.853   5.053  16.682  0.00  0.00    +0.000 A 
ATOM     10  N   UNL     1      48.413   4.526  17.799  0.00  0.00    +0.000 NA
ATOM     11  C   UNL     1      48.724   3.216  17.720  0.00  0.00    +0.000 A 
ATOM     12  C   UNL     1      48.473   2.469  16.583  0.00  0.00    +0.000 A 
ATOM     13  N   UNL     1      47.909   2.997  15.468  0.00  0.00    +0.000 NA
ENDBRANCH   6   8
ENDBRANCH   1   2
BRANCH   1  14
ATOM     14  C   UNL     1      43.724   4.743  10.199  0.00  0.00    +0.000 C 
BRANCH  14  18
ATOM     15  C   UNL     1      46.380   2.293   7.815  0.00  0.00    +0.000 A 
ATOM     16  C   UNL     1      46.369   3.683   7.654  0.00  0.00    +0.000 A 
ATOM     17  C   UNL     1      45.507   4.471   8.422  0.00  0.00    +0.000 A 
ATOM     18  C   UNL     1      44.647   3.884   9.363  0.00  0.00    +0.000 A 
ATOM     19  C   UNL     1      44.630   2.486   9.484  0.00  0.00    +0.000 A 
ATOM     20  C   UNL     1      45.491   1.695   8.714  0.00  0.00    +0.000 A 
BRANCH  15  22
ATOM     21  N   UNL     1      48.409   2.022   6.494  0.00  0.00    +0.000 N 
ATOM     22  C   UNL     1      47.307   1.422   7.043  0.00  0.00    +0.000 C 
ATOM     23  O   UNL     1      47.124   0.217   6.935  0.00  0.00    +0.000 OA
ATOM     24  H   UNL     1      49.092   1.405   6.073  0.00  0.00    +0.000 HD
ATOM     25  H   UNL     1      48.720   2.938   6.780  0.00  0.00    +0.000 HD
ENDBRANCH  15  22
ENDBRANCH  14  18
ENDBRANCH   1  14
TORSDOF 5
ENDMDL
MODEL 2
REMARK VINA RESULT:    -8.439      1.999      4.158
REMARK INTER + INTRA:         -11.476
REMARK INTER:                 -10.690
REMARK INTRA:                  -0.786
REMARK UNBOUND:                -0.571
REMARK  Name = 
REMARK  5 active torsions:
REMARK  status: ('A' for Active; 'I' for Inactive)
REMARK    1  A    between atoms: C_2  and  C_4
REMARK    2  A    between atoms: C_7  and  C_8
REMARK    3  A    between atoms: C_8  and  S_9
REMARK    4  A    between atoms: S_9  and  C_10
REMARK    5  A    between atoms: C_14  and  C_15
REMARK                            x       y       z     vdW  Elec       q    Type
REMARK                         _______ _______ _______ _____ _____    ______ ____
ROOT
ATOM      1  S   UNL     1      43.910   3.704  12.261  0.00  0.00    +0.000 S 
ENDROOT
BRANCH   1   2
ATOM      2  C   UNL     1      45.357   4.620  12.758  0.00  0.00    +0.000 A 
ATOM      3  C   UNL     1      46.457   4.147  13.458  0.00  0.00    +0.000 A 
ATOM      4  N   UNL     1      47.528   4.907  13.798  0.00  0.00    +0.000 NA
ATOM      5  C   UNL     1      47.499   6.214  13.428  0.00  0.00    +0.000 A 
ATOM      6  C   UNL     1      46.448   6.822  12.746  0.00  0.00    +0.000 A 
ATOM      7  C   UNL     1      45.377   5.979  12.407  0.00  0.00    +0.000 A 
BRANCH   6   8
ATOM      8  C   UNL     1      46.458   8.250  12.403  0.00  0.00    +0.000 A 
ATOM      9  C   UNL     1      45.318   8.943  11.988  0.00  0.00    +0.000 A 
ATOM     10  N   UNL     1      45.317  10.252  11.635  0.00  0.00    +0.000 NA
ATOM     11  C   UNL     1      46.515  10.866  11.714  0.00  0.00    +0.000 A 
ATOM     12  C   UNL     1      47.654  10.204  12.138  0.00  0.00    +0.000 A 
ATOM     13  N   UNL     1      47.651   8.895  12.494  0.00  0.00    +0.000 NA
ENDBRANCH   6   8
ENDBRANCH   1   2
BRANCH   1  14
ATOM     14  C   UNL     1      43.578   4.267  10.561  0.00  0.00    +0.000 C 
BRANCH  14  18
ATOM     15  C   UNL     1      46.404   2.504   7.796  0.00  0.00    +0.000 A 
ATOM     16  C   UNL     1      46.236   3.893   7.843  0.00  0.00    +0.000 A 
ATOM     17  C   UNL     1      45.319   4.458   8.733  0.00  0.00    +0.000 A 
ATOM     18  C   UNL     1      44.561   3.647   9.591  0.00  0.00    +0.000 A 
ATOM     19  C   UNL     1      44.700   2.254   9.504  0.00  0.00    +0.000 A 
ATOM     20  C   UNL     1      45.616   1.686   8.612  0.00  0.00    +0.000 A 
BRANCH  15  22
ATOM     21  N   UNL     1      48.467   2.626   6.506  0.00  0.00    +0.000 N 
ATOM     22  C   UNL     1      47.394   1.865   6.888  0.00  0.00    +0.000 C 
ATOM     23  O   UNL     1      47.287   0.700   6.530  0.00  0.00    +0.000 OA
ATOM     24  H   UNL     1      49.193   2.149   5.986  0.00  0.00    +0.000 HD
ATOM     25  H   UNL     1      48.717   3.479   6.982  0.00  0.00    +0.000 HD
ENDBRANCH  15  22
ENDBRANCH  14  18
ENDBRANCH   1  14
TORSDOF 5
ENDMDL
MODEL 3
REMARK VINA RESULT:    -8.350      1.794      2.950
REMARK INTER + INTRA:         -11.361
REMARK INTER:                 -10.724
REMARK INTRA:                  -0.637
REMARK UNBOUND:                -0.571
REMARK  Name = 
REMARK  5 active torsions:
REMARK  status: ('A' for Active; 'I' for Inactive)
REMARK    1  A    between atoms: C_2  and  C_4
REMARK    2  A    between atoms: C_7  and  C_8
REMARK    3  A    between atoms: C_8  and  S_9
REMARK    4  A    between atoms: S_9  and  C_10
REMARK    5  A    between atoms: C_14  and  C_15
REMARK                            x       y       z     vdW  Elec       q    Type
REMARK                         _______ _______ _______ _____ _____    ______ ____
ROOT
ATOM      1  S   UNL     1      44.291   5.981  11.046  0.00  0.00    +0.000 S 
ENDROOT
BRANCH   1   2
ATOM      2  C   UNL     1      45.389   5.486  12.360  0.00  0.00    +0.000 A 
ATOM      3  C   UNL     1      45.214   4.445  13.260  0.00  0.00    +0.000 A 
ATOM      4  N   UNL     1      46.101   4.124  14.235  0.00  0.00    +0.000 NA
ATOM      5  C   UNL     1      47.222   4.886  14.326  0.00  0.00    +0.000 A 
ATOM      6  C   UNL     1      47.509   5.973  13.504  0.00  0.00    +0.000 A 
ATOM      7  C   UNL     1      46.562   6.244  12.503  0.00  0.00    +0.000 A 
BRANCH   6   8
ATOM      8  C   UNL     1      48.723   6.783  13.672  0.00  0.00    +0.000 A 
ATOM      9  C   UNL     1      49.282   7.542  12.640  0.00  0.00    +0.000 A 
ATOM     10  N   UNL     1      50.421   8.268  12.768  0.00  0.00    +0.000 NA
ATOM     11  C   UNL     1      50.996   8.217  13.987  0.00  0.00    +0.000 A 
ATOM     12  C   UNL     1      50.451   7.486  15.028  0.00  0.00    +0.000 A 
ATOM     13  N   UNL     1      49.310   6.764  14.897  0.00  0.00    +0.000 NA
ENDBRANCH   6   8
ENDBRANCH   1   2
BRANCH   1  14
ATOM     14  C   UNL     1      43.597   4.418  10.420  0.00  0.00    +0.000 C 
BRANCH  14  18
ATOM     15  C   UNL     1      46.397   2.487   7.742  0.00  0.00    +0.000 A 
ATOM     16  C   UNL     1      46.202   3.871   7.679  0.00  0.00    +0.000 A 
ATOM     17  C   UNL     1      45.293   4.491   8.542  0.00  0.00    +0.000 A 
ATOM     18  C   UNL     1      44.570   3.739   9.481  0.00  0.00    +0.000 A 
ATOM     19  C   UNL     1      44.737   2.346   9.505  0.00  0.00    +0.000 A 
ATOM     20  C   UNL     1      45.643   1.724   8.641  0.00  0.00    +0.000 A 
BRANCH  15  22
ATOM     21  N   UNL     1      48.478   2.511   6.477  0.00  0.00    +0.000 N 
ATOM     22  C   UNL     1      47.379   1.794   6.866  0.00  0.00    +0.000 C 
ATOM     23  O   UNL     1      47.243   0.622   6.539  0.00  0.00    +0.000 OA
ATOM     24  H   UNL     1      49.196   1.999   5.981  0.00  0.00    +0.000 HD
ATOM     25  H   UNL     1      48.748   3.371   6.932  0.00  0.00    +0.000 HD
ENDBRANCH  15  22
ENDBRANCH  14  18
ENDBRANCH   1  14
TORSDOF 5
ENDMDL
MODEL 4
REMARK VINA RESULT:    -7.884      2.320      4.252
REMARK INTER + INTRA:         -10.760
REMARK INTER:                 -10.099
REMARK INTRA:                  -0.661
REMARK UNBOUND:                -0.571
REMARK  Name = 
REMARK  5 active torsions:
REMARK  status: ('A' for Active; 'I' for Inactive)
REMARK    1  A    between atoms: C_2  and  C_4
REMARK    2  A    between atoms: C_7  and  C_8
REMARK    3  A    between atoms: C_8  and  S_9
REMARK    4  A    between atoms: S_9  and  C_10
REMARK    5  A    between atoms: C_14  and  C_15
REMARK                            x       y       z     vdW  Elec       q    Type
REMARK                         _______ _______ _______ _____ _____    ______ ____
ROOT
ATOM      1  S   UNL     1      44.070   5.715  11.007  0.00  0.00    +0.000 S 
ENDROOT
BRANCH   1   2
ATOM      2  C   UNL     1      45.550   5.789  11.998  0.00  0.00    +0.000 A 
ATOM      3  C   UNL     1      45.852   5.035  13.123  0.00  0.00    +0.000 A 
ATOM      4  N   UNL     1      47.007   5.144  13.826  0.00  0.00    +0.000 NA
ATOM      5  C   UNL     1      47.909   6.062  13.391  0.00  0.00    +0.000 A 
ATOM      6  C   UNL     1      47.721   6.900  12.295  0.00  0.00    +0.000 A 
ATOM      7  C   UNL     1      46.514   6.726  11.598  0.00  0.00    +0.000 A 
BRANCH   6   8
ATOM      8  C   UNL     1      48.720   7.899  11.892  0.00  0.00    +0.000 A 
ATOM      9  C   UNL     1      50.058   7.583  11.643  0.00  0.00    +0.000 A 
ATOM     10  N   UNL     1      51.000   8.499  11.305  0.00  0.00    +0.000 NA
ATOM     11  C   UNL     1      50.555   9.769  11.214  0.00  0.00    +0.000 A 
ATOM     12  C   UNL     1      49.231  10.102  11.440  0.00  0.00    +0.000 A 
ATOM     13  N   UNL     1      48.291   9.184  11.775  0.00  0.00    +0.000 NA
ENDBRANCH   6   8
ENDBRANCH   1   2
BRANCH   1  14
ATOM     14  C   UNL     1      43.860   3.945  10.634  0.00  0.00    +0.000 C 
BRANCH  14  18
ATOM     15  C   UNL     1      46.551   2.705   7.477  0.00  0.00    +0.000 A 
ATOM     16  C   UNL     1      45.974   1.754   8.326  0.00  0.00    +0.000 A 
ATOM     17  C   UNL     1      45.109   2.158   9.347  0.00  0.00    +0.000 A 
ATOM     18  C   UNL     1      44.806   3.515   9.533  0.00  0.00    +0.000 A 
ATOM     19  C   UNL     1      45.426   4.466   8.709  0.00  0.00    +0.000 A 
ATOM     20  C   UNL     1      46.294   4.064   7.688  0.00  0.00    +0.000 A 
BRANCH  15  22
ATOM     21  N   UNL     1      47.372   3.061   5.212  0.00  0.00    +0.000 N 
ATOM     22  C   UNL     1      47.448   2.314   6.357  0.00  0.00    +0.000 C 
ATOM     23  O   UNL     1      48.250   1.396   6.459  0.00  0.00    +0.000 OA
ATOM     24  H   UNL     1      48.064   2.864   4.501  0.00  0.00    +0.000 HD
ATOM     25  H   UNL     1      46.923   3.965   5.189  0.00  0.00    +0.000 HD
ENDBRANCH  15  22
ENDBRANCH  14  18
ENDBRANCH   1  14
TORSDOF 5
ENDMDL
MODEL 5
REMARK VINA RESULT:    -7.392      2.876      7.830
REMARK INTER + INTRA:         -10.123
REMARK INTER:                  -9.750
REMARK INTRA:                  -0.373
REMARK UNBOUND:                -0.571
REMARK  Name = 
REMARK  5 active torsions:
REMARK  status: ('A' for Active; 'I' for Inactive)
REMARK    1  A    between atoms: C_2  and  C_4
REMARK    2  A    between atoms: C_7  and  C_8
REMARK    3  A    between atoms: C_8  and  S_9
REMARK    4  A    between atoms: S_9  and  C_10
REMARK    5  A    between atoms: C_14  and  C_15
REMARK                            x       y       z     vdW  Elec       q    Type
REMARK                         _______ _______ _______ _____ _____    ______ ____
ROOT
ATOM      1  S   UNL     1      44.785   6.650  11.541  0.00  0.00    +0.000 S 
ENDROOT
BRANCH   1   2
ATOM      2  C   UNL     1      44.470   4.995  10.958  0.00  0.00    +0.000 A 
ATOM      3  C   UNL     1      43.586   4.066  11.487  0.00  0.00    +0.000 A 
ATOM      4  N   UNL     1      43.396   2.821  10.984  0.00  0.00    +0.000 NA
ATOM      5  C   UNL     1      44.135   2.476   9.896  0.00  0.00    +0.000 A 
ATOM      6  C   UNL     1      45.074   3.302   9.283  0.00  0.00    +0.000 A 
ATOM      7  C   UNL     1      45.211   4.584   9.840  0.00  0.00    +0.000 A 
BRANCH   6   8
ATOM      8  C   UNL     1      45.869   2.861   8.129  0.00  0.00    +0.000 A 
ATOM      9  C   UNL     1      46.389   1.569   8.010  0.00  0.00    +0.000 A 
ATOM     10  N   UNL     1      47.154   1.156   6.968  0.00  0.00    +0.000 NA
ATOM     11  C   UNL     1      47.385   2.091   6.023  0.00  0.00    +0.000 A 
ATOM     12  C   UNL     1      46.865   3.370   6.112  0.00  0.00    +0.000 A 
ATOM     13  N   UNL     1      46.098   3.779   7.154  0.00  0.00    +0.000 NA
ENDBRANCH   6   8
ENDBRANCH   1   2
BRANCH   1  14
ATOM     14  C   UNL     1      46.592   6.721  11.754  0.00  0.00    +0.000 C 
BRANCH  14  18
ATOM     15  C   UNL     1      47.757   5.016  15.559  0.00  0.00    +0.000 A 
ATOM     16  C   UNL     1      46.802   4.374  14.761  0.00  0.00    +0.000 A 
ATOM     17  C   UNL     1      46.425   4.930  13.536  0.00  0.00    +0.000 A 
ATOM     18  C   UNL     1      46.997   6.131  13.087  0.00  0.00    +0.000 A 
ATOM     19  C   UNL     1      47.917   6.792  13.915  0.00  0.00    +0.000 A 
ATOM     20  C   UNL     1      48.294   6.239  15.143  0.00  0.00    +0.000 A 
BRANCH  15  22
ATOM     21  N   UNL     1      47.318   4.461  17.889  0.00  0.00    +0.000 N 
ATOM     22  C   UNL     1      48.211   4.440  16.853  0.00  0.00    +0.000 C 
ATOM     23  O   UNL     1      49.316   3.928  16.982  0.00  0.00    +0.000 OA
ATOM     24  H   UNL     1      47.591   3.964  18.728  0.00  0.00    +0.000 HD
ATOM     25  H   UNL     1      46.333   4.630  17.747  0.00  0.00    +0.000 HD
ENDBRANCH  15  22
ENDBRANCH  14  18
ENDBRANCH   1  14
TORSDOF 5
ENDMDL
MODEL 6
REMARK VINA RESULT:    -6.749      3.722      7.630
REMARK INTER + INTRA:          -9.292
REMARK INTER:                  -8.688
REMARK INTRA:                  -0.604
REMARK UNBOUND:                -0.571
REMARK  Name = 
REMARK  5 active torsions:
REMARK  status: ('A' for Active; 'I' for Inactive)
REMARK    1  A    between atoms: C_2  and  C_4
REMARK    2  A    between atoms: C_7  and  C_8
REMARK    3  A    between atoms: C_8  and  S_9
REMARK    4  A    between atoms: S_9  and  C_10
REMARK    5  A    between atoms: C_14  and  C_15
REMARK                            x       y       z     vdW  Elec       q    Type
REMARK                         _______ _______ _______ _____ _____    ______ ____
ROOT
ATOM      1  S   UNL     1      44.774   5.989  12.562  0.00  0.00    +0.000 S 
ENDROOT
BRANCH   1   2
ATOM      2  C   UNL     1      44.362   4.455  11.754  0.00  0.00    +0.000 A 
ATOM      3  C   UNL     1      43.409   3.524  12.143  0.00  0.00    +0.000 A 
ATOM      4  N   UNL     1      43.147   2.376  11.470  0.00  0.00    +0.000 NA
ATOM      5  C   UNL     1      43.880   2.135  10.352  0.00  0.00    +0.000 A 
ATOM      6  C   UNL     1      44.882   2.971   9.865  0.00  0.00    +0.000 A 
ATOM      7  C   UNL     1      45.093   4.152  10.595  0.00  0.00    +0.000 A 
BRANCH   6   8
ATOM      8  C   UNL     1      45.665   2.640   8.668  0.00  0.00    +0.000 A 
ATOM      9  C   UNL     1      45.969   3.574   7.673  0.00  0.00    +0.000 A 
ATOM     10  N   UNL     1      46.661   3.277   6.545  0.00  0.00    +0.000 NA
ATOM     11  C   UNL     1      47.056   1.992   6.439  0.00  0.00    +0.000 A 
ATOM     12  C   UNL     1      46.781   1.054   7.419  0.00  0.00    +0.000 A 
ATOM     13  N   UNL     1      46.091   1.355   8.548  0.00  0.00    +0.000 NA
ENDBRANCH   6   8
ENDBRANCH   1   2
BRANCH   1  14
ATOM     14  C   UNL     1      45.997   6.770  11.461  0.00  0.00    +0.000 C 
BRANCH  14  18
ATOM     15  C   UNL     1      49.679   7.586  13.585  0.00  0.00    +0.000 A 
ATOM     16  C   UNL     1      49.551   7.935  12.236  0.00  0.00    +0.000 A 
ATOM     17  C   UNL     1      48.363   7.667  11.552  0.00  0.00    +0.000 A 
ATOM     18  C   UNL     1      47.285   7.048  12.204  0.00  0.00    +0.000 A 
ATOM     19  C   UNL     1      47.438   6.658  13.543  0.00  0.00    +0.000 A 
ATOM     20  C   UNL     1      48.628   6.924  14.229  0.00  0.00    +0.000 A 
BRANCH  15  22
ATOM     21  N   UNL     1      51.208   7.054  15.405  0.00  0.00    +0.000 N 
ATOM     22  C   UNL     1      50.913   7.886  14.359  0.00  0.00    +0.000 C 
ATOM     23  O   UNL     1      51.661   8.806  14.055  0.00  0.00    +0.000 OA
ATOM     24  H   UNL     1      52.106   7.194  15.851  0.00  0.00    +0.000 HD
ATOM     25  H   UNL     1      50.767   6.153  15.516  0.00  0.00    +0.000 HD
ENDBRANCH  15  22
ENDBRANCH  14  18
ENDBRANCH   1  14
TORSDOF 5
ENDMDL
MODEL 7
REMARK VINA RESULT:    -6.696      3.082      4.024
REMARK INTER + INTRA:          -9.224
REMARK INTER:                  -8.455
REMARK INTRA:                  -0.769
REMARK UNBOUND:                -0.571
REMARK  Name = 
REMARK  5 active torsions:
REMARK  status: ('A' for Active; 'I' for Inactive)
REMARK    1  A    between atoms: C_2  and  C_4
REMARK    2  A    between atoms: C_7  and  C_8
REMARK    3  A    between atoms: C_8  and  S_9
REMARK    4  A    between atoms: S_9  and  C_10
REMARK    5  A    between atoms: C_14  and  C_15
REMARK                            x       y       z     vdW  Elec       q    Type
REMARK                         _______ _______ _______ _____ _____    ______ ____
ROOT
ATOM      1  S   UNL     1      47.889   8.016  12.136  0.00  0.00    +0.000 S 
ENDROOT
BRANCH   1   2
ATOM      2  C   UNL     1      48.649   7.768  13.729  0.00  0.00    +0.000 A 
ATOM      3  C   UNL     1      49.573   8.588  14.361  0.00  0.00    +0.000 A 
ATOM      4  N   UNL     1      50.105   8.335  15.583  0.00  0.00    +0.000 NA
ATOM      5  C   UNL     1      49.703   7.198  16.208  0.00  0.00    +0.000 A 
ATOM      6  C   UNL     1      48.803   6.277  15.676  0.00  0.00    +0.000 A 
ATOM      7  C   UNL     1      48.273   6.605  14.417  0.00  0.00    +0.000 A 
BRANCH   6   8
ATOM      8  C   UNL     1      48.431   5.046  16.385  0.00  0.00    +0.000 A 
ATOM      9  C   UNL     1      47.152   4.486  16.322  0.00  0.00    +0.000 A 
ATOM     10  N   UNL     1      46.783   3.369  16.998  0.00  0.00    +0.000 NA
ATOM     11  C   UNL     1      47.752   2.811  17.752  0.00  0.00    +0.000 A 
ATOM     12  C   UNL     1      49.029   3.339  17.817  0.00  0.00    +0.000 A 
ATOM     13  N   UNL     1      49.397   4.454  17.137  0.00  0.00    +0.000 NA
ENDBRANCH   6   8
ENDBRANCH   1   2
BRANCH   1  14
ATOM     14  C   UNL     1      46.100   7.983  12.474  0.00  0.00    +0.000 C 
BRANCH  14  18
ATOM     15  C   UNL     1      44.417   4.162  11.330  0.00  0.00    +0.000 A 
ATOM     16  C   UNL     1      45.220   4.875  10.433  0.00  0.00    +0.000 A 
ATOM     17  C   UNL     1      45.758   6.111  10.804  0.00  0.00    +0.000 A 
ATOM     18  C   UNL     1      45.505   6.650  12.075  0.00  0.00    +0.000 A 
ATOM     19  C   UNL     1      44.661   5.951  12.950  0.00  0.00    +0.000 A 
ATOM     20  C   UNL     1      44.119   4.715  12.580  0.00  0.00    +0.000 A 
BRANCH  15  22
ATOM     21  N   UNL     1      44.434   2.161   9.942  0.00  0.00    +0.000 N 
ATOM     22  C   UNL     1      43.855   2.828  10.988  0.00  0.00    +0.000 C 
ATOM     23  O   UNL     1      42.946   2.323  11.633  0.00  0.00    +0.000 OA
ATOM     24  H   UNL     1      44.125   1.209   9.791  0.00  0.00    +0.000 HD
ATOM     25  H   UNL     1      45.333   2.425   9.567  0.00  0.00    +0.000 HD
ENDBRANCH  15  22
ENDBRANCH  14  18
ENDBRANCH   1  14
TORSDOF 5
ENDMDL
MODEL 8
REMARK VINA RESULT:    -6.676      4.306      7.355
REMARK INTER + INTRA:          -9.198
REMARK INTER:                  -8.550
REMARK INTRA:                  -0.648
REMARK UNBOUND:                -0.571
REMARK  Name = 
REMARK  5 active torsions:
REMARK  status: ('A' for Active; 'I' for Inactive)
REMARK    1  A    between atoms: C_2  and  C_4
REMARK    2  A    between atoms: C_7  and  C_8
REMARK    3  A    between atoms: C_8  and  S_9
REMARK    4  A    between atoms: S_9  and  C_10
REMARK    5  A    between atoms: C_14  and  C_15
REMARK                            x       y       z     vdW  Elec       q    Type
REMARK                         _______ _______ _______ _____ _____    ______ ____
ROOT
ATOM      1  S   UNL     1      44.599   7.829  11.421  0.00  0.00    +0.000 S 
ENDROOT
BRANCH   1   2
ATOM      2  C   UNL     1      44.224   6.097  11.228  0.00  0.00    +0.000 A 
ATOM      3  C   UNL     1      43.338   5.336  11.977  0.00  0.00    +0.000 A 
ATOM      4  N   UNL     1      43.100   4.017  11.767  0.00  0.00    +0.000 NA
ATOM      5  C   UNL     1      43.791   3.419  10.761  0.00  0.00    +0.000 A 
ATOM      6  C   UNL     1      44.726   4.059   9.952  0.00  0.00    +0.000 A 
ATOM      7  C   UNL     1      44.914   5.427  10.207  0.00  0.00    +0.000 A 
BRANCH   6   8
ATOM      8  C   UNL     1      45.468   3.349   8.901  0.00  0.00    +0.000 A 
ATOM      9  C   UNL     1      45.627   1.961   8.884  0.00  0.00    +0.000 A 
ATOM     10  N   UNL     1      46.337   1.294   7.940  0.00  0.00    +0.000 NA
ATOM     11  C   UNL     1      46.893   2.072   6.988  0.00  0.00    +0.000 A 
ATOM     12  C   UNL     1      46.735   3.446   6.976  0.00  0.00    +0.000 A 
ATOM     13  N   UNL     1      46.021   4.110   7.919  0.00  0.00    +0.000 NA
ENDBRANCH   6   8
ENDBRANCH   1   2
BRANCH   1  14
ATOM     14  C   UNL     1      45.691   7.900  12.876  0.00  0.00    +0.000 C 
BRANCH  14  18
ATOM     15  C   UNL     1      49.806   8.460  11.652  0.00  0.00    +0.000 A 
ATOM     16  C   UNL     1      49.321   7.177  11.928  0.00  0.00    +0.000 A 
ATOM     17  C   UNL     1      47.994   7.000  12.327  0.00  0.00    +0.000 A 
ATOM     18  C   UNL     1      47.131   8.100  12.454  0.00  0.00    +0.000 A 
ATOM     19  C   UNL     1      47.638   9.387  12.221  0.00  0.00    +0.000 A 
ATOM     20  C   UNL     1      48.967   9.567  11.823  0.00  0.00    +0.000 A 
BRANCH  15  22
ATOM     21  N   UNL     1      52.134   7.753  11.550  0.00  0.00    +0.000 N 
ATOM     22  C   UNL     1      51.201   8.688  11.190  0.00  0.00    +0.000 C 
ATOM     23  O   UNL     1      51.503   9.640  10.483  0.00  0.00    +0.000 OA
ATOM     24  H   UNL     1      53.052   7.852  11.136  0.00  0.00    +0.000 HD
ATOM     25  H   UNL     1      51.876   6.842  11.899  0.00  0.00    +0.000 HD
ENDBRANCH  15  22
ENDBRANCH  14  18
ENDBRANCH   1  14
TORSDOF 5
ENDMDL
MODEL 9
REMARK VINA RESULT:    -6.437      4.098      8.377
REMARK INTER + INTRA:          -8.889
REMARK INTER:                  -8.396
REMARK INTRA:                  -0.493
REMARK UNBOUND:                -0.571
REMARK  Name = 
REMARK  5 active torsions:
REMARK  status: ('A' for Active; 'I' for Inactive)
REMARK    1  A    between atoms: C_2  and  C_4
REMARK    2  A    between atoms: C_7  and  C_8
REMARK    3  A    between atoms: C_8  and  S_9
REMARK    4  A    between atoms: S_9  and  C_10
REMARK    5  A    between atoms: C_14  and  C_15
REMARK                            x       y       z     vdW  Elec       q    Type
REMARK                         _______ _______ _______ _____ _____    ______ ____
ROOT
ATOM      1  S   UNL     1      47.796   4.276  17.154  0.00  0.00    +0.000 S 
ENDROOT
BRANCH   1   2
ATOM      2  C   UNL     1      47.716   5.016  15.534  0.00  0.00    +0.000 A 
ATOM      3  C   UNL     1      48.516   6.032  15.029  0.00  0.00    +0.000 A 
ATOM      4  N   UNL     1      48.398   6.543  13.778  0.00  0.00    +0.000 NA
ATOM      5  C   UNL     1      47.424   6.021  12.987  0.00  0.00    +0.000 A 
ATOM      6  C   UNL     1      46.539   5.019  13.378  0.00  0.00    +0.000 A 
ATOM      7  C   UNL     1      46.723   4.519  14.677  0.00  0.00    +0.000 A 
BRANCH   6   8
ATOM      8  C   UNL     1      45.482   4.518  12.489  0.00  0.00    +0.000 A 
ATOM      9  C   UNL     1      45.240   5.046  11.218  0.00  0.00    +0.000 A 
ATOM     10  N   UNL     1      44.247   4.619  10.399  0.00  0.00    +0.000 NA
ATOM     11  C   UNL     1      43.488   3.621  10.895  0.00  0.00    +0.000 A 
ATOM     12  C   UNL     1      43.720   3.071  12.144  0.00  0.00    +0.000 A 
ATOM     13  N   UNL     1      44.716   3.498  12.959  0.00  0.00    +0.000 NA
ENDBRANCH   6   8
ENDBRANCH   1   2
BRANCH   1  14
ATOM     14  C   UNL     1      49.386   4.844  17.837  0.00  0.00    +0.000 C 
BRANCH  14  18
ATOM     15  C   UNL     1      52.342   1.685  17.686  0.00  0.00    +0.000 A 
ATOM     16  C   UNL     1      52.710   2.976  18.079  0.00  0.00    +0.000 A 
ATOM     17  C   UNL     1      51.754   3.995  18.123  0.00  0.00    +0.000 A 
ATOM     18  C   UNL     1      50.418   3.739  17.777  0.00  0.00    +0.000 A 
ATOM     19  C   UNL     1      50.068   2.454  17.338  0.00  0.00    +0.000 A 
ATOM     20  C   UNL     1      51.023   1.433  17.291  0.00  0.00    +0.000 A 
BRANCH  15  22
ATOM     21  N   UNL     1      53.021  -0.537  18.415  0.00  0.00    +0.000 N 
ATOM     22  C   UNL     1      53.320   0.565  17.661  0.00  0.00    +0.000 C 
ATOM     23  O   UNL     1      54.328   0.600  16.967  0.00  0.00    +0.000 OA
ATOM     24  H   UNL     1      53.629  -1.338  18.301  0.00  0.00    +0.000 HD
ATOM     25  H   UNL     1      52.095  -0.703  18.781  0.00  0.00    +0.000 HD
ENDBRANCH  15  22
ENDBRANCH  14  18
ENDBRANCH   1  14
TORSDOF 5
ENDMDL
