MODEL 1
REMARK VINA RESULT:    -7.346      0.000      0.000
REMARK INTER + INTRA:          -9.520
REMARK INTER:                  -9.064
REMARK INTRA:                  -0.455
REMARK UNBOUND:                -0.455
REMARK  Name = 
REMARK  6 active torsions:
REMARK  status: ('A' for Active; 'I' for Inactive)
REMARK    1  A    between atoms: C_1  and  C_2
REMARK    2  A    between atoms: C_2  and  C_3
REMARK    3  A    between atoms: C_2  and  C_4
REMARK    4  A    between atoms: C_2  and  C_15
REMARK    5  A    between atoms: C_4  and  N_5
REMARK    6  A    between atoms: C_9  and  C_10
REMARK                            x       y       z     vdW  Elec       q    Type
REMARK                         _______ _______ _______ _____ _____    ______ ____
ROOT
ATOM      1  N   UNL     1      46.649   5.434  13.853  0.00  0.00    +0.000 N 
ATOM      2  C   UNL     1      47.229   5.053  15.076  0.00  0.00    +0.000 A 
ATOM      3  C   UNL     1      48.252   5.844  15.591  0.00  0.00    +0.000 A 
ATOM      4  C   UNL     1      48.849   5.495  16.804  0.00  0.00    +0.000 A 
ATOM      5  C   UNL     1      48.418   4.358  17.484  0.00  0.00    +0.000 A 
ATOM      6  C   UNL     1      47.408   3.619  16.891  0.00  0.00    +0.000 A 
ATOM      7  N   UNL     1      46.818   3.937  15.710  0.00  0.00    +0.000 NA
ATOM      8  H   UNL     1      46.343   6.401  13.938  0.00  0.00    +0.000 HD
ENDROOT
BRANCH   5   9
ATOM      9  C   UNL     1      49.044   4.008  18.781  0.00  0.00    +0.000 C 
ATOM     10  N   UNL     1      48.367   3.201  19.652  0.00  0.00    +0.000 N 
ATOM     11  O   UNL     1      50.155   4.431  19.081  0.00  0.00    +0.000 OA
ATOM     12  H   UNL     1      47.449   2.810  19.516  0.00  0.00    +0.000 HD
ATOM     13  H   UNL     1      48.832   2.999  20.529  0.00  0.00    +0.000 HD
ENDBRANCH   5   9
BRANCH   1  14
ATOM     14  C   UNL     1      45.574   4.547  13.395  0.00  0.00    +0.000 C 
BRANCH  14  16
ATOM     15  C   UNL     1      43.174   5.102  12.843  0.00  0.00    +0.000 C 
ATOM     16  C   UNL     1      44.639   5.264  12.369  0.00  0.00    +0.000 C 
ATOM     17  C   UNL     1      44.955   6.778  12.413  0.00  0.00    +0.000 C 
BRANCH  16  18
ATOM     18  C   UNL     1      44.881   4.730  10.947  0.00  0.00    +0.000 A 
ATOM     19  C   UNL     1      44.462   3.461  10.524  0.00  0.00    +0.000 A 
ATOM     20  C   UNL     1      44.772   3.003   9.244  0.00  0.00    +0.000 A 
ATOM     21  C   UNL     1      45.496   3.836   8.414  0.00  0.00    +0.000 A 
ATOM     22 CL   UNL     1      45.954   3.332   6.841  0.00  0.00    +0.000 Cl
ATOM     23  N   UNL     1      45.911   5.069   8.759  0.00  0.00    +0.000 NA
ATOM     24  C   UNL     1      45.591   5.485  10.005  0.00  0.00    +0.000 A 
ENDBRANCH  16  18
ENDBRANCH  14  16
ENDBRANCH   1  14
TORSDOF 4
ENDMDL
MODEL 2
REMARK VINA RESULT:    -7.241      4.093      4.893
REMARK INTER + INTRA:          -9.390
REMARK INTER:                  -8.746
REMARK INTRA:                  -0.643
REMARK UNBOUND:                -0.455
REMARK  Name = 
REMARK  6 active torsions:
REMARK  status: ('A' for Active; 'I' for Inactive)
REMARK    1  A    between atoms: C_1  and  C_2
REMARK    2  A    between atoms: C_2  and  C_3
REMARK    3  A    between atoms: C_2  and  C_4
REMARK    4  A    between atoms: C_2  and  C_15
REMARK    5  A    between atoms: C_4  and  N_5
REMARK    6  A    between atoms: C_9  and  C_10
REMARK                            x       y       z     vdW  Elec       q    Type
REMARK                         _______ _______ _______ _____ _____    ______ ____
ROOT
ATOM      1  N   UNL     1      44.863   6.024  12.740  0.00  0.00    +0.000 N 
ATOM      2  C   UNL     1      45.895   6.949  12.506  0.00  0.00    +0.000 A 
ATOM      3  C   UNL     1      45.674   8.279  12.851  0.00  0.00    +0.000 A 
ATOM      4  C   UNL     1      46.679   9.223  12.633  0.00  0.00    +0.000 A 
ATOM      5  C   UNL     1      47.890   8.827  12.069  0.00  0.00    +0.000 A 
ATOM      6  C   UNL     1      48.017   7.488  11.739  0.00  0.00    +0.000 A 
ATOM      7  N   UNL     1      47.051   6.554  11.937  0.00  0.00    +0.000 NA
ATOM      8  H   UNL     1      44.590   6.098  13.718  0.00  0.00    +0.000 HD
ENDROOT
BRANCH   5   9
ATOM      9  C   UNL     1      48.958   9.833  11.861  0.00  0.00    +0.000 C 
ATOM     10  N   UNL     1      48.795  10.788  10.897  0.00  0.00    +0.000 N 
ATOM     11  O   UNL     1      49.981   9.818  12.538  0.00  0.00    +0.000 OA
ATOM     12  H   UNL     1      48.007  10.885  10.278  0.00  0.00    +0.000 HD
ATOM     13  H   UNL     1      49.557  11.446  10.786  0.00  0.00    +0.000 HD
ENDBRANCH   5   9
BRANCH   1  14
ATOM     14  C   UNL     1      45.189   4.647  12.354  0.00  0.00    +0.000 C 
BRANCH  14  16
ATOM     15  C   UNL     1      43.448   2.846  12.035  0.00  0.00    +0.000 C 
ATOM     16  C   UNL     1      44.130   4.063  11.364  0.00  0.00    +0.000 C 
ATOM     17  C   UNL     1      43.029   5.131  11.159  0.00  0.00    +0.000 C 
BRANCH  16  18
ATOM     18  C   UNL     1      44.779   3.728  10.010  0.00  0.00    +0.000 A 
ATOM     19  C   UNL     1      44.956   2.415   9.550  0.00  0.00    +0.000 A 
ATOM     20  C   UNL     1      45.614   2.170   8.346  0.00  0.00    +0.000 A 
ATOM     21  C   UNL     1      46.078   3.253   7.627  0.00  0.00    +0.000 A 
ATOM     22 CL   UNL     1      46.935   3.036   6.159  0.00  0.00    +0.000 Cl
ATOM     23  N   UNL     1      45.924   4.534   8.010  0.00  0.00    +0.000 NA
ATOM     24  C   UNL     1      45.278   4.739   9.181  0.00  0.00    +0.000 A 
ENDBRANCH  16  18
ENDBRANCH  14  16
ENDBRANCH   1  14
TORSDOF 4
ENDMDL
MODEL 3
REMARK VINA RESULT:    -7.212      4.076      7.964
REMARK INTER + INTRA:          -9.354
REMARK INTER:                  -8.883
REMARK INTRA:                  -0.470
REMARK UNBOUND:                -0.455
REMARK  Name = 
REMARK  6 active torsions:
REMARK  status: ('A' for Active; 'I' for Inactive)
REMARK    1  A    between atoms: C_1  and  C_2
REMARK    2  A    between atoms: C_2  and  C_3
REMARK    3  A    between atoms: C_2  and  C_4
REMARK    4  A    between atoms: C_2  and  C_15
REMARK    5  A    between atoms: C_4  and  N_5
REMARK    6  A    between atoms: C_9  and  C_10
REMARK                            x       y       z     vdW  Elec       q    Type
REMARK                         _______ _______ _______ _____ _____    ______ ____
ROOT
ATOM      1  N   UNL     1      47.188   5.457  14.739  0.00  0.00    +0.000 N 
ATOM      2  C   UNL     1      46.477   5.019  13.608  0.00  0.00    +0.000 A 
ATOM      3  C   UNL     1      46.343   5.899  12.538  0.00  0.00    +0.000 A 
ATOM      4  C   UNL     1      45.643   5.496  11.399  0.00  0.00    +0.000 A 
ATOM      5  C   UNL     1      45.083   4.221  11.347  0.00  0.00    +0.000 A 
ATOM      6  C   UNL     1      45.248   3.419  12.464  0.00  0.00    +0.000 A 
ATOM      7  N   UNL     1      45.920   3.792  13.583  0.00  0.00    +0.000 NA
ATOM      8  H   UNL     1      48.102   5.782  14.430  0.00  0.00    +0.000 HD
ENDROOT
BRANCH   5   9
ATOM      9  C   UNL     1      44.360   3.796  10.125  0.00  0.00    +0.000 C 
ATOM     10  N   UNL     1      44.224   4.677   9.090  0.00  0.00    +0.000 N 
ATOM     11  O   UNL     1      43.884   2.669  10.034  0.00  0.00    +0.000 OA
ATOM     12  H   UNL     1      44.561   5.626   9.063  0.00  0.00    +0.000 HD
ATOM     13  H   UNL     1      43.712   4.343   8.282  0.00  0.00    +0.000 HD
ENDBRANCH   5   9
BRANCH   1  14
ATOM     14  C   UNL     1      47.286   4.461  15.812  0.00  0.00    +0.000 C 
BRANCH  14  16
ATOM     15  C   UNL     1      48.780   6.343  16.587  0.00  0.00    +0.000 C 
ATOM     16  C   UNL     1      48.256   4.930  16.943  0.00  0.00    +0.000 C 
ATOM     17  C   UNL     1      47.435   5.076  18.246  0.00  0.00    +0.000 C 
BRANCH  16  18
ATOM     18  C   UNL     1      49.380   3.901  17.157  0.00  0.00    +0.000 A 
ATOM     19  C   UNL     1      50.604   4.218  17.763  0.00  0.00    +0.000 A 
ATOM     20  C   UNL     1      51.611   3.260  17.866  0.00  0.00    +0.000 A 
ATOM     21  C   UNL     1      51.364   2.000  17.359  0.00  0.00    +0.000 A 
ATOM     22 CL   UNL     1      52.565   0.779  17.409  0.00  0.00    +0.000 Cl
ATOM     23  N   UNL     1      50.205   1.633  16.782  0.00  0.00    +0.000 NA
ATOM     24  C   UNL     1      49.246   2.584  16.700  0.00  0.00    +0.000 A 
ENDBRANCH  16  18
ENDBRANCH  14  16
ENDBRANCH   1  14
TORSDOF 4
ENDMDL
MODEL 4
REMARK VINA RESULT:    -7.122      1.816      2.273
REMARK INTER + INTRA:          -9.243
REMARK INTER:                  -8.806
REMARK INTRA:                  -0.437
REMARK UNBOUND:                -0.455
REMARK  Name = 
REMARK  6 active torsions:
REMARK  status: ('A' for Active; 'I' for Inactive)
REMARK    1  A    between atoms: C_1  and  C_2
REMARK    2  A    between atoms: C_2  and  C_3
REMARK    3  A    between atoms: C_2  and  C_4
REMARK    4  A    between atoms: C_2  and  C_15
REMARK    5  A    between atoms: C_4  and  N_5
REMARK    6  A    between atoms: C_9  and  C_10
REMARK                            x       y       z     vdW  Elec       q    Type
REMARK                         _______ _______ _______ _____ _____    ______ ____
ROOT
ATOM      1  N   UNL     1      45.580   4.252  13.513  0.00  0.00    +0.000 N 
ATOM      2  C   UNL     1      46.620   4.824  14.265  0.00  0.00    +0.000 A 
ATOM      3  C   UNL     1      46.967   4.220  15.470  0.00  0.00    +0.000 A 
ATOM      4  C   UNL     1      47.996   4.763  16.241  0.00  0.00    +0.000 A 
ATOM      5  C   UNL     1      48.663   5.904  15.800  0.00  0.00    +0.000 A 
ATOM      6  C   UNL     1      48.239   6.451  14.600  0.00  0.00    +0.000 A 
ATOM      7  N   UNL     1      47.238   5.943  13.836  0.00  0.00    +0.000 NA
ATOM      8  H   UNL     1      45.801   3.268  13.367  0.00  0.00    +0.000 HD
ENDROOT
BRANCH   5   9
ATOM      9  C   UNL     1      49.767   6.461  16.616  0.00  0.00    +0.000 C 
ATOM     10  N   UNL     1      49.471   7.272  17.675  0.00  0.00    +0.000 N 
ATOM     11  O   UNL     1      50.938   6.205  16.353  0.00  0.00    +0.000 OA
ATOM     12  H   UNL     1      48.552   7.558  17.971  0.00  0.00    +0.000 HD
ATOM     13  H   UNL     1      50.261   7.636  18.195  0.00  0.00    +0.000 HD
ENDBRANCH   5   9
BRANCH   1  14
ATOM     14  C   UNL     1      45.291   4.950  12.255  0.00  0.00    +0.000 C 
BRANCH  14  16
ATOM     15  C   UNL     1      43.740   2.957  12.216  0.00  0.00    +0.000 C 
ATOM     16  C   UNL     1      44.233   4.179  11.402  0.00  0.00    +0.000 C 
ATOM     17  C   UNL     1      43.009   5.105  11.207  0.00  0.00    +0.000 C 
BRANCH  16  18
ATOM     18  C   UNL     1      44.814   3.801  10.028  0.00  0.00    +0.000 A 
ATOM     19  C   UNL     1      44.923   2.476   9.581  0.00  0.00    +0.000 A 
ATOM     20  C   UNL     1      45.522   2.190   8.356  0.00  0.00    +0.000 A 
ATOM     21  C   UNL     1      45.998   3.245   7.603  0.00  0.00    +0.000 A 
ATOM     22 CL   UNL     1      46.786   2.975   6.105  0.00  0.00    +0.000 Cl
ATOM     23  N   UNL     1      45.907   4.536   7.972  0.00  0.00    +0.000 NA
ATOM     24  C   UNL     1      45.317   4.781   9.165  0.00  0.00    +0.000 A 
ENDBRANCH  16  18
ENDBRANCH  14  16
ENDBRANCH   1  14
TORSDOF 4
ENDMDL
MODEL 5
REMARK VINA RESULT:    -6.150      2.281      3.160
REMARK INTER + INTRA:          -8.044
REMARK INTER:                  -7.391
REMARK INTRA:                  -0.652
REMARK UNBOUND:                -0.455
REMARK  Name = 
REMARK  6 active torsions:
REMARK  status: ('A' for Active; 'I' for Inactive)
REMARK    1  A    between atoms: C_1  and  C_2
REMARK    2  A    between atoms: C_2  and  C_3
REMARK    3  A    between atoms: C_2  and  C_4
REMARK    4  A    between atoms: C_2  and  C_15
REMARK    5  A    between atoms: C_4  and  N_5
REMARK    6  A    between atoms: C_9  and  C_10
REMARK                            x       y       z     vdW  Elec       q    Type
REMARK                         _______ _______ _______ _____ _____    ______ ____
ROOT
ATOM      1  N   UNL     1      48.711   7.406  14.966  0.00  0.00    +0.000 N 
ATOM      2  C   UNL     1      48.726   6.624  16.134  0.00  0.00    +0.000 A 
ATOM      3  C   UNL     1      48.757   7.280  17.361  0.00  0.00    +0.000 A 
ATOM      4  C   UNL     1      48.772   6.533  18.541  0.00  0.00    +0.000 A 
ATOM      5  C   UNL     1      48.760   5.141  18.478  0.00  0.00    +0.000 A 
ATOM      6  C   UNL     1      48.750   4.572  17.216  0.00  0.00    +0.000 A 
ATOM      7  N   UNL     1      48.740   5.279  16.056  0.00  0.00    +0.000 NA
ATOM      8  H   UNL     1      47.937   8.064  15.038  0.00  0.00    +0.000 HD
ENDROOT
BRANCH   5   9
ATOM      9  C   UNL     1      48.756   4.358  19.736  0.00  0.00    +0.000 C 
ATOM     10  N   UNL     1      48.393   3.041  19.701  0.00  0.00    +0.000 N 
ATOM     11  O   UNL     1      49.072   4.875  20.803  0.00  0.00    +0.000 OA
ATOM     12  H   UNL     1      48.103   2.521  18.887  0.00  0.00    +0.000 HD
ATOM     13  H   UNL     1      48.396   2.552  20.588  0.00  0.00    +0.000 HD
ENDBRANCH   5   9
BRANCH   1  14
ATOM     14  C   UNL     1      48.669   6.630  13.722  0.00  0.00    +0.000 C 
BRANCH  14  16
ATOM     15  C   UNL     1      46.894   8.396  13.394  0.00  0.00    +0.000 C 
ATOM     16  C   UNL     1      47.535   7.131  12.772  0.00  0.00    +0.000 C 
ATOM     17  C   UNL     1      48.187   7.573  11.440  0.00  0.00    +0.000 C 
BRANCH  16  18
ATOM     18  C   UNL     1      46.520   6.008  12.498  0.00  0.00    +0.000 A 
ATOM     19  C   UNL     1      45.846   5.865  11.276  0.00  0.00    +0.000 A 
ATOM     20  C   UNL     1      44.885   4.869  11.110  0.00  0.00    +0.000 A 
ATOM     21  C   UNL     1      44.625   4.033  12.178  0.00  0.00    +0.000 A 
ATOM     22 CL   UNL     1      43.428   2.811  12.069  0.00  0.00    +0.000 Cl
ATOM     23  N   UNL     1      45.250   4.111  13.367  0.00  0.00    +0.000 NA
ATOM     24  C   UNL     1      46.179   5.086  13.496  0.00  0.00    +0.000 A 
ENDBRANCH  16  18
ENDBRANCH  14  16
ENDBRANCH   1  14
TORSDOF 4
ENDMDL
MODEL 6
REMARK VINA RESULT:    -5.776      4.268      8.169
REMARK INTER + INTRA:          -7.582
REMARK INTER:                  -7.126
REMARK INTRA:                  -0.457
REMARK UNBOUND:                -0.455
REMARK  Name = 
REMARK  6 active torsions:
REMARK  status: ('A' for Active; 'I' for Inactive)
REMARK    1  A    between atoms: C_1  and  C_2
REMARK    2  A    between atoms: C_2  and  C_3
REMARK    3  A    between atoms: C_2  and  C_4
REMARK    4  A    between atoms: C_2  and  C_15
REMARK    5  A    between atoms: C_4  and  N_5
REMARK    6  A    between atoms: C_9  and  C_10
REMARK                            x       y       z     vdW  Elec       q    Type
REMARK                         _______ _______ _______ _____ _____    ______ ____
ROOT
ATOM      1  N   UNL     1      47.157   3.715  15.210  0.00  0.00    +0.000 N 
ATOM      2  C   UNL     1      46.579   4.096  13.986  0.00  0.00    +0.000 A 
ATOM      3  C   UNL     1      46.079   3.095  13.158  0.00  0.00    +0.000 A 
ATOM      4  C   UNL     1      45.498   3.438  11.936  0.00  0.00    +0.000 A 
ATOM      5  C   UNL     1      45.427   4.777  11.556  0.00  0.00    +0.000 A 
ATOM      6  C   UNL     1      45.966   5.705  12.432  0.00  0.00    +0.000 A 
ATOM      7  N   UNL     1      46.540   5.393  13.622  0.00  0.00    +0.000 NA
ATOM      8  H   UNL     1      46.482   3.141  15.712  0.00  0.00    +0.000 HD
ENDROOT
BRANCH   5   9
ATOM      9  C   UNL     1      44.790   5.133  10.267  0.00  0.00    +0.000 C 
ATOM     10  N   UNL     1      43.477   5.515  10.254  0.00  0.00    +0.000 N 
ATOM     11  O   UNL     1      45.422   5.088   9.217  0.00  0.00    +0.000 OA
ATOM     12  H   UNL     1      42.863   5.573  11.050  0.00  0.00    +0.000 HD
ATOM     13  H   UNL     1      43.085   5.737   9.347  0.00  0.00    +0.000 HD
ENDBRANCH   5   9
BRANCH   1  14
ATOM     14  C   UNL     1      47.647   4.836  16.019  0.00  0.00    +0.000 C 
BRANCH  14  16
ATOM     15  C   UNL     1      47.579   5.359  18.489  0.00  0.00    +0.000 C 
ATOM     16  C   UNL     1      48.114   4.361  17.432  0.00  0.00    +0.000 C 
ATOM     17  C   UNL     1      47.441   3.000  17.725  0.00  0.00    +0.000 C 
BRANCH  16  18
ATOM     18  C   UNL     1      49.643   4.197  17.471  0.00  0.00    +0.000 A 
ATOM     19  C   UNL     1      50.276   2.959  17.658  0.00  0.00    +0.000 A 
ATOM     20  C   UNL     1      51.665   2.882  17.755  0.00  0.00    +0.000 A 
ATOM     21  C   UNL     1      52.389   4.053  17.658  0.00  0.00    +0.000 A 
ATOM     22 CL   UNL     1      54.096   4.049  17.809  0.00  0.00    +0.000 Cl
ATOM     23  N   UNL     1      51.839   5.266  17.463  0.00  0.00    +0.000 NA
ATOM     24  C   UNL     1      50.490   5.307  17.370  0.00  0.00    +0.000 A 
ENDBRANCH  16  18
ENDBRANCH  14  16
ENDBRANCH   1  14
TORSDOF 4
ENDMDL
MODEL 7
REMARK VINA RESULT:    -5.705      4.543      7.218
REMARK INTER + INTRA:          -7.494
REMARK INTER:                  -6.922
REMARK INTRA:                  -0.572
REMARK UNBOUND:                -0.455
REMARK  Name = 
REMARK  6 active torsions:
REMARK  status: ('A' for Active; 'I' for Inactive)
REMARK    1  A    between atoms: C_1  and  C_2
REMARK    2  A    between atoms: C_2  and  C_3
REMARK    3  A    between atoms: C_2  and  C_4
REMARK    4  A    between atoms: C_2  and  C_15
REMARK    5  A    between atoms: C_4  and  N_5
REMARK    6  A    between atoms: C_9  and  C_10
REMARK                            x       y       z     vdW  Elec       q    Type
REMARK                         _______ _______ _______ _____ _____    ______ ____
ROOT
ATOM      1  N   UNL     1      47.463   6.404  14.157  0.00  0.00    +0.000 N 
ATOM      2  C   UNL     1      46.641   5.808  13.185  0.00  0.00    +0.000 A 
ATOM      3  C   UNL     1      46.250   4.486  13.378  0.00  0.00    +0.000 A 
ATOM      4  C   UNL     1      45.433   3.864  12.433  0.00  0.00    +0.000 A 
ATOM      5  C   UNL     1      45.021   4.569  11.304  0.00  0.00    +0.000 A 
ATOM      6  C   UNL     1      45.473   5.872  11.182  0.00  0.00    +0.000 A 
ATOM      7  N   UNL     1      46.272   6.495  12.086  0.00  0.00    +0.000 NA
ATOM      8  H   UNL     1      47.010   6.296  15.062  0.00  0.00    +0.000 HD
ENDROOT
BRANCH   5   9
ATOM      9  C   UNL     1      44.137   3.906  10.316  0.00  0.00    +0.000 C 
ATOM     10  N   UNL     1      44.045   4.420   9.053  0.00  0.00    +0.000 N 
ATOM     11  O   UNL     1      43.490   2.909  10.618  0.00  0.00    +0.000 OA
ATOM     12  H   UNL     1      44.518   5.238   8.704  0.00  0.00    +0.000 HD
ATOM     13  H   UNL     1      43.420   3.937   8.418  0.00  0.00    +0.000 HD
ENDBRANCH   5   9
BRANCH   1  14
ATOM     14  C   UNL     1      47.816   7.799  13.873  0.00  0.00    +0.000 C 
BRANCH  14  16
ATOM     15  C   UNL     1      49.198   9.474  15.163  0.00  0.00    +0.000 C 
ATOM     16  C   UNL     1      49.255   8.140  14.378  0.00  0.00    +0.000 C 
ATOM     17  C   UNL     1      49.677   7.048  15.390  0.00  0.00    +0.000 C 
BRANCH  16  18
ATOM     18  C   UNL     1      50.251   8.166  13.206  0.00  0.00    +0.000 A 
ATOM     19  C   UNL     1      49.931   7.709  11.919  0.00  0.00    +0.000 A 
ATOM     20  C   UNL     1      50.897   7.691  10.914  0.00  0.00    +0.000 A 
ATOM     21  C   UNL     1      52.166   8.139  11.225  0.00  0.00    +0.000 A 
ATOM     22 CL   UNL     1      53.420   8.111  10.058  0.00  0.00    +0.000 Cl
ATOM     23  N   UNL     1      52.526   8.604  12.435  0.00  0.00    +0.000 NA
ATOM     24  C   UNL     1      51.566   8.611  13.388  0.00  0.00    +0.000 A 
ENDBRANCH  16  18
ENDBRANCH  14  16
ENDBRANCH   1  14
TORSDOF 4
ENDMDL
MODEL 8
REMARK VINA RESULT:    -5.619      4.346      7.616
REMARK INTER + INTRA:          -7.388
REMARK INTER:                  -6.945
REMARK INTRA:                  -0.443
REMARK UNBOUND:                -0.455
REMARK  Name = 
REMARK  6 active torsions:
REMARK  status: ('A' for Active; 'I' for Inactive)
REMARK    1  A    between atoms: C_1  and  C_2
REMARK    2  A    between atoms: C_2  and  C_3
REMARK    3  A    between atoms: C_2  and  C_4
REMARK    4  A    between atoms: C_2  and  C_15
REMARK    5  A    between atoms: C_4  and  N_5
REMARK    6  A    between atoms: C_9  and  C_10
REMARK                            x       y       z     vdW  Elec       q    Type
REMARK                         _______ _______ _______ _____ _____    ______ ____
ROOT
ATOM      1  N   UNL     1      45.981   7.840  13.305  0.00  0.00    +0.000 N 
ATOM      2  C   UNL     1      45.555   6.774  12.494  0.00  0.00    +0.000 A 
ATOM      3  C   UNL     1      44.870   5.724  13.098  0.00  0.00    +0.000 A 
ATOM      4  C   UNL     1      44.431   4.650  12.321  0.00  0.00    +0.000 A 
ATOM      5  C   UNL     1      44.687   4.638  10.951  0.00  0.00    +0.000 A 
ATOM      6  C   UNL     1      45.392   5.713  10.437  0.00  0.00    +0.000 A 
ATOM      7  N   UNL     1      45.832   6.765  11.175  0.00  0.00    +0.000 NA
ATOM      8  H   UNL     1      45.173   8.190  13.816  0.00  0.00    +0.000 HD
ENDROOT
BRANCH   5   9
ATOM      9  C   UNL     1      44.199   3.503  10.132  0.00  0.00    +0.000 C 
ATOM     10  N   UNL     1      44.376   3.534   8.777  0.00  0.00    +0.000 N 
ATOM     11  O   UNL     1      43.642   2.543  10.652  0.00  0.00    +0.000 OA
ATOM     12  H   UNL     1      44.806   4.275   8.247  0.00  0.00    +0.000 HD
ATOM     13  H   UNL     1      44.017   2.741   8.261  0.00  0.00    +0.000 HD
ENDBRANCH   5   9
BRANCH   1  14
ATOM     14  C   UNL     1      46.686   8.904  12.581  0.00  0.00    +0.000 C 
BRANCH  14  16
ATOM     15  C   UNL     1      48.981   8.234  11.767  0.00  0.00    +0.000 C 
ATOM     16  C   UNL     1      48.210   8.917  12.924  0.00  0.00    +0.000 C 
ATOM     17  C   UNL     1      48.678  10.391  12.959  0.00  0.00    +0.000 C 
BRANCH  16  18
ATOM     18  C   UNL     1      48.465   8.265  14.293  0.00  0.00    +0.000 A 
ATOM     19  C   UNL     1      48.321   8.951  15.508  0.00  0.00    +0.000 A 
ATOM     20  C   UNL     1      48.634   8.328  16.715  0.00  0.00    +0.000 A 
ATOM     21  C   UNL     1      49.083   7.023  16.675  0.00  0.00    +0.000 A 
ATOM     22 CL   UNL     1      49.529   6.200  18.110  0.00  0.00    +0.000 Cl
ATOM     23  N   UNL     1      49.226   6.309  15.543  0.00  0.00    +0.000 NA
ATOM     24  C   UNL     1      48.911   6.941  14.389  0.00  0.00    +0.000 A 
ENDBRANCH  16  18
ENDBRANCH  14  16
ENDBRANCH   1  14
TORSDOF 4
ENDMDL
MODEL 9
REMARK VINA RESULT:    -5.245      5.147      7.829
REMARK INTER + INTRA:          -6.927
REMARK INTER:                  -6.380
REMARK INTRA:                  -0.548
REMARK UNBOUND:                -0.455
REMARK  Name = 
REMARK  6 active torsions:
REMARK  status: ('A' for Active; 'I' for Inactive)
REMARK    1  A    between atoms: C_1  and  C_2
REMARK    2  A    between atoms: C_2  and  C_3
REMARK    3  A    between atoms: C_2  and  C_4
REMARK    4  A    between atoms: C_2  and  C_15
REMARK    5  A    between atoms: C_4  and  N_5
REMARK    6  A    between atoms: C_9  and  C_10
REMARK                            x       y       z     vdW  Elec       q    Type
REMARK                         _______ _______ _______ _____ _____    ______ ____
ROOT
ATOM      1  N   UNL     1      47.346   6.999  13.122  0.00  0.00    +0.000 N 
ATOM      2  C   UNL     1      46.527   6.018  12.537  0.00  0.00    +0.000 A 
ATOM      3  C   UNL     1      46.361   4.814  13.216  0.00  0.00    +0.000 A 
ATOM      4  C   UNL     1      45.554   3.818  12.663  0.00  0.00    +0.000 A 
ATOM      5  C   UNL     1      44.928   4.036  11.438  0.00  0.00    +0.000 A 
ATOM      6  C   UNL     1      45.164   5.254  10.823  0.00  0.00    +0.000 A 
ATOM      7  N   UNL     1      45.949   6.235  11.339  0.00  0.00    +0.000 NA
ATOM      8  H   UNL     1      47.008   7.168  14.068  0.00  0.00    +0.000 HD
ENDROOT
BRANCH   5   9
ATOM      9  C   UNL     1      44.057   2.980  10.869  0.00  0.00    +0.000 C 
ATOM     10  N   UNL     1      43.364   2.160  11.715  0.00  0.00    +0.000 N 
ATOM     11  O   UNL     1      43.952   2.833   9.656  0.00  0.00    +0.000 OA
ATOM     12  H   UNL     1      43.386   2.183  12.722  0.00  0.00    +0.000 HD
ATOM     13  H   UNL     1      42.791   1.448  11.279  0.00  0.00    +0.000 HD
ENDBRANCH   5   9
BRANCH   1  14
ATOM     14  C   UNL     1      47.455   8.237  12.341  0.00  0.00    +0.000 C 
BRANCH  14  16
ATOM     15  C   UNL     1      49.745   7.683  11.431  0.00  0.00    +0.000 C 
ATOM     16  C   UNL     1      48.937   8.724  12.244  0.00  0.00    +0.000 C 
ATOM     17  C   UNL     1      48.954  10.037  11.425  0.00  0.00    +0.000 C 
BRANCH  16  18
ATOM     18  C   UNL     1      49.515   8.984  13.645  0.00  0.00    +0.000 A 
ATOM     19  C   UNL     1      49.051  10.004  14.488  0.00  0.00    +0.000 A 
ATOM     20  C   UNL     1      49.662  10.237  15.719  0.00  0.00    +0.000 A 
ATOM     21  C   UNL     1      50.728   9.436  16.078  0.00  0.00    +0.000 A 
ATOM     22 CL   UNL     1      51.560   9.685  17.555  0.00  0.00    +0.000 Cl
ATOM     23  N   UNL     1      51.206   8.434  15.319  0.00  0.00    +0.000 NA
ATOM     24  C   UNL     1      50.590   8.230  14.132  0.00  0.00    +0.000 A 
ENDBRANCH  16  18
ENDBRANCH  14  16
ENDBRANCH   1  14
TORSDOF 4
ENDMDL
