MODEL 1
REMARK VINA RESULT:    -6.361      0.000      0.000
REMARK INTER + INTRA:          -7.955
REMARK INTER:                  -7.662
REMARK INTRA:                  -0.293
REMARK UNBOUND:                -0.293
REMARK  Name = 
REMARK  4 active torsions:
REMARK  status: ('A' for Active; 'I' for Inactive)
REMARK    1  A    between atoms: N_1  and  C_2
REMARK    2  A    between atoms: C_2  and  C_3
REMARK    3  A    between atoms: N_6  and  C_7
REMARK    4  A    between atoms: C_7  and  C_8
REMARK                            x       y       z     vdW  Elec       q    Type
REMARK                         _______ _______ _______ _____ _____    ______ ____
ROOT
ATOM      1  C   UNL     1      44.174   3.648  12.319  0.00  0.00    +0.000 C 
ATOM      2  C   UNL     1      43.543   2.997  11.119  0.00  0.00    +0.000 C 
ATOM      3  N   UNL     1      43.748   3.305   9.873  0.00  0.00    +0.000 NA
ATOM      4  N   UNL     1      44.547   4.438   9.675  0.00  0.00    +0.000 N 
ATOM      5  C   UNL     1      44.609   5.324  10.757  0.00  0.00    +0.000 C 
ATOM      6  C   UNL     1      44.769   6.667  10.726  0.00  0.00    +0.000 C 
ATOM      7  C   UNL     1      46.149   7.024  11.075  0.00  0.00    +0.000 C 
ATOM      8  C   UNL     1      46.735   6.184  11.951  0.00  0.00    +0.000 C 
ATOM      9 CL   UNL     1      48.444   6.340  12.206  0.00  0.00    +0.000 Cl
ATOM     10  N   UNL     1      46.199   5.108  12.611  0.00  0.00    +0.000 NA
ATOM     11  C   UNL     1      45.054   4.648  12.012  0.00  0.00    +0.000 C 
ENDROOT
BRANCH   1  12
ATOM     12  C   UNL     1      43.384   3.627  13.575  0.00  0.00    +0.000 C 
BRANCH  12  13
ATOM     13  N   UNL     1      42.623   4.841  13.885  0.00  0.00    +0.000 NA
ATOM     14  H   UNL     1      42.497   5.334  13.002  0.00  0.00    +0.000 HD
ATOM     15  H   UNL     1      43.240   5.418  14.447  0.00  0.00    +0.000 HD
ENDBRANCH  12  13
ENDBRANCH   1  12
BRANCH   4  16
ATOM     16  C   UNL     1      45.885   4.160   9.066  0.00  0.00    +0.000 C 
BRANCH  16  17
ATOM     17  C   UNL     1      45.919   3.159   7.892  0.00  0.00    +0.000 C 
ATOM     18  C   UNL     1      46.043   1.710   8.363  0.00  0.00    +0.000 C 
ATOM     19  C   UNL     1      46.979   0.819   7.568  0.00  0.00    +0.000 C 
ATOM     20  O   UNL     1      48.054   1.504   6.946  0.00  0.00    +0.000 OA
ATOM     21  C   UNL     1      47.604   2.512   6.057  0.00  0.00    +0.000 C 
ATOM     22  C   UNL     1      46.861   3.625   6.777  0.00  0.00    +0.000 C 
ENDBRANCH  16  17
ENDBRANCH   4  16
TORSDOF 4
ENDMDL
MODEL 2
REMARK VINA RESULT:    -6.320      2.005      2.590
REMARK INTER + INTRA:          -7.906
REMARK INTER:                  -8.519
REMARK INTRA:                   0.613
REMARK UNBOUND:                -0.293
REMARK  Name = 
REMARK  4 active torsions:
REMARK  status: ('A' for Active; 'I' for Inactive)
REMARK    1  A    between atoms: N_1  and  C_2
REMARK    2  A    between atoms: C_2  and  C_3
REMARK    3  A    between atoms: N_6  and  C_7
REMARK    4  A    between atoms: C_7  and  C_8
REMARK                            x       y       z     vdW  Elec       q    Type
REMARK                         _______ _______ _______ _____ _____    ______ ____
ROOT
ATOM      1  C   UNL     1      46.804   4.368  13.587  0.00  0.00    +0.000 C 
ATOM      2  C   UNL     1      45.877   3.388  12.921  0.00  0.00    +0.000 C 
ATOM      3  N   UNL     1      45.092   3.626  11.914  0.00  0.00    +0.000 NA
ATOM      4  N   UNL     1      45.042   4.968  11.516  0.00  0.00    +0.000 N 
ATOM      5  C   UNL     1      45.426   5.897  12.491  0.00  0.00    +0.000 C 
ATOM      6  C   UNL     1      44.979   7.163  12.657  0.00  0.00    +0.000 C 
ATOM      7  C   UNL     1      45.970   8.122  12.152  0.00  0.00    +0.000 C 
ATOM      8  C   UNL     1      47.248   7.718  12.280  0.00  0.00    +0.000 C 
ATOM      9 CL   UNL     1      48.474   8.632  11.460  0.00  0.00    +0.000 Cl
ATOM     10  N   UNL     1      47.746   6.589  12.880  0.00  0.00    +0.000 NA
ATOM     11  C   UNL     1      46.791   5.616  13.028  0.00  0.00    +0.000 C 
ENDROOT
BRANCH   1  12
ATOM     12  C   UNL     1      47.099   4.131  15.022  0.00  0.00    +0.000 C 
BRANCH  12  13
ATOM     13  N   UNL     1      47.868   2.923  15.337  0.00  0.00    +0.000 NA
ATOM     14  H   UNL     1      48.063   2.466  14.447  0.00  0.00    +0.000 HD
ATOM     15  H   UNL     1      47.230   2.312  15.836  0.00  0.00    +0.000 HD
ENDBRANCH  12  13
ENDBRANCH   1  12
BRANCH   4  16
ATOM     16  C   UNL     1      45.641   5.244  10.173  0.00  0.00    +0.000 C 
BRANCH  16  17
ATOM     17  C   UNL     1      45.187   4.337   9.010  0.00  0.00    +0.000 C 
ATOM     18  C   UNL     1      44.509   3.057   9.499  0.00  0.00    +0.000 C 
ATOM     19  C   UNL     1      44.864   1.780   8.759  0.00  0.00    +0.000 C 
ATOM     20  O   UNL     1      46.162   1.776   8.186  0.00  0.00    +0.000 OA
ATOM     21  C   UNL     1      46.346   2.839   7.267  0.00  0.00    +0.000 C 
ATOM     22  C   UNL     1      46.275   4.199   7.940  0.00  0.00    +0.000 C 
ENDBRANCH  16  17
ENDBRANCH   4  16
TORSDOF 4
ENDMDL
MODEL 3
REMARK VINA RESULT:    -5.500      3.170      5.291
REMARK INTER + INTRA:          -6.918
REMARK INTER:                  -6.082
REMARK INTRA:                  -0.836
REMARK UNBOUND:                -0.293
REMARK  Name = 
REMARK  4 active torsions:
REMARK  status: ('A' for Active; 'I' for Inactive)
REMARK    1  A    between atoms: N_1  and  C_2
REMARK    2  A    between atoms: C_2  and  C_3
REMARK    3  A    between atoms: N_6  and  C_7
REMARK    4  A    between atoms: C_7  and  C_8
REMARK                            x       y       z     vdW  Elec       q    Type
REMARK                         _______ _______ _______ _____ _____    ______ ____
ROOT
ATOM      1  C   UNL     1      45.801   9.766  12.309  0.00  0.00    +0.000 C 
ATOM      2  C   UNL     1      44.651   9.207  11.516  0.00  0.00    +0.000 C 
ATOM      3  N   UNL     1      44.433   7.956  11.244  0.00  0.00    +0.000 NA
ATOM      4  N   UNL     1      45.456   7.084  11.642  0.00  0.00    +0.000 N 
ATOM      5  C   UNL     1      46.712   7.676  11.818  0.00  0.00    +0.000 C 
ATOM      6  C   UNL     1      47.930   7.117  11.627  0.00  0.00    +0.000 C 
ATOM      7  C   UNL     1      48.536   6.765  12.917  0.00  0.00    +0.000 C 
ATOM      8  C   UNL     1      48.199   7.586  13.930  0.00  0.00    +0.000 C 
ATOM      9 CL   UNL     1      48.617   7.100  15.543  0.00  0.00    +0.000 Cl
ATOM     10  N   UNL     1      47.446   8.733  13.905  0.00  0.00    +0.000 NA
ATOM     11  C   UNL     1      46.667   8.817  12.779  0.00  0.00    +0.000 C 
ENDROOT
BRANCH   1  12
ATOM     12  C   UNL     1      46.225  11.148  11.976  0.00  0.00    +0.000 C 
BRANCH  12  13
ATOM     13  N   UNL     1      47.621  11.488  12.264  0.00  0.00    +0.000 NA
ATOM     14  H   UNL     1      48.192  10.871  11.687  0.00  0.00    +0.000 HD
ATOM     15  H   UNL     1      47.781  11.206  13.226  0.00  0.00    +0.000 HD
ENDBRANCH  12  13
ENDBRANCH   1  12
BRANCH   4  16
ATOM     16  C   UNL     1      45.085   6.151  12.752  0.00  0.00    +0.000 C 
BRANCH  16  17
ATOM     17  C   UNL     1      45.107   4.643  12.427  0.00  0.00    +0.000 C 
ATOM     18  C   UNL     1      45.458   4.365  10.965  0.00  0.00    +0.000 C 
ATOM     19  C   UNL     1      44.664   3.270  10.277  0.00  0.00    +0.000 C 
ATOM     20  O   UNL     1      43.353   3.088  10.786  0.00  0.00    +0.000 OA
ATOM     21  C   UNL     1      43.353   2.778  12.169  0.00  0.00    +0.000 C 
ATOM     22  C   UNL     1      43.891   3.919  13.014  0.00  0.00    +0.000 C 
ENDBRANCH  16  17
ENDBRANCH   4  16
TORSDOF 4
ENDMDL
MODEL 4
REMARK VINA RESULT:    -5.363      3.301      4.880
REMARK INTER + INTRA:          -6.753
REMARK INTER:                  -6.220
REMARK INTRA:                  -0.534
REMARK UNBOUND:                -0.293
REMARK  Name = 
REMARK  4 active torsions:
REMARK  status: ('A' for Active; 'I' for Inactive)
REMARK    1  A    between atoms: N_1  and  C_2
REMARK    2  A    between atoms: C_2  and  C_3
REMARK    3  A    between atoms: N_6  and  C_7
REMARK    4  A    between atoms: C_7  and  C_8
REMARK                            x       y       z     vdW  Elec       q    Type
REMARK                         _______ _______ _______ _____ _____    ______ ____
ROOT
ATOM      1  C   UNL     1      48.122   5.715  14.895  0.00  0.00    +0.000 C 
ATOM      2  C   UNL     1      46.870   4.890  14.766  0.00  0.00    +0.000 C 
ATOM      3  N   UNL     1      45.919   5.057  13.898  0.00  0.00    +0.000 NA
ATOM      4  N   UNL     1      46.050   6.201  13.100  0.00  0.00    +0.000 N 
ATOM      5  C   UNL     1      46.859   7.212  13.631  0.00  0.00    +0.000 C 
ATOM      6  C   UNL     1      46.746   8.549  13.453  0.00  0.00    +0.000 C 
ATOM      7  C   UNL     1      47.750   9.021  12.492  0.00  0.00    +0.000 C 
ATOM      8  C   UNL     1      48.904   8.327  12.510  0.00  0.00    +0.000 C 
ATOM      9 CL   UNL     1      50.040   8.607  11.228  0.00  0.00    +0.000 Cl
ATOM     10  N   UNL     1      49.292   7.310  13.344  0.00  0.00    +0.000 NA
ATOM     11  C   UNL     1      48.226   6.718  13.972  0.00  0.00    +0.000 C 
ENDROOT
BRANCH   1  12
ATOM     12  C   UNL     1      48.721   5.801  16.250  0.00  0.00    +0.000 C 
BRANCH  12  13
ATOM     13  N   UNL     1      47.799   5.648  17.379  0.00  0.00    +0.000 NA
ATOM     14  H   UNL     1      46.944   6.138  17.121  0.00  0.00    +0.000 HD
ATOM     15  H   UNL     1      48.209   6.174  18.144  0.00  0.00    +0.000 HD
ENDBRANCH  12  13
ENDBRANCH   1  12
BRANCH   4  16
ATOM     16  C   UNL     1      46.326   5.926  11.654  0.00  0.00    +0.000 C 
BRANCH  16  17
ATOM     17  C   UNL     1      45.131   5.464  10.795  0.00  0.00    +0.000 C 
ATOM     18  C   UNL     1      43.800   6.025  11.296  0.00  0.00    +0.000 C 
ATOM     19  C   UNL     1      42.620   5.071  11.289  0.00  0.00    +0.000 C 
ATOM     20  O   UNL     1      42.969   3.705  11.445  0.00  0.00    +0.000 OA
ATOM     21  C   UNL     1      43.853   3.259  10.431  0.00  0.00    +0.000 C 
ATOM     22  C   UNL     1      45.198   3.963  10.491  0.00  0.00    +0.000 C 
ENDBRANCH  16  17
ENDBRANCH   4  16
TORSDOF 4
ENDMDL
MODEL 5
REMARK VINA RESULT:    -5.340      4.616      6.450
REMARK INTER + INTRA:          -6.726
REMARK INTER:                  -6.274
REMARK INTRA:                  -0.451
REMARK UNBOUND:                -0.293
REMARK  Name = 
REMARK  4 active torsions:
REMARK  status: ('A' for Active; 'I' for Inactive)
REMARK    1  A    between atoms: N_1  and  C_2
REMARK    2  A    between atoms: C_2  and  C_3
REMARK    3  A    between atoms: N_6  and  C_7
REMARK    4  A    between atoms: C_7  and  C_8
REMARK                            x       y       z     vdW  Elec       q    Type
REMARK                         _______ _______ _______ _____ _____    ______ ____
ROOT
ATOM      1  C   UNL     1      44.957   6.441  12.619  0.00  0.00    +0.000 C 
ATOM      2  C   UNL     1      44.753   5.009  13.033  0.00  0.00    +0.000 C 
ATOM      3  N   UNL     1      45.601   4.259  13.671  0.00  0.00    +0.000 NA
ATOM      4  N   UNL     1      46.861   4.838  13.867  0.00  0.00    +0.000 N 
ATOM      5  C   UNL     1      47.189   5.873  12.984  0.00  0.00    +0.000 C 
ATOM      6  C   UNL     1      48.414   6.222  12.526  0.00  0.00    +0.000 C 
ATOM      7  C   UNL     1      48.897   7.419  13.225  0.00  0.00    +0.000 C 
ATOM      8  C   UNL     1      47.925   8.274  13.596  0.00  0.00    +0.000 C 
ATOM      9 CL   UNL     1      48.348   9.565  14.676  0.00  0.00    +0.000 Cl
ATOM     10  N   UNL     1      46.578   8.221  13.342  0.00  0.00    +0.000 NA
ATOM     11  C   UNL     1      46.166   6.961  12.988  0.00  0.00    +0.000 C 
ENDROOT
BRANCH   1  12
ATOM     12  C   UNL     1      44.220   6.892  11.413  0.00  0.00    +0.000 C 
BRANCH  12  13
ATOM     13  N   UNL     1      42.816   6.480  11.317  0.00  0.00    +0.000 NA
ATOM     14  H   UNL     1      42.792   5.487  11.547  0.00  0.00    +0.000 HD
ATOM     15  H   UNL     1      42.575   6.550  10.333  0.00  0.00    +0.000 HD
ENDBRANCH  12  13
ENDBRANCH   1  12
BRANCH   4  16
ATOM     16  C   UNL     1      47.188   5.156  15.292  0.00  0.00    +0.000 C 
BRANCH  16  17
ATOM     17  C   UNL     1      47.300   3.962  16.262  0.00  0.00    +0.000 C 
ATOM     18  C   UNL     1      47.482   4.404  17.715  0.00  0.00    +0.000 C 
ATOM     19  C   UNL     1      48.479   3.614  18.541  0.00  0.00    +0.000 C 
ATOM     20  O   UNL     1      49.535   3.035  17.790  0.00  0.00    +0.000 OA
ATOM     21  C   UNL     1      49.059   2.157  16.785  0.00  0.00    +0.000 C 
ATOM     22  C   UNL     1      48.246   2.883  15.726  0.00  0.00    +0.000 C 
ENDBRANCH  16  17
ENDBRANCH   4  16
TORSDOF 4
ENDMDL
MODEL 6
REMARK VINA RESULT:    -5.138      3.953      6.227
REMARK INTER + INTRA:          -6.482
REMARK INTER:                  -5.711
REMARK INTRA:                  -0.771
REMARK UNBOUND:                -0.293
REMARK  Name = 
REMARK  4 active torsions:
REMARK  status: ('A' for Active; 'I' for Inactive)
REMARK    1  A    between atoms: N_1  and  C_2
REMARK    2  A    between atoms: C_2  and  C_3
REMARK    3  A    between atoms: N_6  and  C_7
REMARK    4  A    between atoms: C_7  and  C_8
REMARK                            x       y       z     vdW  Elec       q    Type
REMARK                         _______ _______ _______ _____ _____    ______ ____
ROOT
ATOM      1  C   UNL     1      44.777   8.319  11.347  0.00  0.00    +0.000 C 
ATOM      2  C   UNL     1      45.644   8.898  12.432  0.00  0.00    +0.000 C 
ATOM      3  N   UNL     1      46.289   8.236  13.344  0.00  0.00    +0.000 NA
ATOM      4  N   UNL     1      46.029   6.859  13.360  0.00  0.00    +0.000 N 
ATOM      5  C   UNL     1      44.822   6.471  12.767  0.00  0.00    +0.000 C 
ATOM      6  C   UNL     1      44.034   5.421  13.094  0.00  0.00    +0.000 C 
ATOM      7  C   UNL     1      44.214   4.329  12.128  0.00  0.00    +0.000 C 
ATOM      8  C   UNL     1      44.498   4.738  10.877  0.00  0.00    +0.000 C 
ATOM      9 CL   UNL     1      45.015   3.542   9.730  0.00  0.00    +0.000 Cl
ATOM     10  N   UNL     1      44.560   6.012  10.373  0.00  0.00    +0.000 NA
ATOM     11  C   UNL     1      44.706   6.954  11.359  0.00  0.00    +0.000 C 
ENDROOT
BRANCH   1  12
ATOM     12  C   UNL     1      43.672   9.179  10.853  0.00  0.00    +0.000 C 
BRANCH  12  13
ATOM     13  N   UNL     1      42.332   8.586  10.866  0.00  0.00    +0.000 NA
ATOM     14  H   UNL     1      41.813   9.033  10.111  0.00  0.00    +0.000 HD
ATOM     15  H   UNL     1      41.901   8.897  11.730  0.00  0.00    +0.000 HD
ENDBRANCH  12  13
ENDBRANCH   1  12
BRANCH   4  16
ATOM     16  C   UNL     1      47.186   6.000  12.956  0.00  0.00    +0.000 C 
BRANCH  16  17
ATOM     17  C   UNL     1      47.945   5.280  14.090  0.00  0.00    +0.000 C 
ATOM     18  C   UNL     1      47.141   4.126  14.690  0.00  0.00    +0.000 C 
ATOM     19  C   UNL     1      47.195   3.980  16.199  0.00  0.00    +0.000 C 
ATOM     20  O   UNL     1      47.408   5.195  16.900  0.00  0.00    +0.000 OA
ATOM     21  C   UNL     1      48.614   5.831  16.513  0.00  0.00    +0.000 C 
ATOM     22  C   UNL     1      48.591   6.274  15.061  0.00  0.00    +0.000 C 
ENDBRANCH  16  17
ENDBRANCH   4  16
TORSDOF 4
ENDMDL
MODEL 7
REMARK VINA RESULT:    -5.112      4.599      7.237
REMARK INTER + INTRA:          -6.450
REMARK INTER:                  -5.927
REMARK INTRA:                  -0.524
REMARK UNBOUND:                -0.293
REMARK  Name = 
REMARK  4 active torsions:
REMARK  status: ('A' for Active; 'I' for Inactive)
REMARK    1  A    between atoms: N_1  and  C_2
REMARK    2  A    between atoms: C_2  and  C_3
REMARK    3  A    between atoms: N_6  and  C_7
REMARK    4  A    between atoms: C_7  and  C_8
REMARK                            x       y       z     vdW  Elec       q    Type
REMARK                         _______ _______ _______ _____ _____    ______ ____
ROOT
ATOM      1  C   UNL     1      45.908   5.242  13.309  0.00  0.00    +0.000 C 
ATOM      2  C   UNL     1      46.792   4.598  14.341  0.00  0.00    +0.000 C 
ATOM      3  N   UNL     1      47.891   5.086  14.833  0.00  0.00    +0.000 NA
ATOM      4  N   UNL     1      48.325   6.273  14.229  0.00  0.00    +0.000 N 
ATOM      5  C   UNL     1      47.833   6.503  12.939  0.00  0.00    +0.000 C 
ATOM      6  C   UNL     1      48.438   7.160  11.922  0.00  0.00    +0.000 C 
ATOM      7  C   UNL     1      47.869   8.505  11.774  0.00  0.00    +0.000 C 
ATOM      8  C   UNL     1      46.565   8.594  12.101  0.00  0.00    +0.000 C 
ATOM      9 CL   UNL     1      45.870  10.177  12.244  0.00  0.00    +0.000 Cl
ATOM     10  N   UNL     1      45.692   7.601  12.467  0.00  0.00    +0.000 NA
ATOM     11  C   UNL     1      46.341   6.470  12.891  0.00  0.00    +0.000 C 
ENDROOT
BRANCH   1  12
ATOM     12  C   UNL     1      45.126   4.326  12.443  0.00  0.00    +0.000 C 
BRANCH  12  13
ATOM     13  N   UNL     1      45.399   2.894  12.598  0.00  0.00    +0.000 NA
ATOM     14  H   UNL     1      45.302   2.688  13.591  0.00  0.00    +0.000 HD
ATOM     15  H   UNL     1      46.382   2.775  12.377  0.00  0.00    +0.000 HD
ENDBRANCH  12  13
ENDBRANCH   1  12
BRANCH   4  16
ATOM     16  C   UNL     1      48.257   7.483  15.108  0.00  0.00    +0.000 C 
BRANCH  16  17
ATOM     17  C   UNL     1      49.318   7.591  16.223  0.00  0.00    +0.000 C 
ATOM     18  C   UNL     1      50.679   7.045  15.789  0.00  0.00    +0.000 C 
ATOM     19  C   UNL     1      51.434   6.222  16.817  0.00  0.00    +0.000 C 
ATOM     20  O   UNL     1      50.607   5.538  17.744  0.00  0.00    +0.000 OA
ATOM     21  C   UNL     1      49.771   6.422  18.471  0.00  0.00    +0.000 C 
ATOM     22  C   UNL     1      48.768   7.131  17.577  0.00  0.00    +0.000 C 
ENDBRANCH  16  17
ENDBRANCH   4  16
TORSDOF 4
ENDMDL
MODEL 8
REMARK VINA RESULT:    -5.057      4.356      6.743
REMARK INTER + INTRA:          -6.385
REMARK INTER:                  -5.690
REMARK INTRA:                  -0.695
REMARK UNBOUND:                -0.293
REMARK  Name = 
REMARK  4 active torsions:
REMARK  status: ('A' for Active; 'I' for Inactive)
REMARK    1  A    between atoms: N_1  and  C_2
REMARK    2  A    between atoms: C_2  and  C_3
REMARK    3  A    between atoms: N_6  and  C_7
REMARK    4  A    between atoms: C_7  and  C_8
REMARK                            x       y       z     vdW  Elec       q    Type
REMARK                         _______ _______ _______ _____ _____    ______ ____
ROOT
ATOM      1  C   UNL     1      45.121   4.368  12.057  0.00  0.00    +0.000 C 
ATOM      2  C   UNL     1      45.884   3.351  12.862  0.00  0.00    +0.000 C 
ATOM      3  N   UNL     1      46.900   3.582  13.637  0.00  0.00    +0.000 NA
ATOM      4  N   UNL     1      47.378   4.898  13.598  0.00  0.00    +0.000 N 
ATOM      5  C   UNL     1      47.047   5.622  12.447  0.00  0.00    +0.000 C 
ATOM      6  C   UNL     1      47.759   6.604  11.847  0.00  0.00    +0.000 C 
ATOM      7  C   UNL     1      47.181   7.916  12.161  0.00  0.00    +0.000 C 
ATOM      8  C   UNL     1      45.845   7.907  12.330  0.00  0.00    +0.000 C 
ATOM      9 CL   UNL     1      45.100   9.330  12.986  0.00  0.00    +0.000 Cl
ATOM     10  N   UNL     1      44.957   6.873  12.172  0.00  0.00    +0.000 NA
ATOM     11  C   UNL     1      45.574   5.649  12.203  0.00  0.00    +0.000 C 
ENDROOT
BRANCH   1  12
ATOM     12  C   UNL     1      44.476   3.878  10.813  0.00  0.00    +0.000 C 
BRANCH  12  13
ATOM     13  N   UNL     1      44.301   4.863   9.741  0.00  0.00    +0.000 NA
ATOM     14  H   UNL     1      45.154   5.421   9.721  0.00  0.00    +0.000 HD
ATOM     15  H   UNL     1      43.562   5.484  10.054  0.00  0.00    +0.000 HD
ENDBRANCH  12  13
ENDBRANCH   1  12
BRANCH   4  16
ATOM     16  C   UNL     1      47.171   5.675  14.861  0.00  0.00    +0.000 C 
BRANCH  16  17
ATOM     17  C   UNL     1      48.119   5.357  16.035  0.00  0.00    +0.000 C 
ATOM     18  C   UNL     1      47.423   4.581  17.154  0.00  0.00    +0.000 C 
ATOM     19  C   UNL     1      47.761   4.995  18.574  0.00  0.00    +0.000 C 
ATOM     20  O   UNL     1      48.128   6.357  18.716  0.00  0.00    +0.000 OA
ATOM     21  C   UNL     1      49.249   6.697  17.920  0.00  0.00    +0.000 C 
ATOM     22  C   UNL     1      48.957   6.576  16.434  0.00  0.00    +0.000 C 
ENDBRANCH  16  17
ENDBRANCH   4  16
TORSDOF 4
ENDMDL
MODEL 9
REMARK VINA RESULT:    -5.018      3.895      6.140
REMARK INTER + INTRA:          -6.337
REMARK INTER:                  -6.105
REMARK INTRA:                  -0.232
REMARK UNBOUND:                -0.293
REMARK  Name = 
REMARK  4 active torsions:
REMARK  status: ('A' for Active; 'I' for Inactive)
REMARK    1  A    between atoms: N_1  and  C_2
REMARK    2  A    between atoms: C_2  and  C_3
REMARK    3  A    between atoms: N_6  and  C_7
REMARK    4  A    between atoms: C_7  and  C_8
REMARK                            x       y       z     vdW  Elec       q    Type
REMARK                         _______ _______ _______ _____ _____    ______ ____
ROOT
ATOM      1  C   UNL     1      44.889   8.240  11.374  0.00  0.00    +0.000 C 
ATOM      2  C   UNL     1      45.828   8.873  12.364  0.00  0.00    +0.000 C 
ATOM      3  N   UNL     1      46.582   8.255  13.222  0.00  0.00    +0.000 NA
ATOM      4  N   UNL     1      46.382   6.870  13.284  0.00  0.00    +0.000 N 
ATOM      5  C   UNL     1      45.142   6.422  12.812  0.00  0.00    +0.000 C 
ATOM      6  C   UNL     1      44.432   5.348  13.227  0.00  0.00    +0.000 C 
ATOM      7  C   UNL     1      44.567   4.246  12.266  0.00  0.00    +0.000 C 
ATOM      8  C   UNL     1      44.717   4.641  10.987  0.00  0.00    +0.000 C 
ATOM      9 CL   UNL     1      45.176   3.446   9.816  0.00  0.00    +0.000 Cl
ATOM     10  N   UNL     1      44.680   5.907  10.460  0.00  0.00    +0.000 NA
ATOM     11  C   UNL     1      44.877   6.873  11.414  0.00  0.00    +0.000 C 
ENDROOT
BRANCH   1  12
ATOM     12  C   UNL     1      43.710   9.045  10.972  0.00  0.00    +0.000 C 
BRANCH  12  13
ATOM     13  N   UNL     1      42.426   8.338  10.925  0.00  0.00    +0.000 NA
ATOM     14  H   UNL     1      42.076   8.313  11.882  0.00  0.00    +0.000 HD
ATOM     15  H   UNL     1      42.648   7.379  10.677  0.00  0.00    +0.000 HD
ENDBRANCH  12  13
ENDBRANCH   1  12
BRANCH   4  16
ATOM     16  C   UNL     1      47.531   6.050  12.788  0.00  0.00    +0.000 C 
BRANCH  16  17
ATOM     17  C   UNL     1      48.940   6.653  12.962  0.00  0.00    +0.000 C 
ATOM     18  C   UNL     1      49.198   7.136  14.389  0.00  0.00    +0.000 C 
ATOM     19  C   UNL     1      49.932   8.455  14.534  0.00  0.00    +0.000 C 
ATOM     20  O   UNL     1      49.737   9.357  13.456  0.00  0.00    +0.000 OA
ATOM     21  C   UNL     1      50.140   8.804  12.215  0.00  0.00    +0.000 C 
ATOM     22  C   UNL     1      49.293   7.608  11.816  0.00  0.00    +0.000 C 
ENDBRANCH  16  17
ENDBRANCH   4  16
TORSDOF 4
ENDMDL
