MODEL 1
REMARK VINA RESULT:    -6.662      0.000      0.000
REMARK INTER + INTRA:          -8.681
REMARK INTER:                  -8.220
REMARK INTRA:                  -0.461
REMARK UNBOUND:                -0.461
REMARK  Name = 
REMARK  4 active torsions:
REMARK  status: ('A' for Active; 'I' for Inactive)
REMARK    1  A    between atoms: C_2  and  C_4
REMARK    2  A    between atoms: C_7  and  C_8
REMARK    3  A    between atoms: C_9  and  C_10
REMARK    4  A    between atoms: C_12  and  N_13
REMARK                            x       y       z     vdW  Elec       q    Type
REMARK                         _______ _______ _______ _____ _____    ______ ____
ROOT
ATOM      1  C   UNL     1      46.639   5.010  14.032  0.00  0.00    +0.000 C 
ATOM      2  C   UNL     1      45.598   4.213  13.739  0.00  0.00    +0.000 C 
ENDROOT
BRANCH   1   6
ATOM      3  C   UNL     1      48.991   4.571  17.455  0.00  0.00    +0.000 A 
ATOM      4  N   UNL     1      49.096   5.750  16.798  0.00  0.00    +0.000 NA
ATOM      5  C   UNL     1      48.347   5.856  15.679  0.00  0.00    +0.000 A 
ATOM      6  C   UNL     1      47.512   4.859  15.197  0.00  0.00    +0.000 A 
ATOM      7  C   UNL     1      47.487   3.710  15.967  0.00  0.00    +0.000 A 
ATOM      8  N   UNL     1      48.216   3.530  17.090  0.00  0.00    +0.000 NA
BRANCH   3  10
ATOM      9  N   UNL     1      50.948   3.703  18.648  0.00  0.00    +0.000 N 
ATOM     10  C   UNL     1      49.792   4.442  18.733  0.00  0.00    +0.000 C 
ATOM     11  O   UNL     1      49.467   4.963  19.795  0.00  0.00    +0.000 OA
ATOM     12  H   UNL     1      51.547   3.650  19.459  0.00  0.00    +0.000 HD
ATOM     13  H   UNL     1      51.258   3.334  17.756  0.00  0.00    +0.000 HD
ENDBRANCH   3  10
ENDBRANCH   1   6
BRANCH   2  14
ATOM     14  C   UNL     1      44.790   4.389  12.523  0.00  0.00    +0.000 A 
ATOM     15  C   UNL     1      45.078   3.664  11.385  0.00  0.00    +0.000 A 
ATOM     16  C   UNL     1      44.341   3.937  10.248  0.00  0.00    +0.000 A 
ATOM     17  N   UNL     1      43.349   4.842  10.281  0.00  0.00    +0.000 NA
ATOM     18  C   UNL     1      43.129   5.479  11.438  0.00  0.00    +0.000 A 
ATOM     19  N   UNL     1      43.811   5.309  12.571  0.00  0.00    +0.000 NA
BRANCH  16  20
ATOM     20  N   UNL     1      44.584   3.272   9.069  0.00  0.00    +0.000 N 
ATOM     21  C   UNL     1      44.738   1.818   8.974  0.00  0.00    +0.000 C 
ATOM     22  C   UNL     1      46.120   1.446   8.406  0.00  0.00    +0.000 C 
ATOM     23  O   UNL     1      46.413   2.151   7.190  0.00  0.00    +0.000 OA
ATOM     24  C   UNL     1      46.382   3.571   7.418  0.00  0.00    +0.000 C 
ATOM     25  C   UNL     1      44.998   4.027   7.884  0.00  0.00    +0.000 C 
ENDBRANCH  16  20
ENDBRANCH   2  14
TORSDOF 4
ENDMDL
MODEL 2
REMARK VINA RESULT:    -6.478      3.089      3.760
REMARK INTER + INTRA:          -8.454
REMARK INTER:                  -7.982
REMARK INTRA:                  -0.472
REMARK UNBOUND:                -0.461
REMARK  Name = 
REMARK  4 active torsions:
REMARK  status: ('A' for Active; 'I' for Inactive)
REMARK    1  A    between atoms: C_2  and  C_4
REMARK    2  A    between atoms: C_7  and  C_8
REMARK    3  A    between atoms: C_9  and  C_10
REMARK    4  A    between atoms: C_12  and  N_13
REMARK                            x       y       z     vdW  Elec       q    Type
REMARK                         _______ _______ _______ _____ _____    ______ ____
ROOT
ATOM      1  C   UNL     1      46.798   6.198  12.639  0.00  0.00    +0.000 C 
ATOM      2  C   UNL     1      45.518   5.867  12.876  0.00  0.00    +0.000 C 
ENDROOT
BRANCH   1   6
ATOM      3  C   UNL     1      48.725   9.371  14.554  0.00  0.00    +0.000 A 
ATOM      4  N   UNL     1      47.972   9.685  13.474  0.00  0.00    +0.000 NA
ATOM      5  C   UNL     1      47.382   8.639  12.856  0.00  0.00    +0.000 A 
ATOM      6  C   UNL     1      47.506   7.318  13.261  0.00  0.00    +0.000 A 
ATOM      7  C   UNL     1      48.293   7.134  14.384  0.00  0.00    +0.000 A 
ATOM      8  N   UNL     1      48.920   8.131  15.045  0.00  0.00    +0.000 NA
BRANCH   3  10
ATOM      9  N   UNL     1      48.568  11.181  16.197  0.00  0.00    +0.000 N 
ATOM     10  C   UNL     1      49.364  10.531  15.286  0.00  0.00    +0.000 C 
ATOM     11  O   UNL     1      50.525  10.889  15.112  0.00  0.00    +0.000 OA
ATOM     12  H   UNL     1      48.976  11.916  16.757  0.00  0.00    +0.000 HD
ATOM     13  H   UNL     1      47.633  10.843  16.398  0.00  0.00    +0.000 HD
ENDBRANCH   3  10
ENDBRANCH   1   6
BRANCH   2  14
ATOM     14  C   UNL     1      44.881   4.696  12.255  0.00  0.00    +0.000 A 
ATOM     15  C   UNL     1      45.185   4.347  10.955  0.00  0.00    +0.000 A 
ATOM     16  C   UNL     1      44.490   3.290  10.397  0.00  0.00    +0.000 A 
ATOM     17  N   UNL     1      43.591   2.607  11.124  0.00  0.00    +0.000 NA
ATOM     18  C   UNL     1      43.380   3.007  12.385  0.00  0.00    +0.000 A 
ATOM     19  N   UNL     1      43.975   4.033  12.993  0.00  0.00    +0.000 NA
BRANCH  16  20
ATOM     20  N   UNL     1      44.720   2.897   9.100  0.00  0.00    +0.000 N 
ATOM     21  C   UNL     1      45.044   1.521   8.714  0.00  0.00    +0.000 C 
ATOM     22  C   UNL     1      46.412   1.454   8.011  0.00  0.00    +0.000 C 
ATOM     23  O   UNL     1      46.520   2.407   6.943  0.00  0.00    +0.000 OA
ATOM     24  C   UNL     1      46.332   3.741   7.445  0.00  0.00    +0.000 C 
ATOM     25  C   UNL     1      44.943   3.909   8.064  0.00  0.00    +0.000 C 
ENDBRANCH  16  20
ENDBRANCH   2  14
TORSDOF 4
ENDMDL
MODEL 3
REMARK VINA RESULT:    -6.268      1.498      1.922
REMARK INTER + INTRA:          -8.194
REMARK INTER:                  -7.731
REMARK INTRA:                  -0.463
REMARK UNBOUND:                -0.461
REMARK  Name = 
REMARK  4 active torsions:
REMARK  status: ('A' for Active; 'I' for Inactive)
REMARK    1  A    between atoms: C_2  and  C_4
REMARK    2  A    between atoms: C_7  and  C_8
REMARK    3  A    between atoms: C_9  and  C_10
REMARK    4  A    between atoms: C_12  and  N_13
REMARK                            x       y       z     vdW  Elec       q    Type
REMARK                         _______ _______ _______ _____ _____    ______ ____
ROOT
ATOM      1  C   UNL     1      46.683   5.102  13.887  0.00  0.00    +0.000 C 
ATOM      2  C   UNL     1      46.411   3.846  13.494  0.00  0.00    +0.000 C 
ENDROOT
BRANCH   1   6
ATOM      3  C   UNL     1      49.816   6.135  16.448  0.00  0.00    +0.000 A 
ATOM      4  N   UNL     1      49.039   5.097  16.834  0.00  0.00    +0.000 NA
ATOM      5  C   UNL     1      48.016   4.800  16.003  0.00  0.00    +0.000 A 
ATOM      6  C   UNL     1      47.741   5.480  14.825  0.00  0.00    +0.000 A 
ATOM      7  C   UNL     1      48.617   6.511  14.540  0.00  0.00    +0.000 A 
ATOM      8  N   UNL     1      49.654   6.870  15.330  0.00  0.00    +0.000 NA
BRANCH   3  10
ATOM      9  N   UNL     1      51.305   7.794  17.465  0.00  0.00    +0.000 N 
ATOM     10  C   UNL     1      50.992   6.462  17.343  0.00  0.00    +0.000 C 
ATOM     11  O   UNL     1      51.641   5.616  17.950  0.00  0.00    +0.000 OA
ATOM     12  H   UNL     1      52.038   8.061  18.106  0.00  0.00    +0.000 HD
ATOM     13  H   UNL     1      50.726   8.501  17.025  0.00  0.00    +0.000 HD
ENDBRANCH   3  10
ENDBRANCH   1   6
BRANCH   2  14
ATOM     14  C   UNL     1      45.365   3.540  12.507  0.00  0.00    +0.000 A 
ATOM     15  C   UNL     1      45.706   3.221  11.209  0.00  0.00    +0.000 A 
ATOM     16  C   UNL     1      44.678   3.029  10.306  0.00  0.00    +0.000 A 
ATOM     17  N   UNL     1      43.398   3.103  10.706  0.00  0.00    +0.000 NA
ATOM     18  C   UNL     1      43.166   3.396  11.992  0.00  0.00    +0.000 A 
ATOM     19  N   UNL     1      44.090   3.633  12.922  0.00  0.00    +0.000 NA
BRANCH  16  20
ATOM     20  N   UNL     1      44.938   2.730   8.989  0.00  0.00    +0.000 N 
ATOM     21  C   UNL     1      45.349   1.403   8.523  0.00  0.00    +0.000 C 
ATOM     22  C   UNL     1      46.721   1.464   7.829  0.00  0.00    +0.000 C 
ATOM     23  O   UNL     1      46.775   2.485   6.821  0.00  0.00    +0.000 OA
ATOM     24  C   UNL     1      46.502   3.772   7.402  0.00  0.00    +0.000 C 
ATOM     25  C   UNL     1      45.102   3.816   8.019  0.00  0.00    +0.000 C 
ENDBRANCH  16  20
ENDBRANCH   2  14
TORSDOF 4
ENDMDL
MODEL 4
REMARK VINA RESULT:    -5.757      2.392      9.262
REMARK INTER + INTRA:          -7.564
REMARK INTER:                  -7.052
REMARK INTRA:                  -0.512
REMARK UNBOUND:                -0.461
REMARK  Name = 
REMARK  4 active torsions:
REMARK  status: ('A' for Active; 'I' for Inactive)
REMARK    1  A    between atoms: C_2  and  C_4
REMARK    2  A    between atoms: C_7  and  C_8
REMARK    3  A    between atoms: C_9  and  C_10
REMARK    4  A    between atoms: C_12  and  N_13
REMARK                            x       y       z     vdW  Elec       q    Type
REMARK                         _______ _______ _______ _____ _____    ______ ____
ROOT
ATOM      1  C   UNL     1      46.869   5.055  14.607  0.00  0.00    +0.000 C 
ATOM      2  C   UNL     1      47.241   3.978  15.319  0.00  0.00    +0.000 C 
ENDROOT
BRANCH   1   6
ATOM      3  C   UNL     1      45.547   4.837  10.651  0.00  0.00    +0.000 A 
ATOM      4  N   UNL     1      46.175   5.979  11.016  0.00  0.00    +0.000 NA
ATOM      5  C   UNL     1      46.568   6.037  12.307  0.00  0.00    +0.000 A 
ATOM      6  C   UNL     1      46.368   5.023  13.232  0.00  0.00    +0.000 A 
ATOM      7  C   UNL     1      45.726   3.905  12.730  0.00  0.00    +0.000 A 
ATOM      8  N   UNL     1      45.297   3.784  11.454  0.00  0.00    +0.000 NA
BRANCH   3  10
ATOM      9  N   UNL     1      43.825   4.378   8.970  0.00  0.00    +0.000 N 
ATOM     10  C   UNL     1      45.132   4.733   9.200  0.00  0.00    +0.000 C 
ATOM     11  O   UNL     1      45.887   4.959   8.258  0.00  0.00    +0.000 OA
ATOM     12  H   UNL     1      43.489   4.365   8.018  0.00  0.00    +0.000 HD
ATOM     13  H   UNL     1      43.179   4.263   9.744  0.00  0.00    +0.000 HD
ENDBRANCH   3  10
ENDBRANCH   1   6
BRANCH   2  14
ATOM     14  C   UNL     1      47.689   4.075  16.716  0.00  0.00    +0.000 A 
ATOM     15  C   UNL     1      47.834   5.308  17.316  0.00  0.00    +0.000 A 
ATOM     16  C   UNL     1      48.342   5.340  18.601  0.00  0.00    +0.000 A 
ATOM     17  N   UNL     1      48.630   4.198  19.247  0.00  0.00    +0.000 NA
ATOM     18  C   UNL     1      48.434   3.047  18.590  0.00  0.00    +0.000 A 
ATOM     19  N   UNL     1      47.985   2.923  17.341  0.00  0.00    +0.000 NA
BRANCH  16  20
ATOM     20  N   UNL     1      48.536   6.532  19.258  0.00  0.00    +0.000 N 
ATOM     21  C   UNL     1      47.535   7.601  19.314  0.00  0.00    +0.000 C 
ATOM     22  C   UNL     1      48.083   8.901  18.698  0.00  0.00    +0.000 C 
ATOM     23  O   UNL     1      49.362   9.262  19.242  0.00  0.00    +0.000 OA
ATOM     24  C   UNL     1      50.316   8.212  19.008  0.00  0.00    +0.000 C 
ATOM     25  C   UNL     1      49.885   6.910  19.688  0.00  0.00    +0.000 C 
ENDBRANCH  16  20
ENDBRANCH   2  14
TORSDOF 4
ENDMDL
MODEL 5
REMARK VINA RESULT:    -5.708      2.260      9.484
REMARK INTER + INTRA:          -7.503
REMARK INTER:                  -7.038
REMARK INTRA:                  -0.466
REMARK UNBOUND:                -0.461
REMARK  Name = 
REMARK  4 active torsions:
REMARK  status: ('A' for Active; 'I' for Inactive)
REMARK    1  A    between atoms: C_2  and  C_4
REMARK    2  A    between atoms: C_7  and  C_8
REMARK    3  A    between atoms: C_9  and  C_10
REMARK    4  A    between atoms: C_12  and  N_13
REMARK                            x       y       z     vdW  Elec       q    Type
REMARK                         _______ _______ _______ _____ _____    ______ ____
ROOT
ATOM      1  C   UNL     1      47.419   4.896  15.171  0.00  0.00    +0.000 C 
ATOM      2  C   UNL     1      47.428   4.154  16.291  0.00  0.00    +0.000 C 
ENDROOT
BRANCH   1   6
ATOM      3  C   UNL     1      45.004   4.140  11.848  0.00  0.00    +0.000 A 
ATOM      4  N   UNL     1      45.537   3.059  12.465  0.00  0.00    +0.000 NA
ATOM      5  C   UNL     1      46.336   3.331  13.520  0.00  0.00    +0.000 A 
ATOM      6  C   UNL     1      46.621   4.609  13.978  0.00  0.00    +0.000 A 
ATOM      7  C   UNL     1      46.004   5.624  13.268  0.00  0.00    +0.000 A 
ATOM      8  N   UNL     1      45.202   5.426  12.199  0.00  0.00    +0.000 NA
BRANCH   3  10
ATOM      9  N   UNL     1      43.740   4.939   9.908  0.00  0.00    +0.000 N 
ATOM     10  C   UNL     1      44.074   3.858  10.688  0.00  0.00    +0.000 C 
ATOM     11  O   UNL     1      43.636   2.743  10.422  0.00  0.00    +0.000 OA
ATOM     12  H   UNL     1      43.178   4.783   9.084  0.00  0.00    +0.000 HD
ATOM     13  H   UNL     1      44.157   5.847  10.080  0.00  0.00    +0.000 HD
ENDBRANCH   3  10
ENDBRANCH   1   6
BRANCH   2  14
ATOM     14  C   UNL     1      48.216   4.526  17.475  0.00  0.00    +0.000 A 
ATOM     15  C   UNL     1      49.588   4.378  17.472  0.00  0.00    +0.000 A 
ATOM     16  C   UNL     1      50.265   4.661  18.643  0.00  0.00    +0.000 A 
ATOM     17  N   UNL     1      49.602   5.113  19.721  0.00  0.00    +0.000 NA
ATOM     18  C   UNL     1      48.273   5.246  19.620  0.00  0.00    +0.000 A 
ATOM     19  N   UNL     1      47.534   4.963  18.547  0.00  0.00    +0.000 NA
BRANCH  16  20
ATOM     20  N   UNL     1      51.630   4.516  18.726  0.00  0.00    +0.000 N 
ATOM     21  C   UNL     1      52.402   3.604  17.878  0.00  0.00    +0.000 C 
ATOM     22  C   UNL     1      53.158   2.568  18.729  0.00  0.00    +0.000 C 
ATOM     23  O   UNL     1      53.919   3.182  19.781  0.00  0.00    +0.000 OA
ATOM     24  C   UNL     1      53.053   3.936  20.646  0.00  0.00    +0.000 C 
ATOM     25  C   UNL     1      52.347   5.059  19.882  0.00  0.00    +0.000 C 
ENDBRANCH  16  20
ENDBRANCH   2  14
TORSDOF 4
ENDMDL
MODEL 6
REMARK VINA RESULT:    -5.654      2.054      2.934
REMARK INTER + INTRA:          -7.437
REMARK INTER:                  -6.961
REMARK INTRA:                  -0.476
REMARK UNBOUND:                -0.461
REMARK  Name = 
REMARK  4 active torsions:
REMARK  status: ('A' for Active; 'I' for Inactive)
REMARK    1  A    between atoms: C_2  and  C_4
REMARK    2  A    between atoms: C_7  and  C_8
REMARK    3  A    between atoms: C_9  and  C_10
REMARK    4  A    between atoms: C_12  and  N_13
REMARK                            x       y       z     vdW  Elec       q    Type
REMARK                         _______ _______ _______ _____ _____    ______ ____
ROOT
ATOM      1  C   UNL     1      47.599   5.486  15.300  0.00  0.00    +0.000 C 
ATOM      2  C   UNL     1      47.832   6.207  14.191  0.00  0.00    +0.000 C 
ENDROOT
BRANCH   1   6
ATOM      3  C   UNL     1      50.588   4.500  18.046  0.00  0.00    +0.000 A 
ATOM      4  N   UNL     1      49.622   3.573  17.846  0.00  0.00    +0.000 NA
ATOM      5  C   UNL     1      48.652   3.927  16.975  0.00  0.00    +0.000 A 
ATOM      6  C   UNL     1      48.606   5.141  16.306  0.00  0.00    +0.000 A 
ATOM      7  C   UNL     1      49.658   5.993  16.589  0.00  0.00    +0.000 A 
ATOM      8  N   UNL     1      50.655   5.710  17.455  0.00  0.00    +0.000 NA
BRANCH   3  10
ATOM      9  N   UNL     1      52.349   2.929  18.706  0.00  0.00    +0.000 N 
ATOM     10  C   UNL     1      51.706   4.111  18.988  0.00  0.00    +0.000 C 
ATOM     11  O   UNL     1      52.055   4.791  19.948  0.00  0.00    +0.000 OA
ATOM     12  H   UNL     1      53.145   2.667  19.269  0.00  0.00    +0.000 HD
ATOM     13  H   UNL     1      52.113   2.401  17.873  0.00  0.00    +0.000 HD
ENDBRANCH   3  10
ENDBRANCH   1   6
BRANCH   2  14
ATOM     14  C   UNL     1      46.763   6.563  13.245  0.00  0.00    +0.000 A 
ATOM     15  C   UNL     1      46.004   5.576  12.652  0.00  0.00    +0.000 A 
ATOM     16  C   UNL     1      45.074   5.966  11.706  0.00  0.00    +0.000 A 
ATOM     17  N   UNL     1      44.894   7.267  11.424  0.00  0.00    +0.000 NA
ATOM     18  C   UNL     1      45.663   8.153  12.069  0.00  0.00    +0.000 A 
ATOM     19  N   UNL     1      46.607   7.868  12.967  0.00  0.00    +0.000 NA
BRANCH  16  20
ATOM     20  N   UNL     1      44.295   5.039  11.053  0.00  0.00    +0.000 N 
ATOM     21  C   UNL     1      43.137   4.379  11.662  0.00  0.00    +0.000 C 
ATOM     22  C   UNL     1      43.325   2.852  11.688  0.00  0.00    +0.000 C 
ATOM     23  O   UNL     1      43.693   2.328  10.403  0.00  0.00    +0.000 OA
ATOM     24  C   UNL     1      44.920   2.929   9.954  0.00  0.00    +0.000 C 
ATOM     25  C   UNL     1      44.772   4.445   9.802  0.00  0.00    +0.000 C 
ENDBRANCH  16  20
ENDBRANCH   2  14
TORSDOF 4
ENDMDL
MODEL 7
REMARK VINA RESULT:    -5.621      2.621      9.667
REMARK INTER + INTRA:          -7.396
REMARK INTER:                  -6.934
REMARK INTRA:                  -0.462
REMARK UNBOUND:                -0.461
REMARK  Name = 
REMARK  4 active torsions:
REMARK  status: ('A' for Active; 'I' for Inactive)
REMARK    1  A    between atoms: C_2  and  C_4
REMARK    2  A    between atoms: C_7  and  C_8
REMARK    3  A    between atoms: C_9  and  C_10
REMARK    4  A    between atoms: C_12  and  N_13
REMARK                            x       y       z     vdW  Elec       q    Type
REMARK                         _______ _______ _______ _____ _____    ______ ____
ROOT
ATOM      1  C   UNL     1      47.521   4.899  14.794  0.00  0.00    +0.000 C 
ATOM      2  C   UNL     1      47.420   4.192  15.932  0.00  0.00    +0.000 C 
ENDROOT
BRANCH   1   6
ATOM      3  C   UNL     1      44.579   4.987  11.831  0.00  0.00    +0.000 A 
ATOM      4  N   UNL     1      45.023   3.764  12.205  0.00  0.00    +0.000 NA
ATOM      5  C   UNL     1      45.994   3.763  13.144  0.00  0.00    +0.000 A 
ATOM      6  C   UNL     1      46.530   4.907  13.717  0.00  0.00    +0.000 A 
ATOM      7  C   UNL     1      45.982   6.091  13.257  0.00  0.00    +0.000 A 
ATOM      8  N   UNL     1      45.017   6.166  12.314  0.00  0.00    +0.000 NA
BRANCH   3  10
ATOM      9  N   UNL     1      43.795   4.581   9.546  0.00  0.00    +0.000 N 
ATOM     10  C   UNL     1      43.464   5.012  10.808  0.00  0.00    +0.000 C 
ATOM     11  O   UNL     1      42.319   5.375  11.058  0.00  0.00    +0.000 OA
ATOM     12  H   UNL     1      43.064   4.516   8.852  0.00  0.00    +0.000 HD
ATOM     13  H   UNL     1      44.719   4.211   9.354  0.00  0.00    +0.000 HD
ENDBRANCH   3  10
ENDBRANCH   1   6
BRANCH   2  14
ATOM     14  C   UNL     1      48.430   4.268  16.998  0.00  0.00    +0.000 A 
ATOM     15  C   UNL     1      48.278   5.162  18.037  0.00  0.00    +0.000 A 
ATOM     16  C   UNL     1      49.302   5.249  18.962  0.00  0.00    +0.000 A 
ATOM     17  N   UNL     1      50.377   4.450  18.865  0.00  0.00    +0.000 NA
ATOM     18  C   UNL     1      50.425   3.598  17.832  0.00  0.00    +0.000 A 
ATOM     19  N   UNL     1      49.505   3.470  16.876  0.00  0.00    +0.000 NA
BRANCH  16  20
ATOM     20  N   UNL     1      49.233   6.132  20.014  0.00  0.00    +0.000 N 
ATOM     21  C   UNL     1      48.089   6.222  20.925  0.00  0.00    +0.000 C 
ATOM     22  C   UNL     1      47.470   7.632  20.893  0.00  0.00    +0.000 C 
ATOM     23  O   UNL     1      48.454   8.661  21.079  0.00  0.00    +0.000 OA
ATOM     24  C   UNL     1      49.456   8.582  20.050  0.00  0.00    +0.000 C 
ATOM     25  C   UNL     1      50.190   7.239  20.094  0.00  0.00    +0.000 C 
ENDBRANCH  16  20
ENDBRANCH   2  14
TORSDOF 4
ENDMDL
MODEL 8
REMARK VINA RESULT:    -5.531      5.742      8.087
REMARK INTER + INTRA:          -7.286
REMARK INTER:                  -6.817
REMARK INTRA:                  -0.469
REMARK UNBOUND:                -0.461
REMARK  Name = 
REMARK  4 active torsions:
REMARK  status: ('A' for Active; 'I' for Inactive)
REMARK    1  A    between atoms: C_2  and  C_4
REMARK    2  A    between atoms: C_7  and  C_8
REMARK    3  A    between atoms: C_9  and  C_10
REMARK    4  A    between atoms: C_12  and  N_13
REMARK                            x       y       z     vdW  Elec       q    Type
REMARK                         _______ _______ _______ _____ _____    ______ ____
ROOT
ATOM      1  C   UNL     1      48.631   6.742  12.489  0.00  0.00    +0.000 C 
ATOM      2  C   UNL     1      49.143   7.728  11.734  0.00  0.00    +0.000 C 
ENDROOT
BRANCH   1   6
ATOM      3  C   UNL     1      44.572   5.767  12.627  0.00  0.00    +0.000 A 
ATOM      4  N   UNL     1      45.394   5.043  13.422  0.00  0.00    +0.000 NA
ATOM      5  C   UNL     1      46.705   5.358  13.339  0.00  0.00    +0.000 A 
ATOM      6  C   UNL     1      47.222   6.347  12.514  0.00  0.00    +0.000 A 
ATOM      7  C   UNL     1      46.276   7.019  11.762  0.00  0.00    +0.000 A 
ATOM      8  N   UNL     1      44.952   6.750  11.787  0.00  0.00    +0.000 NA
BRANCH   3  10
ATOM      9  N   UNL     1      42.286   6.055  11.794  0.00  0.00    +0.000 N 
ATOM     10  C   UNL     1      43.095   5.457  12.731  0.00  0.00    +0.000 C 
ATOM     11  O   UNL     1      42.613   4.713  13.580  0.00  0.00    +0.000 OA
ATOM     12  H   UNL     1      41.304   5.821  11.786  0.00  0.00    +0.000 HD
ATOM     13  H   UNL     1      42.687   6.611  11.047  0.00  0.00    +0.000 HD
ENDBRANCH   3  10
ENDBRANCH   1   6
BRANCH   2  14
ATOM     14  C   UNL     1      50.580   8.041  11.718  0.00  0.00    +0.000 A 
ATOM     15  C   UNL     1      51.355   7.695  10.631  0.00  0.00    +0.000 A 
ATOM     16  C   UNL     1      52.714   7.936  10.711  0.00  0.00    +0.000 A 
ATOM     17  N   UNL     1      53.237   8.534  11.794  0.00  0.00    +0.000 NA
ATOM     18  C   UNL     1      52.400   8.854  12.790  0.00  0.00    +0.000 A 
ATOM     19  N   UNL     1      51.087   8.628  12.816  0.00  0.00    +0.000 NA
BRANCH  16  20
ATOM     20  N   UNL     1      53.556   7.597   9.678  0.00  0.00    +0.000 N 
ATOM     21  C   UNL     1      53.537   8.253   8.367  0.00  0.00    +0.000 C 
ATOM     22  C   UNL     1      53.243   7.238   7.248  0.00  0.00    +0.000 C 
ATOM     23  O   UNL     1      54.100   6.088   7.319  0.00  0.00    +0.000 OA
ATOM     24  C   UNL     1      53.940   5.427   8.586  0.00  0.00    +0.000 C 
ATOM     25  C   UNL     1      54.321   6.350   9.746  0.00  0.00    +0.000 C 
ENDBRANCH  16  20
ENDBRANCH   2  14
TORSDOF 4
ENDMDL
MODEL 9
REMARK VINA RESULT:    -5.358      2.057      9.053
REMARK INTER + INTRA:          -7.072
REMARK INTER:                  -6.588
REMARK INTRA:                  -0.483
REMARK UNBOUND:                -0.461
REMARK  Name = 
REMARK  4 active torsions:
REMARK  status: ('A' for Active; 'I' for Inactive)
REMARK    1  A    between atoms: C_2  and  C_4
REMARK    2  A    between atoms: C_7  and  C_8
REMARK    3  A    between atoms: C_9  and  C_10
REMARK    4  A    between atoms: C_12  and  N_13
REMARK                            x       y       z     vdW  Elec       q    Type
REMARK                         _______ _______ _______ _____ _____    ______ ____
ROOT
ATOM      1  C   UNL     1      46.518   6.039  13.426  0.00  0.00    +0.000 C 
ATOM      2  C   UNL     1      47.746   6.583  13.474  0.00  0.00    +0.000 C 
ENDROOT
BRANCH   1   6
ATOM      3  C   UNL     1      45.072   3.844  10.180  0.00  0.00    +0.000 A 
ATOM      4  N   UNL     1      45.488   5.105   9.918  0.00  0.00    +0.000 NA
ATOM      5  C   UNL     1      45.925   5.804  10.988  0.00  0.00    +0.000 A 
ATOM      6  C   UNL     1      45.966   5.308  12.284  0.00  0.00    +0.000 A 
ATOM      7  C   UNL     1      45.524   4.004  12.414  0.00  0.00    +0.000 A 
ATOM      8  N   UNL     1      45.065   3.251  11.390  0.00  0.00    +0.000 NA
BRANCH   3  10
ATOM      9  N   UNL     1      44.591   1.666   9.166  0.00  0.00    +0.000 N 
ATOM     10  C   UNL     1      44.614   3.029   8.990  0.00  0.00    +0.000 C 
ATOM     11  O   UNL     1      44.264   3.521   7.922  0.00  0.00    +0.000 OA
ATOM     12  H   UNL     1      44.226   1.090   8.421  0.00  0.00    +0.000 HD
ATOM     13  H   UNL     1      44.808   1.260  10.070  0.00  0.00    +0.000 HD
ENDBRANCH   3  10
ENDBRANCH   1   6
BRANCH   2  14
ATOM     14  C   UNL     1      48.259   7.261  14.674  0.00  0.00    +0.000 A 
ATOM     15  C   UNL     1      48.659   6.526  15.770  0.00  0.00    +0.000 A 
ATOM     16  C   UNL     1      49.049   7.222  16.899  0.00  0.00    +0.000 A 
ATOM     17  N   UNL     1      49.080   8.565  16.895  0.00  0.00    +0.000 NA
ATOM     18  C   UNL     1      48.694   9.190  15.775  0.00  0.00    +0.000 A 
ATOM     19  N   UNL     1      48.269   8.605  14.655  0.00  0.00    +0.000 NA
BRANCH  16  20
ATOM     20  N   UNL     1      49.441   6.560  18.040  0.00  0.00    +0.000 N 
ATOM     21  C   UNL     1      49.763   5.131  18.079  0.00  0.00    +0.000 C 
ATOM     22  C   UNL     1      48.842   4.386  19.062  0.00  0.00    +0.000 C 
ATOM     23  O   UNL     1      48.800   5.017  20.351  0.00  0.00    +0.000 OA
ATOM     24  C   UNL     1      48.332   6.371  20.227  0.00  0.00    +0.000 C 
ATOM     25  C   UNL     1      49.267   7.202  19.345  0.00  0.00    +0.000 C 
ENDBRANCH  16  20
ENDBRANCH   2  14
TORSDOF 4
ENDMDL
