MODEL 1
REMARK VINA RESULT:    -8.438      0.000      0.000
REMARK INTER + INTRA:         -11.029
REMARK INTER:                 -10.411
REMARK INTRA:                  -0.618
REMARK UNBOUND:                -0.618
REMARK  Name = 
REMARK  4 active torsions:
REMARK  status: ('A' for Active; 'I' for Inactive)
REMARK    1  A    between atoms: C_2  and  C_4
REMARK    2  A    between atoms: C_7  and  N_8
REMARK    3  A    between atoms: N_8  and  C_9
REMARK    4  A    between atoms: C_9  and  C_10
REMARK                            x       y       z     vdW  Elec       q    Type
REMARK                         _______ _______ _______ _____ _____    ______ ____
ROOT
ATOM      1  N   UNL     1      43.840   4.936   9.702  0.00  0.00    +0.000 N 
ATOM      2  H   UNL     1      42.951   5.032   9.218  0.00  0.00    +0.000 HD
ENDROOT
BRANCH   1   6
ATOM      3  C   UNL     1      46.287   2.074   7.904  0.00  0.00    +0.000 A 
ATOM      4  C   UNL     1      46.470   3.401   7.541  0.00  0.00    +0.000 A 
ATOM      5  C   UNL     1      45.662   4.370   8.137  0.00  0.00    +0.000 A 
ATOM      6  C   UNL     1      44.707   4.008   9.089  0.00  0.00    +0.000 A 
ATOM      7  C   UNL     1      44.588   2.638   9.350  0.00  0.00    +0.000 A 
ATOM      8  N   UNL     1      45.350   1.659   8.800  0.00  0.00    +0.000 NA
BRANCH   3  10
ATOM      9  N   UNL     1      46.859  -0.273   7.664  0.00  0.00    +0.000 N 
ATOM     10  C   UNL     1      47.150   1.011   7.291  0.00  0.00    +0.000 C 
ATOM     11  O   UNL     1      48.057   1.264   6.507  0.00  0.00    +0.000 OA
ATOM     12  H   UNL     1      47.397  -1.037   7.283  0.00  0.00    +0.000 HD
ATOM     13  H   UNL     1      46.094  -0.447   8.307  0.00  0.00    +0.000 HD
ENDBRANCH   3  10
ENDBRANCH   1   6
BRANCH   1  14
ATOM     14  C   UNL     1      43.786   5.112  11.175  0.00  0.00    +0.000 C 
ATOM     15  C   UNL     1      42.677   4.406  11.938  0.00  0.00    +0.000 C 
ATOM     16  C   UNL     1      42.604   5.884  11.753  0.00  0.00    +0.000 C 
BRANCH  14  17
ATOM     17  C   UNL     1      45.131   5.449  11.825  0.00  0.00    +0.000 A 
ATOM     18  C   UNL     1      45.922   6.509  11.332  0.00  0.00    +0.000 A 
ATOM     19  C   UNL     1      47.131   6.875  11.933  0.00  0.00    +0.000 A 
ATOM     20  C   UNL     1      47.579   6.190  13.056  0.00  0.00    +0.000 A 
ATOM     21  C   UNL     1      46.823   5.137  13.551  0.00  0.00    +0.000 A 
ATOM     22  F   UNL     1      47.245   4.476  14.637  0.00  0.00    +0.000 F 
ATOM     23  C   UNL     1      45.626   4.761  12.947  0.00  0.00    +0.000 A 
ENDBRANCH  14  17
ENDBRANCH   1  14
TORSDOF 4
ENDMDL
MODEL 2
REMARK VINA RESULT:    -8.374      1.536      2.053
REMARK INTER + INTRA:         -10.950
REMARK INTER:                 -10.289
REMARK INTRA:                  -0.662
REMARK UNBOUND:                -0.618
REMARK  Name = 
REMARK  4 active torsions:
REMARK  status: ('A' for Active; 'I' for Inactive)
REMARK    1  A    between atoms: C_2  and  C_4
REMARK    2  A    between atoms: C_7  and  N_8
REMARK    3  A    between atoms: N_8  and  C_9
REMARK    4  A    between atoms: C_9  and  C_10
REMARK                            x       y       z     vdW  Elec       q    Type
REMARK                         _______ _______ _______ _____ _____    ______ ____
ROOT
ATOM      1  N   UNL     1      43.928   4.898   9.974  0.00  0.00    +0.000 N 
ATOM      2  H   UNL     1      42.998   5.010   9.579  0.00  0.00    +0.000 HD
ENDROOT
BRANCH   1   6
ATOM      3  C   UNL     1      46.508   2.561   7.671  0.00  0.00    +0.000 A 
ATOM      4  C   UNL     1      45.693   1.913   8.589  0.00  0.00    +0.000 A 
ATOM      5  C   UNL     1      44.822   2.681   9.363  0.00  0.00    +0.000 A 
ATOM      6  C   UNL     1      44.763   4.066   9.200  0.00  0.00    +0.000 A 
ATOM      7  C   UNL     1      45.655   4.614   8.270  0.00  0.00    +0.000 A 
ATOM      8  N   UNL     1      46.517   3.910   7.493  0.00  0.00    +0.000 NA
BRANCH   3  10
ATOM      9  N   UNL     1      48.550   2.430   6.367  0.00  0.00    +0.000 N 
ATOM     10  C   UNL     1      47.444   1.762   6.815  0.00  0.00    +0.000 C 
ATOM     11  O   UNL     1      47.241   0.588   6.529  0.00  0.00    +0.000 OA
ATOM     12  H   UNL     1      49.225   1.948   5.792  0.00  0.00    +0.000 HD
ATOM     13  H   UNL     1      48.692   3.399   6.632  0.00  0.00    +0.000 HD
ENDBRANCH   3  10
ENDBRANCH   1   6
BRANCH   1  14
ATOM     14  C   UNL     1      43.998   4.927  11.456  0.00  0.00    +0.000 C 
ATOM     15  C   UNL     1      43.077   4.001  12.233  0.00  0.00    +0.000 C 
ATOM     16  C   UNL     1      42.786   5.464  12.213  0.00  0.00    +0.000 C 
BRANCH  14  17
ATOM     17  C   UNL     1      45.343   5.392  12.021  0.00  0.00    +0.000 A 
ATOM     18  C   UNL     1      45.953   4.700  13.088  0.00  0.00    +0.000 A 
ATOM     19  C   UNL     1      47.204   5.068  13.594  0.00  0.00    +0.000 A 
ATOM     20  C   UNL     1      47.887   6.142  13.035  0.00  0.00    +0.000 A 
ATOM     21  C   UNL     1      47.301   6.844  11.992  0.00  0.00    +0.000 A 
ATOM     22  F   UNL     1      47.955   7.876  11.443  0.00  0.00    +0.000 F 
ATOM     23  C   UNL     1      46.050   6.489  11.496  0.00  0.00    +0.000 A 
ENDBRANCH  14  17
ENDBRANCH   1  14
TORSDOF 4
ENDMDL
MODEL 3
REMARK VINA RESULT:    -7.597      2.158      2.521
REMARK INTER + INTRA:          -9.992
REMARK INTER:                  -9.524
REMARK INTRA:                  -0.468
REMARK UNBOUND:                -0.618
REMARK  Name = 
REMARK  4 active torsions:
REMARK  status: ('A' for Active; 'I' for Inactive)
REMARK    1  A    between atoms: C_2  and  C_4
REMARK    2  A    between atoms: C_7  and  N_8
REMARK    3  A    between atoms: N_8  and  C_9
REMARK    4  A    between atoms: C_9  and  C_10
REMARK                            x       y       z     vdW  Elec       q    Type
REMARK                         _______ _______ _______ _____ _____    ______ ____
ROOT
ATOM      1  N   UNL     1      43.897   4.536  10.309  0.00  0.00    +0.000 N 
ATOM      2  H   UNL     1      42.929   4.271  10.146  0.00  0.00    +0.000 HD
ENDROOT
BRANCH   1   6
ATOM      3  C   UNL     1      46.475   2.484   7.747  0.00  0.00    +0.000 A 
ATOM      4  C   UNL     1      46.460   3.869   7.675  0.00  0.00    +0.000 A 
ATOM      5  C   UNL     1      45.606   4.570   8.529  0.00  0.00    +0.000 A 
ATOM      6  C   UNL     1      44.803   3.887   9.444  0.00  0.00    +0.000 A 
ATOM      7  C   UNL     1      44.875   2.489   9.403  0.00  0.00    +0.000 A 
ATOM      8  N   UNL     1      45.689   1.764   8.594  0.00  0.00    +0.000 NA
BRANCH   3  10
ATOM      9  N   UNL     1      48.442   2.405   6.328  0.00  0.00    +0.000 N 
ATOM     10  C   UNL     1      47.391   1.704   6.852  0.00  0.00    +0.000 C 
ATOM     11  O   UNL     1      47.219   0.517   6.600  0.00  0.00    +0.000 OA
ATOM     12  H   UNL     1      49.102   1.938   5.724  0.00  0.00    +0.000 HD
ATOM     13  H   UNL     1      48.561   3.384   6.567  0.00  0.00    +0.000 HD
ENDBRANCH   3  10
ENDBRANCH   1   6
BRANCH   1  14
ATOM     14  C   UNL     1      44.242   4.854  11.717  0.00  0.00    +0.000 C 
ATOM     15  C   UNL     1      44.661   3.710  12.626  0.00  0.00    +0.000 C 
ATOM     16  C   UNL     1      43.316   4.328  12.810  0.00  0.00    +0.000 C 
BRANCH  14  17
ATOM     17  C   UNL     1      44.725   6.289  11.945  0.00  0.00    +0.000 A 
ATOM     18  C   UNL     1      45.785   6.558  12.837  0.00  0.00    +0.000 A 
ATOM     19  C   UNL     1      46.283   7.851  13.031  0.00  0.00    +0.000 A 
ATOM     20  C   UNL     1      45.735   8.915  12.325  0.00  0.00    +0.000 A 
ATOM     21  C   UNL     1      44.685   8.675  11.451  0.00  0.00    +0.000 A 
ATOM     22  F   UNL     1      44.155   9.695  10.762  0.00  0.00    +0.000 F 
ATOM     23  C   UNL     1      44.176   7.392  11.267  0.00  0.00    +0.000 A 
ENDBRANCH  14  17
ENDBRANCH   1  14
TORSDOF 4
ENDMDL
MODEL 4
REMARK VINA RESULT:    -6.947      3.982      6.194
REMARK INTER + INTRA:          -9.190
REMARK INTER:                  -8.781
REMARK INTRA:                  -0.409
REMARK UNBOUND:                -0.618
REMARK  Name = 
REMARK  4 active torsions:
REMARK  status: ('A' for Active; 'I' for Inactive)
REMARK    1  A    between atoms: C_2  and  C_4
REMARK    2  A    between atoms: C_7  and  N_8
REMARK    3  A    between atoms: N_8  and  C_9
REMARK    4  A    between atoms: C_9  and  C_10
REMARK                            x       y       z     vdW  Elec       q    Type
REMARK                         _______ _______ _______ _____ _____    ______ ____
ROOT
ATOM      1  N   UNL     1      45.170   4.199  12.507  0.00  0.00    +0.000 N 
ATOM      2  H   UNL     1      44.643   3.779  13.269  0.00  0.00    +0.000 HD
ENDROOT
BRANCH   1   6
ATOM      3  C   UNL     1      48.338   6.526  13.911  0.00  0.00    +0.000 A 
ATOM      4  C   UNL     1      47.810   6.835  12.665  0.00  0.00    +0.000 A 
ATOM      5  C   UNL     1      46.748   6.068  12.184  0.00  0.00    +0.000 A 
ATOM      6  C   UNL     1      46.221   5.028  12.952  0.00  0.00    +0.000 A 
ATOM      7  C   UNL     1      46.854   4.785  14.176  0.00  0.00    +0.000 A 
ATOM      8  N   UNL     1      47.887   5.503  14.688  0.00  0.00    +0.000 NA
BRANCH   3  10
ATOM      9  N   UNL     1      50.491   7.598  13.586  0.00  0.00    +0.000 N 
ATOM     10  C   UNL     1      49.470   7.340  14.460  0.00  0.00    +0.000 C 
ATOM     11  O   UNL     1      49.492   7.751  15.614  0.00  0.00    +0.000 OA
ATOM     12  H   UNL     1      51.281   8.148  13.890  0.00  0.00    +0.000 HD
ATOM     13  H   UNL     1      50.435   7.252  12.635  0.00  0.00    +0.000 HD
ENDBRANCH   3  10
ENDBRANCH   1   6
BRANCH   1  14
ATOM     14  C   UNL     1      44.388   4.503  11.283  0.00  0.00    +0.000 C 
ATOM     15  C   UNL     1      43.541   5.765  11.271  0.00  0.00    +0.000 C 
ATOM     16  C   UNL     1      42.867   4.439  11.379  0.00  0.00    +0.000 C 
BRANCH  14  17
ATOM     17  C   UNL     1      44.959   3.898   9.997  0.00  0.00    +0.000 A 
ATOM     18  C   UNL     1      45.517   4.725   8.999  0.00  0.00    +0.000 A 
ATOM     19  C   UNL     1      46.092   4.202   7.836  0.00  0.00    +0.000 A 
ATOM     20  C   UNL     1      46.130   2.826   7.644  0.00  0.00    +0.000 A 
ATOM     21  C   UNL     1      45.578   1.994   8.607  0.00  0.00    +0.000 A 
ATOM     22  F   UNL     1      45.616   0.667   8.432  0.00  0.00    +0.000 F 
ATOM     23  C   UNL     1      44.992   2.512   9.759  0.00  0.00    +0.000 A 
ENDBRANCH  14  17
ENDBRANCH   1  14
TORSDOF 4
ENDMDL
MODEL 5
REMARK VINA RESULT:    -6.357      3.733      6.382
REMARK INTER + INTRA:          -8.462
REMARK INTER:                  -8.392
REMARK INTRA:                  -0.071
REMARK UNBOUND:                -0.618
REMARK  Name = 
REMARK  4 active torsions:
REMARK  status: ('A' for Active; 'I' for Inactive)
REMARK    1  A    between atoms: C_2  and  C_4
REMARK    2  A    between atoms: C_7  and  N_8
REMARK    3  A    between atoms: N_8  and  C_9
REMARK    4  A    between atoms: C_9  and  C_10
REMARK                            x       y       z     vdW  Elec       q    Type
REMARK                         _______ _______ _______ _____ _____    ______ ____
ROOT
ATOM      1  N   UNL     1      45.373   4.800  12.249  0.00  0.00    +0.000 N 
ATOM      2  H   UNL     1      45.267   4.456  13.200  0.00  0.00    +0.000 HD
ENDROOT
BRANCH   1   6
ATOM      3  C   UNL     1      46.752   8.738  12.169  0.00  0.00    +0.000 A 
ATOM      4  C   UNL     1      47.685   7.723  12.012  0.00  0.00    +0.000 A 
ATOM      5  C   UNL     1      47.238   6.401  12.032  0.00  0.00    +0.000 A 
ATOM      6  C   UNL     1      45.881   6.115  12.188  0.00  0.00    +0.000 A 
ATOM      7  C   UNL     1      45.037   7.216  12.372  0.00  0.00    +0.000 A 
ATOM      8  N   UNL     1      45.423   8.518  12.358  0.00  0.00    +0.000 NA
BRANCH   3  10
ATOM      9  N   UNL     1      46.234  11.096  12.418  0.00  0.00    +0.000 N 
ATOM     10  C   UNL     1      47.200  10.169  12.138  0.00  0.00    +0.000 C 
ATOM     11  O   UNL     1      48.352  10.497  11.879  0.00  0.00    +0.000 OA
ATOM     12  H   UNL     1      46.470  12.077  12.421  0.00  0.00    +0.000 HD
ATOM     13  H   UNL     1      45.293  10.788  12.639  0.00  0.00    +0.000 HD
ENDBRANCH   3  10
ENDBRANCH   1   6
BRANCH   1  14
ATOM     14  C   UNL     1      44.375   4.294  11.274  0.00  0.00    +0.000 C 
ATOM     15  C   UNL     1      42.964   4.855  11.340  0.00  0.00    +0.000 C 
ATOM     16  C   UNL     1      43.214   3.464  11.814  0.00  0.00    +0.000 C 
BRANCH  14  17
ATOM     17  C   UNL     1      44.974   3.758   9.971  0.00  0.00    +0.000 A 
ATOM     18  C   UNL     1      45.460   4.643   8.985  0.00  0.00    +0.000 A 
ATOM     19  C   UNL     1      46.058   4.186   7.806  0.00  0.00    +0.000 A 
ATOM     20  C   UNL     1      46.195   2.821   7.585  0.00  0.00    +0.000 A 
ATOM     21  C   UNL     1      45.715   1.932   8.536  0.00  0.00    +0.000 A 
ATOM     22  F   UNL     1      45.849   0.615   8.334  0.00  0.00    +0.000 F 
ATOM     23  C   UNL     1      45.105   2.383   9.704  0.00  0.00    +0.000 A 
ENDBRANCH  14  17
ENDBRANCH   1  14
TORSDOF 4
ENDMDL
MODEL 6
REMARK VINA RESULT:    -6.263      4.206      6.397
REMARK INTER + INTRA:          -8.346
REMARK INTER:                  -8.633
REMARK INTRA:                   0.287
REMARK UNBOUND:                -0.618
REMARK  Name = 
REMARK  4 active torsions:
REMARK  status: ('A' for Active; 'I' for Inactive)
REMARK    1  A    between atoms: C_2  and  C_4
REMARK    2  A    between atoms: C_7  and  N_8
REMARK    3  A    between atoms: N_8  and  C_9
REMARK    4  A    between atoms: C_9  and  C_10
REMARK                            x       y       z     vdW  Elec       q    Type
REMARK                         _______ _______ _______ _____ _____    ______ ____
ROOT
ATOM      1  N   UNL     1      46.780   5.969  12.146  0.00  0.00    +0.000 N 
ATOM      2  H   UNL     1      47.555   5.963  11.488  0.00  0.00    +0.000 HD
ENDROOT
BRANCH   1   6
ATOM      3  C   UNL     1      47.698   3.890  15.646  0.00  0.00    +0.000 A 
ATOM      4  C   UNL     1      47.874   5.266  15.646  0.00  0.00    +0.000 A 
ATOM      5  C   UNL     1      47.567   5.976  14.484  0.00  0.00    +0.000 A 
ATOM      6  C   UNL     1      47.077   5.313  13.358  0.00  0.00    +0.000 A 
ATOM      7  C   UNL     1      46.973   3.920  13.461  0.00  0.00    +0.000 A 
ATOM      8  N   UNL     1      47.256   3.187  14.568  0.00  0.00    +0.000 NA
BRANCH   3  10
ATOM      9  N   UNL     1      46.930   2.799  17.673  0.00  0.00    +0.000 N 
ATOM     10  C   UNL     1      48.006   3.102  16.884  0.00  0.00    +0.000 C 
ATOM     11  O   UNL     1      49.141   2.748  17.179  0.00  0.00    +0.000 OA
ATOM     12  H   UNL     1      47.067   2.264  18.518  0.00  0.00    +0.000 HD
ATOM     13  H   UNL     1      46.003   3.098  17.393  0.00  0.00    +0.000 HD
ENDBRANCH   3  10
ENDBRANCH   1   6
BRANCH   1  14
ATOM     14  C   UNL     1      45.427   5.926  11.536  0.00  0.00    +0.000 C 
ATOM     15  C   UNL     1      44.628   7.219  11.478  0.00  0.00    +0.000 C 
ATOM     16  C   UNL     1      44.229   6.162  12.452  0.00  0.00    +0.000 C 
BRANCH  14  17
ATOM     17  C   UNL     1      45.223   4.801  10.518  0.00  0.00    +0.000 A 
ATOM     18  C   UNL     1      44.516   3.632  10.870  0.00  0.00    +0.000 A 
ATOM     19  C   UNL     1      44.269   2.608   9.950  0.00  0.00    +0.000 A 
ATOM     20  C   UNL     1      44.720   2.731   8.641  0.00  0.00    +0.000 A 
ATOM     21  C   UNL     1      45.427   3.868   8.276  0.00  0.00    +0.000 A 
ATOM     22  F   UNL     1      45.859   3.997   7.015  0.00  0.00    +0.000 F 
ATOM     23  C   UNL     1      45.687   4.882   9.193  0.00  0.00    +0.000 A 
ENDBRANCH  14  17
ENDBRANCH   1  14
TORSDOF 4
ENDMDL
MODEL 7
REMARK VINA RESULT:    -5.846      4.249      6.491
REMARK INTER + INTRA:          -7.832
REMARK INTER:                  -8.052
REMARK INTRA:                   0.220
REMARK UNBOUND:                -0.618
REMARK  Name = 
REMARK  4 active torsions:
REMARK  status: ('A' for Active; 'I' for Inactive)
REMARK    1  A    between atoms: C_2  and  C_4
REMARK    2  A    between atoms: C_7  and  N_8
REMARK    3  A    between atoms: N_8  and  C_9
REMARK    4  A    between atoms: C_9  and  C_10
REMARK                            x       y       z     vdW  Elec       q    Type
REMARK                         _______ _______ _______ _____ _____    ______ ____
ROOT
ATOM      1  N   UNL     1      47.120   6.100  12.242  0.00  0.00    +0.000 N 
ATOM      2  H   UNL     1      47.860   5.806  11.610  0.00  0.00    +0.000 HD
ENDROOT
BRANCH   1   6
ATOM      3  C   UNL     1      47.486   4.321  16.000  0.00  0.00    +0.000 A 
ATOM      4  C   UNL     1      48.038   5.582  15.825  0.00  0.00    +0.000 A 
ATOM      5  C   UNL     1      47.920   6.192  14.575  0.00  0.00    +0.000 A 
ATOM      6  C   UNL     1      47.245   5.550  13.535  0.00  0.00    +0.000 A 
ATOM      7  C   UNL     1      46.759   4.267  13.816  0.00  0.00    +0.000 A 
ATOM      8  N   UNL     1      46.847   3.634  15.014  0.00  0.00    +0.000 NA
BRANCH   3  10
ATOM      9  N   UNL     1      48.539   4.145  18.179  0.00  0.00    +0.000 N 
ATOM     10  C   UNL     1      47.585   3.646  17.335  0.00  0.00    +0.000 C 
ATOM     11  O   UNL     1      46.864   2.710  17.659  0.00  0.00    +0.000 OA
ATOM     12  H   UNL     1      48.653   3.741  19.097  0.00  0.00    +0.000 HD
ATOM     13  H   UNL     1      49.111   4.928  17.882  0.00  0.00    +0.000 HD
ENDBRANCH   3  10
ENDBRANCH   1   6
BRANCH   1  14
ATOM     14  C   UNL     1      45.799   6.337  11.609  0.00  0.00    +0.000 C 
ATOM     15  C   UNL     1      45.346   7.775  11.417  0.00  0.00    +0.000 C 
ATOM     16  C   UNL     1      44.698   6.945  12.473  0.00  0.00    +0.000 C 
BRANCH  14  17
ATOM     17  C   UNL     1      45.321   5.208  10.692  0.00  0.00    +0.000 A 
ATOM     18  C   UNL     1      45.659   5.203   9.322  0.00  0.00    +0.000 A 
ATOM     19  C   UNL     1      45.282   4.162   8.467  0.00  0.00    +0.000 A 
ATOM     20  C   UNL     1      44.557   3.086   8.967  0.00  0.00    +0.000 A 
ATOM     21  C   UNL     1      44.205   3.075  10.309  0.00  0.00    +0.000 A 
ATOM     22  F   UNL     1      43.513   2.039  10.800  0.00  0.00    +0.000 F 
ATOM     23  C   UNL     1      44.566   4.117  11.159  0.00  0.00    +0.000 A 
ENDBRANCH  14  17
ENDBRANCH   1  14
TORSDOF 4
ENDMDL
MODEL 8
REMARK VINA RESULT:    -5.824      5.156      7.317
REMARK INTER + INTRA:          -7.805
REMARK INTER:                  -7.634
REMARK INTRA:                  -0.171
REMARK UNBOUND:                -0.618
REMARK  Name = 
REMARK  4 active torsions:
REMARK  status: ('A' for Active; 'I' for Inactive)
REMARK    1  A    between atoms: C_2  and  C_4
REMARK    2  A    between atoms: C_7  and  N_8
REMARK    3  A    between atoms: N_8  and  C_9
REMARK    4  A    between atoms: C_9  and  C_10
REMARK                            x       y       z     vdW  Elec       q    Type
REMARK                         _______ _______ _______ _____ _____    ______ ____
ROOT
ATOM      1  N   UNL     1      46.419   4.749  15.264  0.00  0.00    +0.000 N 
ATOM      2  H   UNL     1      45.875   5.327  15.900  0.00  0.00    +0.000 HD
ENDROOT
BRANCH   1   6
ATOM      3  C   UNL     1      49.714   2.835  16.966  0.00  0.00    +0.000 A 
ATOM      4  C   UNL     1      49.455   4.142  17.352  0.00  0.00    +0.000 A 
ATOM      5  C   UNL     1      48.354   4.794  16.795  0.00  0.00    +0.000 A 
ATOM      6  C   UNL     1      47.526   4.134  15.885  0.00  0.00    +0.000 A 
ATOM      7  C   UNL     1      47.903   2.830  15.544  0.00  0.00    +0.000 A 
ATOM      8  N   UNL     1      48.961   2.153  16.060  0.00  0.00    +0.000 NA
BRANCH   3  10
ATOM      9  N   UNL     1      51.679   2.840  18.391  0.00  0.00    +0.000 N 
ATOM     10  C   UNL     1      50.881   2.103  17.558  0.00  0.00    +0.000 C 
ATOM     11  O   UNL     1      51.116   0.925  17.318  0.00  0.00    +0.000 OA
ATOM     12  H   UNL     1      52.478   2.406  18.829  0.00  0.00    +0.000 HD
ATOM     13  H   UNL     1      51.449   3.810  18.576  0.00  0.00    +0.000 HD
ENDBRANCH   3  10
ENDBRANCH   1   6
BRANCH   1  14
ATOM     14  C   UNL     1      46.463   5.217  13.856  0.00  0.00    +0.000 C 
ATOM     15  C   UNL     1      47.821   5.532  13.251  0.00  0.00    +0.000 C 
ATOM     16  C   UNL     1      46.905   6.655  13.601  0.00  0.00    +0.000 C 
BRANCH  14  17
ATOM     17  C   UNL     1      45.278   4.766  12.999  0.00  0.00    +0.000 A 
ATOM     18  C   UNL     1      45.309   3.528  12.323  0.00  0.00    +0.000 A 
ATOM     19  C   UNL     1      44.224   3.063  11.573  0.00  0.00    +0.000 A 
ATOM     20  C   UNL     1      43.067   3.828  11.484  0.00  0.00    +0.000 A 
ATOM     21  C   UNL     1      43.018   5.054  12.132  0.00  0.00    +0.000 A 
ATOM     22  F   UNL     1      41.904   5.794  12.057  0.00  0.00    +0.000 F 
ATOM     23  C   UNL     1      44.102   5.526  12.868  0.00  0.00    +0.000 A 
ENDBRANCH  14  17
ENDBRANCH   1  14
TORSDOF 4
ENDMDL
MODEL 9
REMARK VINA RESULT:    -5.588      2.748      4.450
REMARK INTER + INTRA:          -7.513
REMARK INTER:                  -7.670
REMARK INTRA:                   0.157
REMARK UNBOUND:                -0.618
REMARK  Name = 
REMARK  4 active torsions:
REMARK  status: ('A' for Active; 'I' for Inactive)
REMARK    1  A    between atoms: C_2  and  C_4
REMARK    2  A    between atoms: C_7  and  N_8
REMARK    3  A    between atoms: N_8  and  C_9
REMARK    4  A    between atoms: C_9  and  C_10
REMARK                            x       y       z     vdW  Elec       q    Type
REMARK                         _______ _______ _______ _____ _____    ______ ____
ROOT
ATOM      1  N   UNL     1      46.051   6.055  13.612  0.00  0.00    +0.000 N 
ATOM      2  H   UNL     1      45.395   5.914  14.375  0.00  0.00    +0.000 HD
ENDROOT
BRANCH   1   6
ATOM      3  C   UNL     1      44.974   3.785  10.279  0.00  0.00    +0.000 A 
ATOM      4  C   UNL     1      45.294   5.120  10.076  0.00  0.00    +0.000 A 
ATOM      5  C   UNL     1      45.660   5.891  11.181  0.00  0.00    +0.000 A 
ATOM      6  C   UNL     1      45.719   5.321  12.454  0.00  0.00    +0.000 A 
ATOM      7  C   UNL     1      45.343   3.976  12.544  0.00  0.00    +0.000 A 
ATOM      8  N   UNL     1      44.982   3.185  11.501  0.00  0.00    +0.000 NA
BRANCH   3  10
ATOM      9  N   UNL     1      44.212   3.603   7.982  0.00  0.00    +0.000 N 
ATOM     10  C   UNL     1      44.590   2.928   9.110  0.00  0.00    +0.000 C 
ATOM     11  O   UNL     1      44.610   1.704   9.152  0.00  0.00    +0.000 OA
ATOM     12  H   UNL     1      43.948   3.086   7.156  0.00  0.00    +0.000 HD
ATOM     13  H   UNL     1      44.218   4.618   7.979  0.00  0.00    +0.000 HD
ENDBRANCH   3  10
ENDBRANCH   1   6
BRANCH   1  14
ATOM     14  C   UNL     1      47.458   6.296  14.018  0.00  0.00    +0.000 C 
ATOM     15  C   UNL     1      48.123   7.584  13.560  0.00  0.00    +0.000 C 
ATOM     16  C   UNL     1      48.521   6.295  12.923  0.00  0.00    +0.000 C 
BRANCH  14  17
ATOM     17  C   UNL     1      47.882   5.577  15.301  0.00  0.00    +0.000 A 
ATOM     18  C   UNL     1      48.871   6.130  16.142  0.00  0.00    +0.000 A 
ATOM     19  C   UNL     1      49.246   5.525  17.346  0.00  0.00    +0.000 A 
ATOM     20  C   UNL     1      48.630   4.345  17.747  0.00  0.00    +0.000 A 
ATOM     21  C   UNL     1      47.662   3.778  16.930  0.00  0.00    +0.000 A 
ATOM     22  F   UNL     1      47.059   2.644  17.313  0.00  0.00    +0.000 F 
ATOM     23  C   UNL     1      47.298   4.370  15.724  0.00  0.00    +0.000 A 
ENDBRANCH  14  17
ENDBRANCH   1  14
TORSDOF 4
ENDMDL
