MODEL 1
REMARK VINA RESULT:    -8.318      0.000      0.000
REMARK INTER + INTRA:         -10.812
REMARK INTER:                 -10.263
REMARK INTRA:                  -0.549
REMARK UNBOUND:                -0.549
REMARK  Name = 
REMARK  4 active torsions:
REMARK  status: ('A' for Active; 'I' for Inactive)
REMARK    1  A    between atoms: C_2  and  C_4
REMARK    2  A    between atoms: C_7  and  C_8
REMARK    3  A    between atoms: C_8  and  C_9
REMARK    4  A    between atoms: C_9  and  C_10
REMARK                            x       y       z     vdW  Elec       q    Type
REMARK                         _______ _______ _______ _____ _____    ______ ____
ROOT
ATOM      1  C   UNL     1      46.350   2.307   7.841  0.00  0.00    +0.000 A 
ATOM      2  C   UNL     1      46.365   3.677   7.621  0.00  0.00    +0.000 A 
ATOM      3  C   UNL     1      45.522   4.481   8.389  0.00  0.00    +0.000 A 
ATOM      4  C   UNL     1      44.664   3.905   9.330  0.00  0.00    +0.000 A 
ATOM      5  C   UNL     1      44.725   2.514   9.463  0.00  0.00    +0.000 A 
ATOM      6  N   UNL     1      45.539   1.699   8.749  0.00  0.00    +0.000 NA
ENDROOT
BRANCH   1   8
ATOM      7  N   UNL     1      48.400   2.060   6.563  0.00  0.00    +0.000 N 
ATOM      8  C   UNL     1      47.303   1.429   7.089  0.00  0.00    +0.000 C 
ATOM      9  O   UNL     1      47.119   0.228   6.935  0.00  0.00    +0.000 OA
ATOM     10  H   UNL     1      49.064   1.532   6.016  0.00  0.00    +0.000 HD
ATOM     11  H   UNL     1      48.512   3.058   6.694  0.00  0.00    +0.000 HD
ENDBRANCH   1   8
BRANCH   4  12
ATOM     12  C   UNL     1      43.798   4.702  10.280  0.00  0.00    +0.000 C 
BRANCH  12  13
ATOM     13  C   UNL     1      44.175   4.611  11.757  0.00  0.00    +0.000 C 
ATOM     14  C   UNL     1      43.551   3.492  12.577  0.00  0.00    +0.000 C 
ATOM     15  C   UNL     1      43.063   4.891  12.770  0.00  0.00    +0.000 C 
BRANCH  13  16
ATOM     16  C   UNL     1      45.541   5.171  12.147  0.00  0.00    +0.000 A 
ATOM     17  C   UNL     1      46.069   6.319  11.537  0.00  0.00    +0.000 A 
ATOM     18  C   UNL     1      47.292   6.847  11.948  0.00  0.00    +0.000 A 
ATOM     19  C   UNL     1      47.977   6.203  12.962  0.00  0.00    +0.000 A 
ATOM     20  N   UNL     1      47.524   5.092  13.575  0.00  0.00    +0.000 NA
ATOM     21  C   UNL     1      46.331   4.613  13.155  0.00  0.00    +0.000 A 
ENDBRANCH  13  16
ENDBRANCH  12  13
ENDBRANCH   4  12
TORSDOF 4
ENDMDL
MODEL 2
REMARK VINA RESULT:    -6.685      1.831      2.142
REMARK INTER + INTRA:          -8.797
REMARK INTER:                  -8.460
REMARK INTRA:                  -0.337
REMARK UNBOUND:                -0.549
REMARK  Name = 
REMARK  4 active torsions:
REMARK  status: ('A' for Active; 'I' for Inactive)
REMARK    1  A    between atoms: C_2  and  C_4
REMARK    2  A    between atoms: C_7  and  C_8
REMARK    3  A    between atoms: C_8  and  C_9
REMARK    4  A    between atoms: C_9  and  C_10
REMARK                            x       y       z     vdW  Elec       q    Type
REMARK                         _______ _______ _______ _____ _____    ______ ____
ROOT
ATOM      1  C   UNL     1      45.937   2.271   8.217  0.00  0.00    +0.000 A 
ATOM      2  C   UNL     1      46.219   3.615   8.024  0.00  0.00    +0.000 A 
ATOM      3  C   UNL     1      45.457   4.558   8.714  0.00  0.00    +0.000 A 
ATOM      4  C   UNL     1      44.414   4.146   9.549  0.00  0.00    +0.000 A 
ATOM      5  C   UNL     1      44.212   2.767   9.662  0.00  0.00    +0.000 A 
ATOM      6  N   UNL     1      44.938   1.819   9.024  0.00  0.00    +0.000 NA
ENDROOT
BRANCH   1   8
ATOM      7  N   UNL     1      47.722   1.714   6.668  0.00  0.00    +0.000 N 
ATOM      8  C   UNL     1      46.793   1.235   7.554  0.00  0.00    +0.000 C 
ATOM      9  O   UNL     1      46.672   0.036   7.769  0.00  0.00    +0.000 OA
ATOM     10  H   UNL     1      48.309   1.067   6.161  0.00  0.00    +0.000 HD
ATOM     11  H   UNL     1      47.784   2.711   6.499  0.00  0.00    +0.000 HD
ENDBRANCH   1   8
BRANCH   4  12
ATOM     12  C   UNL     1      43.608   5.086  10.417  0.00  0.00    +0.000 C 
BRANCH  12  13
ATOM     13  C   UNL     1      44.292   5.559  11.697  0.00  0.00    +0.000 C 
ATOM     14  C   UNL     1      45.157   4.557  12.447  0.00  0.00    +0.000 C 
ATOM     15  C   UNL     1      43.820   4.921  13.005  0.00  0.00    +0.000 C 
BRANCH  13  16
ATOM     16  C   UNL     1      44.596   7.052  11.796  0.00  0.00    +0.000 A 
ATOM     17  C   UNL     1      43.952   7.992  10.977  0.00  0.00    +0.000 A 
ATOM     18  C   UNL     1      44.202   9.356  11.122  0.00  0.00    +0.000 A 
ATOM     19  C   UNL     1      45.110   9.757  12.085  0.00  0.00    +0.000 A 
ATOM     20  N   UNL     1      45.766   8.899  12.891  0.00  0.00    +0.000 NA
ATOM     21  C   UNL     1      45.492   7.585  12.726  0.00  0.00    +0.000 A 
ENDBRANCH  13  16
ENDBRANCH  12  13
ENDBRANCH   4  12
TORSDOF 4
ENDMDL
MODEL 3
REMARK VINA RESULT:    -6.316      3.095      6.017
REMARK INTER + INTRA:          -8.341
REMARK INTER:                  -8.027
REMARK INTRA:                  -0.315
REMARK UNBOUND:                -0.549
REMARK  Name = 
REMARK  4 active torsions:
REMARK  status: ('A' for Active; 'I' for Inactive)
REMARK    1  A    between atoms: C_2  and  C_4
REMARK    2  A    between atoms: C_7  and  C_8
REMARK    3  A    between atoms: C_8  and  C_9
REMARK    4  A    between atoms: C_9  and  C_10
REMARK                            x       y       z     vdW  Elec       q    Type
REMARK                         _______ _______ _______ _____ _____    ______ ____
ROOT
ATOM      1  C   UNL     1      48.587   6.897  13.371  0.00  0.00    +0.000 A 
ATOM      2  C   UNL     1      47.827   7.211  12.255  0.00  0.00    +0.000 A 
ATOM      3  C   UNL     1      46.677   6.461  12.004  0.00  0.00    +0.000 A 
ATOM      4  C   UNL     1      46.331   5.401  12.845  0.00  0.00    +0.000 A 
ATOM      5  C   UNL     1      47.174   5.166  13.936  0.00  0.00    +0.000 A 
ATOM      6  N   UNL     1      48.289   5.879  14.224  0.00  0.00    +0.000 NA
ENDROOT
BRANCH   1   8
ATOM      7  N   UNL     1      50.794   7.726  12.788  0.00  0.00    +0.000 N 
ATOM      8  C   UNL     1      49.781   7.737  13.711  0.00  0.00    +0.000 C 
ATOM      9  O   UNL     1      49.866   8.383  14.747  0.00  0.00    +0.000 OA
ATOM     10  H   UNL     1      51.641   8.245  12.971  0.00  0.00    +0.000 HD
ATOM     11  H   UNL     1      50.700   7.166  11.950  0.00  0.00    +0.000 HD
ENDBRANCH   1   8
BRANCH   4  12
ATOM     12  C   UNL     1      45.050   4.606  12.716  0.00  0.00    +0.000 C 
BRANCH  12  13
ATOM     13  C   UNL     1      44.273   4.806  11.416  0.00  0.00    +0.000 C 
ATOM     14  C   UNL     1      43.446   6.075  11.277  0.00  0.00    +0.000 C 
ATOM     15  C   UNL     1      42.747   4.777  11.516  0.00  0.00    +0.000 C 
BRANCH  13  16
ATOM     16  C   UNL     1      44.838   4.124  10.173  0.00  0.00    +0.000 A 
ATOM     17  C   UNL     1      44.823   2.729  10.025  0.00  0.00    +0.000 A 
ATOM     18  C   UNL     1      45.292   2.130   8.857  0.00  0.00    +0.000 A 
ATOM     19  C   UNL     1      45.783   2.944   7.853  0.00  0.00    +0.000 A 
ATOM     20  N   UNL     1      45.833   4.288   7.946  0.00  0.00    +0.000 NA
ATOM     21  C   UNL     1      45.363   4.834   9.090  0.00  0.00    +0.000 A 
ENDBRANCH  13  16
ENDBRANCH  12  13
ENDBRANCH   4  12
TORSDOF 4
ENDMDL
MODEL 4
REMARK VINA RESULT:    -5.938      3.222      6.316
REMARK INTER + INTRA:          -7.875
REMARK INTER:                  -8.228
REMARK INTRA:                   0.354
REMARK UNBOUND:                -0.549
REMARK  Name = 
REMARK  4 active torsions:
REMARK  status: ('A' for Active; 'I' for Inactive)
REMARK    1  A    between atoms: C_2  and  C_4
REMARK    2  A    between atoms: C_7  and  C_8
REMARK    3  A    between atoms: C_8  and  C_9
REMARK    4  A    between atoms: C_9  and  C_10
REMARK                            x       y       z     vdW  Elec       q    Type
REMARK                         _______ _______ _______ _____ _____    ______ ____
ROOT
ATOM      1  C   UNL     1      47.542   4.087  15.620  0.00  0.00    +0.000 A 
ATOM      2  C   UNL     1      47.891   5.429  15.591  0.00  0.00    +0.000 A 
ATOM      3  C   UNL     1      47.737   6.129  14.393  0.00  0.00    +0.000 A 
ATOM      4  C   UNL     1      47.275   5.472  13.249  0.00  0.00    +0.000 A 
ATOM      5  C   UNL     1      46.962   4.117  13.389  0.00  0.00    +0.000 A 
ATOM      6  N   UNL     1      47.081   3.405  14.536  0.00  0.00    +0.000 NA
ENDROOT
BRANCH   1   8
ATOM      7  N   UNL     1      48.881   3.108  17.393  0.00  0.00    +0.000 N 
ATOM      8  C   UNL     1      47.618   3.333  16.912  0.00  0.00    +0.000 C 
ATOM      9  O   UNL     1      46.626   2.926  17.503  0.00  0.00    +0.000 OA
ATOM     10  H   UNL     1      49.005   2.577  18.242  0.00  0.00    +0.000 HD
ATOM     11  H   UNL     1      49.681   3.443  16.869  0.00  0.00    +0.000 HD
ENDBRANCH   1   8
BRANCH   4  12
ATOM     12  C   UNL     1      46.976   6.169  11.941  0.00  0.00    +0.000 C 
BRANCH  12  13
ATOM     13  C   UNL     1      45.525   6.100  11.469  0.00  0.00    +0.000 C 
ATOM     14  C   UNL     1      44.733   7.399  11.429  0.00  0.00    +0.000 C 
ATOM     15  C   UNL     1      44.447   6.409  12.510  0.00  0.00    +0.000 C 
BRANCH  13  16
ATOM     16  C   UNL     1      45.173   4.963  10.513  0.00  0.00    +0.000 A 
ATOM     17  C   UNL     1      45.666   4.924   9.200  0.00  0.00    +0.000 A 
ATOM     18  C   UNL     1      45.379   3.847   8.362  0.00  0.00    +0.000 A 
ATOM     19  C   UNL     1      44.587   2.826   8.854  0.00  0.00    +0.000 A 
ATOM     20  N   UNL     1      44.077   2.817  10.101  0.00  0.00    +0.000 NA
ATOM     21  C   UNL     1      44.382   3.874  10.887  0.00  0.00    +0.000 A 
ENDBRANCH  13  16
ENDBRANCH  12  13
ENDBRANCH   4  12
TORSDOF 4
ENDMDL
MODEL 5
REMARK VINA RESULT:    -5.589      2.619      4.160
REMARK INTER + INTRA:          -7.445
REMARK INTER:                  -7.093
REMARK INTRA:                  -0.352
REMARK UNBOUND:                -0.549
REMARK  Name = 
REMARK  4 active torsions:
REMARK  status: ('A' for Active; 'I' for Inactive)
REMARK    1  A    between atoms: C_2  and  C_4
REMARK    2  A    between atoms: C_7  and  C_8
REMARK    3  A    between atoms: C_8  and  C_9
REMARK    4  A    between atoms: C_9  and  C_10
REMARK                            x       y       z     vdW  Elec       q    Type
REMARK                         _______ _______ _______ _____ _____    ______ ____
ROOT
ATOM      1  C   UNL     1      44.957   3.705  10.028  0.00  0.00    +0.000 A 
ATOM      2  C   UNL     1      45.324   5.011   9.737  0.00  0.00    +0.000 A 
ATOM      3  C   UNL     1      45.656   5.858  10.795  0.00  0.00    +0.000 A 
ATOM      4  C   UNL     1      45.581   5.399  12.113  0.00  0.00    +0.000 A 
ATOM      5  C   UNL     1      45.190   4.069  12.292  0.00  0.00    +0.000 A 
ATOM      6  N   UNL     1      44.876   3.209  11.293  0.00  0.00    +0.000 NA
ENDROOT
BRANCH   1   8
ATOM      7  N   UNL     1      44.361   3.327   7.704  0.00  0.00    +0.000 N 
ATOM      8  C   UNL     1      44.676   2.751   8.907  0.00  0.00    +0.000 C 
ATOM      9  O   UNL     1      44.708   1.535   9.046  0.00  0.00    +0.000 OA
ATOM     10  H   UNL     1      44.128   2.741   6.916  0.00  0.00    +0.000 HD
ATOM     11  H   UNL     1      44.326   4.336   7.628  0.00  0.00    +0.000 HD
ENDBRANCH   1   8
BRANCH   4  12
ATOM     12  C   UNL     1      46.023   6.208  13.313  0.00  0.00    +0.000 C 
BRANCH  12  13
ATOM     13  C   UNL     1      47.119   7.239  13.051  0.00  0.00    +0.000 C 
ATOM     14  C   UNL     1      48.491   6.724  12.645  0.00  0.00    +0.000 C 
ATOM     15  C   UNL     1      48.297   7.254  14.027  0.00  0.00    +0.000 C 
BRANCH  13  16
ATOM     16  C   UNL     1      46.657   8.621  12.596  0.00  0.00    +0.000 A 
ATOM     17  C   UNL     1      47.542   9.539  12.012  0.00  0.00    +0.000 A 
ATOM     18  C   UNL     1      47.088  10.774  11.550  0.00  0.00    +0.000 A 
ATOM     19  C   UNL     1      45.747  11.076  11.694  0.00  0.00    +0.000 A 
ATOM     20  N   UNL     1      44.854  10.237  12.258  0.00  0.00    +0.000 NA
ATOM     21  C   UNL     1      45.329   9.046  12.687  0.00  0.00    +0.000 A 
ENDBRANCH  13  16
ENDBRANCH  12  13
ENDBRANCH   4  12
TORSDOF 4
ENDMDL
MODEL 6
REMARK VINA RESULT:    -5.442      3.167      6.080
REMARK INTER + INTRA:          -7.263
REMARK INTER:                  -7.733
REMARK INTRA:                   0.470
REMARK UNBOUND:                -0.549
REMARK  Name = 
REMARK  4 active torsions:
REMARK  status: ('A' for Active; 'I' for Inactive)
REMARK    1  A    between atoms: C_2  and  C_4
REMARK    2  A    between atoms: C_7  and  C_8
REMARK    3  A    between atoms: C_8  and  C_9
REMARK    4  A    between atoms: C_9  and  C_10
REMARK                            x       y       z     vdW  Elec       q    Type
REMARK                         _______ _______ _______ _____ _____    ______ ____
ROOT
ATOM      1  C   UNL     1      46.551   7.987  12.642  0.00  0.00    +0.000 A 
ATOM      2  C   UNL     1      46.658   6.674  13.077  0.00  0.00    +0.000 A 
ATOM      3  C   UNL     1      45.696   5.755  12.653  0.00  0.00    +0.000 A 
ATOM      4  C   UNL     1      44.637   6.169  11.841  0.00  0.00    +0.000 A 
ATOM      5  C   UNL     1      44.622   7.518  11.471  0.00  0.00    +0.000 A 
ATOM      6  N   UNL     1      45.544   8.438  11.846  0.00  0.00    +0.000 NA
ENDROOT
BRANCH   1   8
ATOM      7  N   UNL     1      47.195  10.272  13.152  0.00  0.00    +0.000 N 
ATOM      8  C   UNL     1      47.615   8.975  13.013  0.00  0.00    +0.000 C 
ATOM      9  O   UNL     1      48.788   8.661  13.170  0.00  0.00    +0.000 OA
ATOM     10  H   UNL     1      47.867  10.994  13.368  0.00  0.00    +0.000 HD
ATOM     11  H   UNL     1      46.220  10.501  12.998  0.00  0.00    +0.000 HD
ENDBRANCH   1   8
BRANCH   4  12
ATOM     12  C   UNL     1      43.613   5.228  11.247  0.00  0.00    +0.000 C 
BRANCH  12  13
ATOM     13  C   UNL     1      44.102   3.809  10.962  0.00  0.00    +0.000 C 
ATOM     14  C   UNL     1      43.266   2.655  11.494  0.00  0.00    +0.000 C 
ATOM     15  C   UNL     1      44.558   2.984  12.166  0.00  0.00    +0.000 C 
BRANCH  13  16
ATOM     16  C   UNL     1      44.951   3.621   9.707  0.00  0.00    +0.000 A 
ATOM     17  C   UNL     1      45.257   2.346   9.208  0.00  0.00    +0.000 A 
ATOM     18  C   UNL     1      45.986   2.198   8.029  0.00  0.00    +0.000 A 
ATOM     19  C   UNL     1      46.410   3.338   7.371  0.00  0.00    +0.000 A 
ATOM     20  N   UNL     1      46.156   4.586   7.811  0.00  0.00    +0.000 NA
ATOM     21  C   UNL     1      45.440   4.691   8.954  0.00  0.00    +0.000 A 
ENDBRANCH  13  16
ENDBRANCH  12  13
ENDBRANCH   4  12
TORSDOF 4
ENDMDL
MODEL 7
REMARK VINA RESULT:    -5.319      3.017      4.869
REMARK INTER + INTRA:          -7.111
REMARK INTER:                  -7.124
REMARK INTRA:                   0.012
REMARK UNBOUND:                -0.549
REMARK  Name = 
REMARK  4 active torsions:
REMARK  status: ('A' for Active; 'I' for Inactive)
REMARK    1  A    between atoms: C_2  and  C_4
REMARK    2  A    between atoms: C_7  and  C_8
REMARK    3  A    between atoms: C_8  and  C_9
REMARK    4  A    between atoms: C_9  and  C_10
REMARK                            x       y       z     vdW  Elec       q    Type
REMARK                         _______ _______ _______ _____ _____    ______ ____
ROOT
ATOM      1  C   UNL     1      44.565   4.163  11.413  0.00  0.00    +0.000 A 
ATOM      2  C   UNL     1      44.452   4.615  12.719  0.00  0.00    +0.000 A 
ATOM      3  C   UNL     1      44.991   5.863  13.038  0.00  0.00    +0.000 A 
ATOM      4  C   UNL     1      45.656   6.611  12.063  0.00  0.00    +0.000 A 
ATOM      5  C   UNL     1      45.720   6.055  10.782  0.00  0.00    +0.000 A 
ATOM      6  N   UNL     1      45.196   4.857  10.427  0.00  0.00    +0.000 NA
ENDROOT
BRANCH   1   8
ATOM      7  N   UNL     1      44.486   2.227   9.949  0.00  0.00    +0.000 N 
ATOM      8  C   UNL     1      43.923   2.866  11.023  0.00  0.00    +0.000 C 
ATOM      9  O   UNL     1      42.952   2.403  11.607  0.00  0.00    +0.000 OA
ATOM     10  H   UNL     1      44.081   1.365   9.614  0.00  0.00    +0.000 HD
ATOM     11  H   UNL     1      45.278   2.646   9.477  0.00  0.00    +0.000 HD
ENDBRANCH   1   8
BRANCH   4  12
ATOM     12  C   UNL     1      46.175   8.014  12.287  0.00  0.00    +0.000 C 
BRANCH  12  13
ATOM     13  C   UNL     1      47.669   8.131  12.579  0.00  0.00    +0.000 C 
ATOM     14  C   UNL     1      48.458   9.184  11.814  0.00  0.00    +0.000 C 
ATOM     15  C   UNL     1      48.624   7.746  11.447  0.00  0.00    +0.000 C 
BRANCH  13  16
ATOM     16  C   UNL     1      48.128   7.695  13.968  0.00  0.00    +0.000 A 
ATOM     17  C   UNL     1      48.379   8.625  14.988  0.00  0.00    +0.000 A 
ATOM     18  C   UNL     1      48.741   8.202  16.267  0.00  0.00    +0.000 A 
ATOM     19  C   UNL     1      48.859   6.844  16.500  0.00  0.00    +0.000 A 
ATOM     20  N   UNL     1      48.642   5.907  15.555  0.00  0.00    +0.000 NA
ATOM     21  C   UNL     1      48.285   6.354  14.330  0.00  0.00    +0.000 A 
ENDBRANCH  13  16
ENDBRANCH  12  13
ENDBRANCH   4  12
TORSDOF 4
ENDMDL
