MODEL 1
REMARK VINA RESULT:    -8.498      0.000      0.000
REMARK INTER + INTRA:         -12.799
REMARK INTER:                 -11.727
REMARK INTRA:                  -1.072
REMARK UNBOUND:                -1.072
REMARK  Name = 
REMARK  7 active torsions:
REMARK  status: ('A' for Active; 'I' for Inactive)
REMARK    1  A    between atoms: N_1  and  C_2
REMARK    2  A    between atoms: C_2  and  N_3
REMARK    3  A    between atoms: C_2  and  C_26
REMARK    4  A    between atoms: C_4  and  C_6
REMARK    5  A    between atoms: C_9  and  C_10
REMARK    6  A    between atoms: C_10  and  N_11
REMARK    7  A    between atoms: C_12  and  C_14
REMARK                            x       y       z     vdW  Elec       q    Type
REMARK                         _______ _______ _______ _____ _____    ______ ____
ROOT
ATOM      1  C   UNL     1      45.275   6.216  11.585  0.00  0.00    +0.000 A 
ATOM      2  C   UNL     1      44.797   7.507  11.784  0.00  0.00    +0.000 A 
ATOM      3  C   UNL     1      45.538   8.378  12.579  0.00  0.00    +0.000 A 
ATOM      4  C   UNL     1      46.740   7.942  13.144  0.00  0.00    +0.000 A 
ATOM      5  C   UNL     1      47.126   6.625  12.897  0.00  0.00    +0.000 A 
ATOM      6  N   UNL     1      46.431   5.751  12.131  0.00  0.00    +0.000 NA
ENDROOT
BRANCH   1   8
ATOM      7  N   UNL     1      45.189   4.275  10.112  0.00  0.00    +0.000 N 
ATOM      8  C   UNL     1      44.472   5.249  10.771  0.00  0.00    +0.000 C 
ATOM      9  O   UNL     1      43.245   5.308  10.750  0.00  0.00    +0.000 OA
ATOM     10  H   UNL     1      46.204   4.355  10.088  0.00  0.00    +0.000 HD
BRANCH   7  11
ATOM     11  C   UNL     1      44.592   3.298   9.245  0.00  0.00    +0.000 C 
BRANCH  11  12
ATOM     12  C   UNL     1      45.595   2.659   8.280  0.00  0.00    +0.000 A 
ATOM     13  C   UNL     1      46.002   3.377   7.152  0.00  0.00    +0.000 A 
ATOM     14  C   UNL     1      46.829   2.765   6.214  0.00  0.00    +0.000 A 
ATOM     15  C   UNL     1      47.241   1.457   6.429  0.00  0.00    +0.000 A 
ATOM     16  C   UNL     1      46.813   0.816   7.581  0.00  0.00    +0.000 A 
ATOM     17  N   UNL     1      46.003   1.377   8.508  0.00  0.00    +0.000 NA
ENDBRANCH  11  12
BRANCH  11  18
ATOM     18  N   UNL     1      44.045   2.298  10.153  0.00  0.00    +0.000 NA
ATOM     19  H   UNL     1      44.677   2.293  10.956  0.00  0.00    +0.000 HD
ATOM     20  H   UNL     1      44.198   1.403   9.693  0.00  0.00    +0.000 HD
ENDBRANCH  11  18
ENDBRANCH   7  11
ENDBRANCH   1   8
BRANCH   4  21
ATOM     21  C   UNL     1      47.571   8.837  14.018  0.00  0.00    +0.000 C 
BRANCH  21  22
ATOM     22  N   UNL     1      47.840   8.227  15.296  0.00  0.00    +0.000 N 
ATOM     23  C   UNL     1      49.053   7.640  15.560  0.00  0.00    +0.000 C 
ATOM     24  O   UNL     1      49.972   7.662  14.746  0.00  0.00    +0.000 OA
ATOM     25  H   UNL     1      47.046   8.002  15.887  0.00  0.00    +0.000 HD
BRANCH  23  26
ATOM     26  C   UNL     1      49.218   7.035  16.889  0.00  0.00    +0.000 A 
ATOM     27  C   UNL     1      49.799   7.772  17.911  0.00  0.00    +0.000 A 
ATOM     28  S   UNL     1      49.864   6.944  19.401  0.00  0.00    +0.000 S 
ATOM     29  C   UNL     1      49.169   5.549  18.718  0.00  0.00    +0.000 A 
ATOM     30  N   UNL     1      48.964   4.431  19.465  0.00  0.00    +0.000 NA
ATOM     31  C   UNL     1      48.468   3.433  18.811  0.00  0.00    +0.000 A 
ATOM     32  N   UNL     1      48.152   3.458  17.476  0.00  0.00    +0.000 N 
ATOM     33  C   UNL     1      48.307   4.574  16.691  0.00  0.00    +0.000 A 
ATOM     34  O   UNL     1      47.968   4.582  15.513  0.00  0.00    +0.000 OA
ATOM     35  C   UNL     1      48.878   5.720  17.375  0.00  0.00    +0.000 A 
ATOM     36  H   UNL     1      47.757   2.644  17.026  0.00  0.00    +0.000 HD
ENDBRANCH  23  26
ENDBRANCH  21  22
ENDBRANCH   4  21
TORSDOF 7
ENDMDL
MODEL 2
REMARK VINA RESULT:    -8.022      1.963      2.176
REMARK INTER + INTRA:         -12.142
REMARK INTER:                 -11.091
REMARK INTRA:                  -1.052
REMARK UNBOUND:                -1.072
REMARK  Name = 
REMARK  7 active torsions:
REMARK  status: ('A' for Active; 'I' for Inactive)
REMARK    1  A    between atoms: N_1  and  C_2
REMARK    2  A    between atoms: C_2  and  N_3
REMARK    3  A    between atoms: C_2  and  C_26
REMARK    4  A    between atoms: C_4  and  C_6
REMARK    5  A    between atoms: C_9  and  C_10
REMARK    6  A    between atoms: C_10  and  N_11
REMARK    7  A    between atoms: C_12  and  C_14
REMARK                            x       y       z     vdW  Elec       q    Type
REMARK                         _______ _______ _______ _____ _____    ______ ____
ROOT
ATOM      1  C   UNL     1      45.812   5.691  12.206  0.00  0.00    +0.000 A 
ATOM      2  C   UNL     1      46.407   4.897  13.180  0.00  0.00    +0.000 A 
ATOM      3  C   UNL     1      47.279   5.496  14.087  0.00  0.00    +0.000 A 
ATOM      4  C   UNL     1      47.523   6.869  14.005  0.00  0.00    +0.000 A 
ATOM      5  C   UNL     1      46.889   7.575  12.983  0.00  0.00    +0.000 A 
ATOM      6  N   UNL     1      46.037   7.027  12.085  0.00  0.00    +0.000 NA
ENDROOT
BRANCH   1   8
ATOM      7  N   UNL     1      45.417   3.971  10.523  0.00  0.00    +0.000 N 
ATOM      8  C   UNL     1      44.906   5.061  11.193  0.00  0.00    +0.000 C 
ATOM      9  O   UNL     1      43.761   5.475  11.026  0.00  0.00    +0.000 OA
ATOM     10  H   UNL     1      46.405   3.755  10.635  0.00  0.00    +0.000 HD
BRANCH   7  11
ATOM     11  C   UNL     1      44.712   3.276   9.483  0.00  0.00    +0.000 C 
BRANCH  11  12
ATOM     12  C   UNL     1      45.638   2.723   8.395  0.00  0.00    +0.000 A 
ATOM     13  C   UNL     1      45.958   3.534   7.302  0.00  0.00    +0.000 A 
ATOM     14  C   UNL     1      46.711   3.005   6.257  0.00  0.00    +0.000 A 
ATOM     15  C   UNL     1      47.138   1.686   6.333  0.00  0.00    +0.000 A 
ATOM     16  C   UNL     1      46.799   0.951   7.458  0.00  0.00    +0.000 A 
ATOM     17  N   UNL     1      46.062   1.430   8.486  0.00  0.00    +0.000 NA
ENDBRANCH  11  12
BRANCH  11  18
ATOM     18  N   UNL     1      44.029   2.191  10.175  0.00  0.00    +0.000 NA
ATOM     19  H   UNL     1      43.904   2.522  11.134  0.00  0.00    +0.000 HD
ATOM     20  H   UNL     1      44.713   1.441  10.243  0.00  0.00    +0.000 HD
ENDBRANCH  11  18
ENDBRANCH   7  11
ENDBRANCH   1   8
BRANCH   4  21
ATOM     21  C   UNL     1      48.463   7.562  14.950  0.00  0.00    +0.000 C 
BRANCH  21  22
ATOM     22  N   UNL     1      49.468   6.660  15.453  0.00  0.00    +0.000 N 
ATOM     23  C   UNL     1      49.569   6.388  16.795  0.00  0.00    +0.000 C 
ATOM     24  O   UNL     1      48.775   6.853  17.610  0.00  0.00    +0.000 OA
ATOM     25  H   UNL     1      50.254   6.446  14.848  0.00  0.00    +0.000 HD
BRANCH  23  26
ATOM     26  C   UNL     1      50.637   5.465  17.203  0.00  0.00    +0.000 A 
ATOM     27  C   UNL     1      51.864   5.971  17.606  0.00  0.00    +0.000 A 
ATOM     28  S   UNL     1      52.971   4.770  18.099  0.00  0.00    +0.000 S 
ATOM     29  C   UNL     1      51.868   3.527  17.737  0.00  0.00    +0.000 A 
ATOM     30  N   UNL     1      52.203   2.221  17.911  0.00  0.00    +0.000 NA
ATOM     31  C   UNL     1      51.286   1.381  17.559  0.00  0.00    +0.000 A 
ATOM     32  N   UNL     1      50.060   1.733  17.054  0.00  0.00    +0.000 N 
ATOM     33  C   UNL     1      49.664   3.039  16.895  0.00  0.00    +0.000 A 
ATOM     34  O   UNL     1      48.543   3.324  16.489  0.00  0.00    +0.000 OA
ATOM     35  C   UNL     1      50.666   4.023  17.261  0.00  0.00    +0.000 A 
ATOM     36  H   UNL     1      49.383   1.026  16.806  0.00  0.00    +0.000 HD
ENDBRANCH  23  26
ENDBRANCH  21  22
ENDBRANCH   4  21
TORSDOF 7
ENDMDL
MODEL 3
REMARK VINA RESULT:    -7.722      1.731      2.285
REMARK INTER + INTRA:         -11.729
REMARK INTER:                 -10.544
REMARK INTRA:                  -1.185
REMARK UNBOUND:                -1.072
REMARK  Name = 
REMARK  7 active torsions:
REMARK  status: ('A' for Active; 'I' for Inactive)
REMARK    1  A    between atoms: N_1  and  C_2
REMARK    2  A    between atoms: C_2  and  N_3
REMARK    3  A    between atoms: C_2  and  C_26
REMARK    4  A    between atoms: C_4  and  C_6
REMARK    5  A    between atoms: C_9  and  C_10
REMARK    6  A    between atoms: C_10  and  N_11
REMARK    7  A    between atoms: C_12  and  C_14
REMARK                            x       y       z     vdW  Elec       q    Type
REMARK                         _______ _______ _______ _____ _____    ______ ____
ROOT
ATOM      1  C   UNL     1      45.408   6.264  11.693  0.00  0.00    +0.000 A 
ATOM      2  C   UNL     1      44.887   7.502  12.053  0.00  0.00    +0.000 A 
ATOM      3  C   UNL     1      45.663   8.348  12.843  0.00  0.00    +0.000 A 
ATOM      4  C   UNL     1      46.939   7.940  13.243  0.00  0.00    +0.000 A 
ATOM      5  C   UNL     1      47.363   6.674  12.843  0.00  0.00    +0.000 A 
ATOM      6  N   UNL     1      46.637   5.826  12.076  0.00  0.00    +0.000 NA
ENDROOT
BRANCH   1   8
ATOM      7  N   UNL     1      45.265   4.365  10.170  0.00  0.00    +0.000 N 
ATOM      8  C   UNL     1      44.574   5.321  10.881  0.00  0.00    +0.000 C 
ATOM      9  O   UNL     1      43.347   5.381  10.907  0.00  0.00    +0.000 OA
ATOM     10  H   UNL     1      46.278   4.446  10.111  0.00  0.00    +0.000 HD
BRANCH   7  11
ATOM     11  C   UNL     1      44.635   3.415   9.297  0.00  0.00    +0.000 C 
BRANCH  11  12
ATOM     12  C   UNL     1      45.621   2.721   8.352  0.00  0.00    +0.000 A 
ATOM     13  C   UNL     1      46.092   3.418   7.235  0.00  0.00    +0.000 A 
ATOM     14  C   UNL     1      46.903   2.761   6.313  0.00  0.00    +0.000 A 
ATOM     15  C   UNL     1      47.237   1.432   6.534  0.00  0.00    +0.000 A 
ATOM     16  C   UNL     1      46.749   0.814   7.675  0.00  0.00    +0.000 A 
ATOM     17  N   UNL     1      45.952   1.419   8.585  0.00  0.00    +0.000 NA
ENDBRANCH  11  12
BRANCH  11  18
ATOM     18  N   UNL     1      44.025   2.447  10.200  0.00  0.00    +0.000 NA
ATOM     19  H   UNL     1      43.029   2.674  10.201  0.00  0.00    +0.000 HD
ATOM     20  H   UNL     1      44.353   2.701  11.130  0.00  0.00    +0.000 HD
ENDBRANCH  11  18
ENDBRANCH   7  11
ENDBRANCH   1   8
BRANCH   4  21
ATOM     21  C   UNL     1      47.810   8.808  14.105  0.00  0.00    +0.000 C 
BRANCH  21  22
ATOM     22  N   UNL     1      47.929   8.279  15.440  0.00  0.00    +0.000 N 
ATOM     23  C   UNL     1      49.158   8.105  16.026  0.00  0.00    +0.000 C 
ATOM     24  O   UNL     1      50.197   8.445  15.464  0.00  0.00    +0.000 OA
ATOM     25  H   UNL     1      47.127   7.793  15.827  0.00  0.00    +0.000 HD
BRANCH  23  26
ATOM     26  C   UNL     1      49.168   7.545  17.385  0.00  0.00    +0.000 A 
ATOM     27  C   UNL     1      49.856   6.367  17.637  0.00  0.00    +0.000 A 
ATOM     28  S   UNL     1      49.814   5.886  19.274  0.00  0.00    +0.000 S 
ATOM     29  C   UNL     1      48.825   7.206  19.692  0.00  0.00    +0.000 A 
ATOM     30  N   UNL     1      48.392   7.378  20.969  0.00  0.00    +0.000 NA
ATOM     31  C   UNL     1      47.615   8.397  21.139  0.00  0.00    +0.000 A 
ATOM     32  N   UNL     1      47.240   9.264  20.143  0.00  0.00    +0.000 N 
ATOM     33  C   UNL     1      47.682   9.151  18.848  0.00  0.00    +0.000 A 
ATOM     34  O   UNL     1      47.370   9.970  17.990  0.00  0.00    +0.000 OA
ATOM     35  C   UNL     1      48.545   8.010  18.600  0.00  0.00    +0.000 A 
ATOM     36  H   UNL     1      46.637  10.049  20.344  0.00  0.00    +0.000 HD
ENDBRANCH  23  26
ENDBRANCH  21  22
ENDBRANCH   4  21
TORSDOF 7
ENDMDL
MODEL 4
REMARK VINA RESULT:    -7.629      3.589      4.790
REMARK INTER + INTRA:         -11.600
REMARK INTER:                 -10.219
REMARK INTRA:                  -1.382
REMARK UNBOUND:                -1.072
REMARK  Name = 
REMARK  7 active torsions:
REMARK  status: ('A' for Active; 'I' for Inactive)
REMARK    1  A    between atoms: N_1  and  C_2
REMARK    2  A    between atoms: C_2  and  N_3
REMARK    3  A    between atoms: C_2  and  C_26
REMARK    4  A    between atoms: C_4  and  C_6
REMARK    5  A    between atoms: C_9  and  C_10
REMARK    6  A    between atoms: C_10  and  N_11
REMARK    7  A    between atoms: C_12  and  C_14
REMARK                            x       y       z     vdW  Elec       q    Type
REMARK                         _______ _______ _______ _____ _____    ______ ____
ROOT
ATOM      1  C   UNL     1      45.076   6.182  11.495  0.00  0.00    +0.000 A 
ATOM      2  C   UNL     1      44.674   7.513  11.506  0.00  0.00    +0.000 A 
ATOM      3  C   UNL     1      45.364   8.411  12.318  0.00  0.00    +0.000 A 
ATOM      4  C   UNL     1      46.440   7.960  13.086  0.00  0.00    +0.000 A 
ATOM      5  C   UNL     1      46.755   6.603  13.017  0.00  0.00    +0.000 A 
ATOM      6  N   UNL     1      46.107   5.703  12.241  0.00  0.00    +0.000 NA
ENDROOT
BRANCH   1   8
ATOM      7  N   UNL     1      45.085   4.267   9.985  0.00  0.00    +0.000 N 
ATOM      8  C   UNL     1      44.321   5.191  10.664  0.00  0.00    +0.000 C 
ATOM      9  O   UNL     1      43.092   5.187  10.647  0.00  0.00    +0.000 OA
ATOM     10  H   UNL     1      46.093   4.400   9.960  0.00  0.00    +0.000 HD
BRANCH   7  11
ATOM     11  C   UNL     1      44.535   3.278   9.100  0.00  0.00    +0.000 C 
BRANCH  11  12
ATOM     12  C   UNL     1      45.543   2.773   8.063  0.00  0.00    +0.000 A 
ATOM     13  C   UNL     1      46.123   1.513   8.240  0.00  0.00    +0.000 A 
ATOM     14  C   UNL     1      47.118   1.091   7.362  0.00  0.00    +0.000 A 
ATOM     15  C   UNL     1      47.501   1.927   6.323  0.00  0.00    +0.000 A 
ATOM     16  C   UNL     1      46.866   3.153   6.200  0.00  0.00    +0.000 A 
ATOM     17  N   UNL     1      45.903   3.598   7.039  0.00  0.00    +0.000 NA
ENDBRANCH  11  12
BRANCH  11  18
ATOM     18  N   UNL     1      44.124   2.195   9.984  0.00  0.00    +0.000 NA
ATOM     19  H   UNL     1      43.488   2.627  10.658  0.00  0.00    +0.000 HD
ATOM     20  H   UNL     1      44.953   1.954  10.522  0.00  0.00    +0.000 HD
ENDBRANCH  11  18
ENDBRANCH   7  11
ENDBRANCH   1   8
BRANCH   4  21
ATOM     21  C   UNL     1      47.209   8.883  13.987  0.00  0.00    +0.000 C 
BRANCH  21  22
ATOM     22  N   UNL     1      48.580   9.017  13.563  0.00  0.00    +0.000 N 
ATOM     23  C   UNL     1      48.985  10.087  12.803  0.00  0.00    +0.000 C 
ATOM     24  O   UNL     1      48.216  10.998  12.507  0.00  0.00    +0.000 OA
ATOM     25  H   UNL     1      49.167   8.191  13.600  0.00  0.00    +0.000 HD
BRANCH  23  26
ATOM     26  C   UNL     1      50.402  10.120  12.413  0.00  0.00    +0.000 A 
ATOM     27  C   UNL     1      51.162  11.248  12.686  0.00  0.00    +0.000 A 
ATOM     28  S   UNL     1      52.797  11.101  12.218  0.00  0.00    +0.000 S 
ATOM     29  C   UNL     1      52.531   9.545  11.582  0.00  0.00    +0.000 A 
ATOM     30  N   UNL     1      53.539   8.848  10.994  0.00  0.00    +0.000 NA
ATOM     31  C   UNL     1      53.190   7.698  10.518  0.00  0.00    +0.000 A 
ATOM     32  N   UNL     1      51.921   7.182  10.586  0.00  0.00    +0.000 N 
ATOM     33  C   UNL     1      50.880   7.833  11.202  0.00  0.00    +0.000 A 
ATOM     34  O   UNL     1      49.768   7.324  11.292  0.00  0.00    +0.000 OA
ATOM     35  C   UNL     1      51.216   9.138  11.739  0.00  0.00    +0.000 A 
ATOM     36  H   UNL     1      51.714   6.271  10.202  0.00  0.00    +0.000 HD
ENDBRANCH  23  26
ENDBRANCH  21  22
ENDBRANCH   4  21
TORSDOF 7
ENDMDL
MODEL 5
REMARK VINA RESULT:    -7.525      1.733      2.157
REMARK INTER + INTRA:         -11.457
REMARK INTER:                 -10.284
REMARK INTRA:                  -1.173
REMARK UNBOUND:                -1.072
REMARK  Name = 
REMARK  7 active torsions:
REMARK  status: ('A' for Active; 'I' for Inactive)
REMARK    1  A    between atoms: N_1  and  C_2
REMARK    2  A    between atoms: C_2  and  N_3
REMARK    3  A    between atoms: C_2  and  C_26
REMARK    4  A    between atoms: C_4  and  C_6
REMARK    5  A    between atoms: C_9  and  C_10
REMARK    6  A    between atoms: C_10  and  N_11
REMARK    7  A    between atoms: C_12  and  C_14
REMARK                            x       y       z     vdW  Elec       q    Type
REMARK                         _______ _______ _______ _____ _____    ______ ____
ROOT
ATOM      1  C   UNL     1      45.565   6.325  11.876  0.00  0.00    +0.000 A 
ATOM      2  C   UNL     1      45.422   7.701  12.017  0.00  0.00    +0.000 A 
ATOM      3  C   UNL     1      46.252   8.369  12.914  0.00  0.00    +0.000 A 
ATOM      4  C   UNL     1      47.208   7.649  13.636  0.00  0.00    +0.000 A 
ATOM      5  C   UNL     1      47.262   6.270  13.435  0.00  0.00    +0.000 A 
ATOM      6  N   UNL     1      46.471   5.589  12.573  0.00  0.00    +0.000 NA
ENDROOT
BRANCH   1   8
ATOM      7  N   UNL     1      45.256   4.665  10.117  0.00  0.00    +0.000 N 
ATOM      8  C   UNL     1      44.653   5.580  10.951  0.00  0.00    +0.000 C 
ATOM      9  O   UNL     1      43.437   5.752  10.989  0.00  0.00    +0.000 OA
ATOM     10  H   UNL     1      46.273   4.656  10.065  0.00  0.00    +0.000 HD
BRANCH   7  11
ATOM     11  C   UNL     1      44.547   3.901   9.129  0.00  0.00    +0.000 C 
BRANCH  11  12
ATOM     12  C   UNL     1      45.474   3.120   8.193  0.00  0.00    +0.000 A 
ATOM     13  C   UNL     1      45.793   1.795   8.506  0.00  0.00    +0.000 A 
ATOM     14  C   UNL     1      46.718   1.113   7.720  0.00  0.00    +0.000 A 
ATOM     15  C   UNL     1      47.292   1.760   6.636  0.00  0.00    +0.000 A 
ATOM     16  C   UNL     1      46.910   3.067   6.375  0.00  0.00    +0.000 A 
ATOM     17  N   UNL     1      46.022   3.763   7.122  0.00  0.00    +0.000 NA
ENDBRANCH  11  12
BRANCH  11  18
ATOM     18  N   UNL     1      43.719   2.988   9.908  0.00  0.00    +0.000 NA
ATOM     19  H   UNL     1      43.008   2.650   9.255  0.00  0.00    +0.000 HD
ATOM     20  H   UNL     1      43.213   3.576  10.566  0.00  0.00    +0.000 HD
ENDBRANCH  11  18
ENDBRANCH   7  11
ENDBRANCH   1   8
BRANCH   4  21
ATOM     21  C   UNL     1      48.120   8.319  14.625  0.00  0.00    +0.000 C 
BRANCH  21  22
ATOM     22  N   UNL     1      48.650   7.377  15.578  0.00  0.00    +0.000 N 
ATOM     23  C   UNL     1      48.681   7.669  16.919  0.00  0.00    +0.000 C 
ATOM     24  O   UNL     1      48.207   8.711  17.366  0.00  0.00    +0.000 OA
ATOM     25  H   UNL     1      49.237   6.629  15.224  0.00  0.00    +0.000 HD
BRANCH  23  26
ATOM     26  C   UNL     1      49.254   6.644  17.804  0.00  0.00    +0.000 A 
ATOM     27  C   UNL     1      48.527   6.198  18.898  0.00  0.00    +0.000 A 
ATOM     28  S   UNL     1      49.313   4.971  19.787  0.00  0.00    +0.000 S 
ATOM     29  C   UNL     1      50.677   5.035  18.773  0.00  0.00    +0.000 A 
ATOM     30  N   UNL     1      51.755   4.237  18.998  0.00  0.00    +0.000 NA
ATOM     31  C   UNL     1      52.736   4.417  18.177  0.00  0.00    +0.000 A 
ATOM     32  N   UNL     1      52.731   5.320  17.145  0.00  0.00    +0.000 N 
ATOM     33  C   UNL     1      51.652   6.120  16.856  0.00  0.00    +0.000 A 
ATOM     34  O   UNL     1      51.658   6.882  15.895  0.00  0.00    +0.000 OA
ATOM     35  C   UNL     1      50.528   5.968  17.761  0.00  0.00    +0.000 A 
ATOM     36  H   UNL     1      53.529   5.405  16.531  0.00  0.00    +0.000 HD
ENDBRANCH  23  26
ENDBRANCH  21  22
ENDBRANCH   4  21
TORSDOF 7
ENDMDL
MODEL 6
REMARK VINA RESULT:    -7.214      3.084      3.751
REMARK INTER + INTRA:         -11.028
REMARK INTER:                  -9.917
REMARK INTRA:                  -1.110
REMARK UNBOUND:                -1.072
REMARK  Name = 
REMARK  7 active torsions:
REMARK  status: ('A' for Active; 'I' for Inactive)
REMARK    1  A    between atoms: N_1  and  C_2
REMARK    2  A    between atoms: C_2  and  N_3
REMARK    3  A    between atoms: C_2  and  C_26
REMARK    4  A    between atoms: C_4  and  C_6
REMARK    5  A    between atoms: C_9  and  C_10
REMARK    6  A    between atoms: C_10  and  N_11
REMARK    7  A    between atoms: C_12  and  C_14
REMARK                            x       y       z     vdW  Elec       q    Type
REMARK                         _______ _______ _______ _____ _____    ______ ____
ROOT
ATOM      1  C   UNL     1      45.350   6.299  11.714  0.00  0.00    +0.000 A 
ATOM      2  C   UNL     1      44.849   7.561  12.014  0.00  0.00    +0.000 A 
ATOM      3  C   UNL     1      45.612   8.409  12.813  0.00  0.00    +0.000 A 
ATOM      4  C   UNL     1      46.858   7.980  13.281  0.00  0.00    +0.000 A 
ATOM      5  C   UNL     1      47.264   6.691  12.937  0.00  0.00    +0.000 A 
ATOM      6  N   UNL     1      46.549   5.841  12.164  0.00  0.00    +0.000 NA
ENDROOT
BRANCH   1   8
ATOM      7  N   UNL     1      45.223   4.372  10.225  0.00  0.00    +0.000 N 
ATOM      8  C   UNL     1      44.527   5.354  10.894  0.00  0.00    +0.000 C 
ATOM      9  O   UNL     1      43.301   5.436  10.878  0.00  0.00    +0.000 OA
ATOM     10  H   UNL     1      46.239   4.434  10.198  0.00  0.00    +0.000 HD
BRANCH   7  11
ATOM     11  C   UNL     1      44.605   3.415   9.351  0.00  0.00    +0.000 C 
BRANCH  11  12
ATOM     12  C   UNL     1      45.591   2.773   8.370  0.00  0.00    +0.000 A 
ATOM     13  C   UNL     1      46.022   3.510   7.263  0.00  0.00    +0.000 A 
ATOM     14  C   UNL     1      46.832   2.899   6.309  0.00  0.00    +0.000 A 
ATOM     15  C   UNL     1      47.205   1.575   6.489  0.00  0.00    +0.000 A 
ATOM     16  C   UNL     1      46.756   0.915   7.622  0.00  0.00    +0.000 A 
ATOM     17  N   UNL     1      45.961   1.474   8.563  0.00  0.00    +0.000 NA
ENDBRANCH  11  12
BRANCH  11  18
ATOM     18  N   UNL     1      44.052   2.411  10.251  0.00  0.00    +0.000 NA
ATOM     19  H   UNL     1      43.048   2.603  10.280  0.00  0.00    +0.000 HD
ATOM     20  H   UNL     1      44.393   2.660  11.177  0.00  0.00    +0.000 HD
ENDBRANCH  11  18
ENDBRANCH   7  11
ENDBRANCH   1   8
BRANCH   4  21
ATOM     21  C   UNL     1      47.715   8.851  14.155  0.00  0.00    +0.000 C 
BRANCH  21  22
ATOM     22  N   UNL     1      49.116   8.659  13.881  0.00  0.00    +0.000 N 
ATOM     23  C   UNL     1      50.040   9.623  14.203  0.00  0.00    +0.000 C 
ATOM     24  O   UNL     1      49.719  10.655  14.787  0.00  0.00    +0.000 OA
ATOM     25  H   UNL     1      49.372   7.937  13.216  0.00  0.00    +0.000 HD
BRANCH  23  26
ATOM     26  C   UNL     1      51.441   9.332  13.869  0.00  0.00    +0.000 A 
ATOM     27  C   UNL     1      52.069  10.052  12.862  0.00  0.00    +0.000 A 
ATOM     28  S   UNL     1      53.707   9.630  12.639  0.00  0.00    +0.000 S 
ATOM     29  C   UNL     1      53.618   8.430  13.842  0.00  0.00    +0.000 A 
ATOM     30  N   UNL     1      54.697   7.658  14.142  0.00  0.00    +0.000 NA
ATOM     31  C   UNL     1      54.479   6.760  15.045  0.00  0.00    +0.000 A 
ATOM     32  N   UNL     1      53.277   6.571  15.680  0.00  0.00    +0.000 N 
ATOM     33  C   UNL     1      52.172   7.349  15.436  0.00  0.00    +0.000 A 
ATOM     34  O   UNL     1      51.126   7.189  16.056  0.00  0.00    +0.000 OA
ATOM     35  C   UNL     1      52.359   8.364  14.416  0.00  0.00    +0.000 A 
ATOM     36  H   UNL     1      53.174   5.855  16.386  0.00  0.00    +0.000 HD
ENDBRANCH  23  26
ENDBRANCH  21  22
ENDBRANCH   4  21
TORSDOF 7
ENDMDL
MODEL 7
REMARK VINA RESULT:    -6.475      3.784      9.075
REMARK INTER + INTRA:         -10.008
REMARK INTER:                  -8.898
REMARK INTRA:                  -1.110
REMARK UNBOUND:                -1.072
REMARK  Name = 
REMARK  7 active torsions:
REMARK  status: ('A' for Active; 'I' for Inactive)
REMARK    1  A    between atoms: N_1  and  C_2
REMARK    2  A    between atoms: C_2  and  N_3
REMARK    3  A    between atoms: C_2  and  C_26
REMARK    4  A    between atoms: C_4  and  C_6
REMARK    5  A    between atoms: C_9  and  C_10
REMARK    6  A    between atoms: C_10  and  N_11
REMARK    7  A    between atoms: C_12  and  C_14
REMARK                            x       y       z     vdW  Elec       q    Type
REMARK                         _______ _______ _______ _____ _____    ______ ____
ROOT
ATOM      1  C   UNL     1      49.988   6.449  16.318  0.00  0.00    +0.000 A 
ATOM      2  C   UNL     1      48.746   5.964  15.922  0.00  0.00    +0.000 A 
ATOM      3  C   UNL     1      48.222   6.391  14.704  0.00  0.00    +0.000 A 
ATOM      4  C   UNL     1      48.954   7.279  13.911  0.00  0.00    +0.000 A 
ATOM      5  C   UNL     1      50.182   7.719  14.405  0.00  0.00    +0.000 A 
ATOM      6  N   UNL     1      50.722   7.326  15.582  0.00  0.00    +0.000 NA
ENDROOT
BRANCH   1   8
ATOM      7  N   UNL     1      51.400   4.955  17.629  0.00  0.00    +0.000 N 
ATOM      8  C   UNL     1      50.550   6.038  17.644  0.00  0.00    +0.000 C 
ATOM      9  O   UNL     1      50.297   6.678  18.663  0.00  0.00    +0.000 OA
ATOM     10  H   UNL     1      51.475   4.412  16.771  0.00  0.00    +0.000 HD
BRANCH   7  11
ATOM     11  C   UNL     1      51.989   4.390  18.811  0.00  0.00    +0.000 C 
BRANCH  11  12
ATOM     12  C   UNL     1      52.718   3.069  18.547  0.00  0.00    +0.000 A 
ATOM     13  C   UNL     1      52.076   2.079  17.796  0.00  0.00    +0.000 A 
ATOM     14  C   UNL     1      52.685   0.837  17.641  0.00  0.00    +0.000 A 
ATOM     15  C   UNL     1      53.924   0.615  18.225  0.00  0.00    +0.000 A 
ATOM     16  C   UNL     1      54.508   1.651  18.937  0.00  0.00    +0.000 A 
ATOM     17  N   UNL     1      53.941   2.866  19.115  0.00  0.00    +0.000 NA
ENDBRANCH  11  12
BRANCH  11  18
ATOM     18  N   UNL     1      52.925   5.409  19.268  0.00  0.00    +0.000 NA
ATOM     19  H   UNL     1      53.603   5.508  18.510  0.00  0.00    +0.000 HD
ATOM     20  H   UNL     1      53.444   4.977  20.029  0.00  0.00    +0.000 HD
ENDBRANCH  11  18
ENDBRANCH   7  11
ENDBRANCH   1   8
BRANCH   4  21
ATOM     21  C   UNL     1      48.430   7.780  12.595  0.00  0.00    +0.000 C 
BRANCH  21  22
ATOM     22  N   UNL     1      47.700   6.756  11.892  0.00  0.00    +0.000 N 
ATOM     23  C   UNL     1      46.353   6.882  11.654  0.00  0.00    +0.000 C 
ATOM     24  O   UNL     1      45.732   7.892  11.975  0.00  0.00    +0.000 OA
ATOM     25  H   UNL     1      48.127   5.839  11.818  0.00  0.00    +0.000 HD
BRANCH  23  26
ATOM     26  C   UNL     1      45.702   5.774  10.940  0.00  0.00    +0.000 A 
ATOM     27  C   UNL     1      45.823   5.681   9.561  0.00  0.00    +0.000 A 
ATOM     28  S   UNL     1      45.056   4.309   8.898  0.00  0.00    +0.000 S 
ATOM     29  C   UNL     1      44.487   3.822  10.426  0.00  0.00    +0.000 A 
ATOM     30  N   UNL     1      43.722   2.706  10.565  0.00  0.00    +0.000 NA
ATOM     31  C   UNL     1      43.325   2.475  11.772  0.00  0.00    +0.000 A 
ATOM     32  N   UNL     1      43.632   3.259  12.856  0.00  0.00    +0.000 N 
ATOM     33  C   UNL     1      44.431   4.373  12.770  0.00  0.00    +0.000 A 
ATOM     34  O   UNL     1      44.731   5.026  13.764  0.00  0.00    +0.000 OA
ATOM     35  C   UNL     1      44.891   4.687  11.430  0.00  0.00    +0.000 A 
ATOM     36  H   UNL     1      43.297   3.018  13.778  0.00  0.00    +0.000 HD
ENDBRANCH  23  26
ENDBRANCH  21  22
ENDBRANCH   4  21
TORSDOF 7
ENDMDL
MODEL 8
REMARK VINA RESULT:    -6.358      6.065      8.429
REMARK INTER + INTRA:          -9.846
REMARK INTER:                  -8.698
REMARK INTRA:                  -1.148
REMARK UNBOUND:                -1.072
REMARK  Name = 
REMARK  7 active torsions:
REMARK  status: ('A' for Active; 'I' for Inactive)
REMARK    1  A    between atoms: N_1  and  C_2
REMARK    2  A    between atoms: C_2  and  N_3
REMARK    3  A    between atoms: C_2  and  C_26
REMARK    4  A    between atoms: C_4  and  C_6
REMARK    5  A    between atoms: C_9  and  C_10
REMARK    6  A    between atoms: C_10  and  N_11
REMARK    7  A    between atoms: C_12  and  C_14
REMARK                            x       y       z     vdW  Elec       q    Type
REMARK                         _______ _______ _______ _____ _____    ______ ____
ROOT
ATOM      1  C   UNL     1      49.316   7.150  13.310  0.00  0.00    +0.000 A 
ATOM      2  C   UNL     1      49.154   7.143  11.929  0.00  0.00    +0.000 A 
ATOM      3  C   UNL     1      50.060   7.858  11.148  0.00  0.00    +0.000 A 
ATOM      4  C   UNL     1      51.107   8.549  11.764  0.00  0.00    +0.000 A 
ATOM      5  C   UNL     1      51.174   8.506  13.157  0.00  0.00    +0.000 A 
ATOM      6  N   UNL     1      50.312   7.823  13.946  0.00  0.00    +0.000 NA
ENDROOT
BRANCH   1   8
ATOM      7  N   UNL     1      47.446   5.599  13.513  0.00  0.00    +0.000 N 
ATOM      8  C   UNL     1      48.328   6.426  14.172  0.00  0.00    +0.000 C 
ATOM      9  O   UNL     1      48.357   6.536  15.395  0.00  0.00    +0.000 OA
ATOM     10  H   UNL     1      47.410   5.642  12.496  0.00  0.00    +0.000 HD
BRANCH   7  11
ATOM     11  C   UNL     1      46.398   4.869  14.170  0.00  0.00    +0.000 C 
BRANCH  11  12
ATOM     12  C   UNL     1      45.202   4.580  13.257  0.00  0.00    +0.000 A 
ATOM     13  C   UNL     1      45.264   3.487  12.387  0.00  0.00    +0.000 A 
ATOM     14  C   UNL     1      44.229   3.279  11.479  0.00  0.00    +0.000 A 
ATOM     15  C   UNL     1      43.153   4.155  11.470  0.00  0.00    +0.000 A 
ATOM     16  C   UNL     1      43.152   5.203  12.377  0.00  0.00    +0.000 A 
ATOM     17  N   UNL     1      44.144   5.440  13.265  0.00  0.00    +0.000 NA
ENDBRANCH  11  12
BRANCH  11  18
ATOM     18  N   UNL     1      47.034   3.627  14.590  0.00  0.00    +0.000 NA
ATOM     19  H   UNL     1      48.036   3.829  14.596  0.00  0.00    +0.000 HD
ATOM     20  H   UNL     1      46.902   2.980  13.816  0.00  0.00    +0.000 HD
ENDBRANCH  11  18
ENDBRANCH   7  11
ENDBRANCH   1   8
BRANCH   4  21
ATOM     21  C   UNL     1      52.103   9.344  10.970  0.00  0.00    +0.000 C 
BRANCH  21  22
ATOM     22  N   UNL     1      52.395   8.716   9.706  0.00  0.00    +0.000 N 
ATOM     23  C   UNL     1      53.621   8.867   9.106  0.00  0.00    +0.000 C 
ATOM     24  O   UNL     1      54.532   9.491   9.645  0.00  0.00    +0.000 OA
ATOM     25  H   UNL     1      51.611   8.395   9.148  0.00  0.00    +0.000 HD
BRANCH  23  26
ATOM     26  C   UNL     1      53.810   8.196   7.812  0.00  0.00    +0.000 A 
ATOM     27  C   UNL     1      53.994   8.956   6.666  0.00  0.00    +0.000 A 
ATOM     28  S   UNL     1      54.254   8.023   5.261  0.00  0.00    +0.000 S 
ATOM     29  C   UNL     1      54.071   6.570   6.127  0.00  0.00    +0.000 A 
ATOM     30  N   UNL     1      54.155   5.366   5.499  0.00  0.00    +0.000 NA
ATOM     31  C   UNL     1      53.957   4.347   6.268  0.00  0.00    +0.000 A 
ATOM     32  N   UNL     1      53.689   4.425   7.611  0.00  0.00    +0.000 N 
ATOM     33  C   UNL     1      53.632   5.615   8.294  0.00  0.00    +0.000 A 
ATOM     34  O   UNL     1      53.441   5.652   9.505  0.00  0.00    +0.000 OA
ATOM     35  C   UNL     1      53.831   6.794   7.472  0.00  0.00    +0.000 A 
ATOM     36  H   UNL     1      53.553   3.587   8.159  0.00  0.00    +0.000 HD
ENDBRANCH  23  26
ENDBRANCH  21  22
ENDBRANCH   4  21
TORSDOF 7
ENDMDL
MODEL 9
REMARK VINA RESULT:    -6.351      2.310      2.915
REMARK INTER + INTRA:          -9.836
REMARK INTER:                  -8.664
REMARK INTRA:                  -1.172
REMARK UNBOUND:                -1.072
REMARK  Name = 
REMARK  7 active torsions:
REMARK  status: ('A' for Active; 'I' for Inactive)
REMARK    1  A    between atoms: N_1  and  C_2
REMARK    2  A    between atoms: C_2  and  N_3
REMARK    3  A    between atoms: C_2  and  C_26
REMARK    4  A    between atoms: C_4  and  C_6
REMARK    5  A    between atoms: C_9  and  C_10
REMARK    6  A    between atoms: C_10  and  N_11
REMARK    7  A    between atoms: C_12  and  C_14
REMARK                            x       y       z     vdW  Elec       q    Type
REMARK                         _______ _______ _______ _____ _____    ______ ____
ROOT
ATOM      1  C   UNL     1      46.500   7.606  12.525  0.00  0.00    +0.000 A 
ATOM      2  C   UNL     1      47.171   6.597  13.209  0.00  0.00    +0.000 A 
ATOM      3  C   UNL     1      48.267   6.942  13.997  0.00  0.00    +0.000 A 
ATOM      4  C   UNL     1      48.656   8.281  14.090  0.00  0.00    +0.000 A 
ATOM      5  C   UNL     1      47.928   9.215  13.352  0.00  0.00    +0.000 A 
ATOM      6  N   UNL     1      46.860   8.916  12.577  0.00  0.00    +0.000 NA
ENDROOT
BRANCH   1   8
ATOM      7  N   UNL     1      45.280   5.939  11.228  0.00  0.00    +0.000 N 
ATOM      8  C   UNL     1      45.347   7.253  11.636  0.00  0.00    +0.000 C 
ATOM      9  O   UNL     1      44.494   8.089  11.347  0.00  0.00    +0.000 OA
ATOM     10  H   UNL     1      46.077   5.334  11.416  0.00  0.00    +0.000 HD
BRANCH   7  11
ATOM     11  C   UNL     1      44.277   5.435  10.333  0.00  0.00    +0.000 C 
BRANCH  11  12
ATOM     12  C   UNL     1      44.786   4.304   9.434  0.00  0.00    +0.000 A 
ATOM     13  C   UNL     1      44.448   2.984   9.749  0.00  0.00    +0.000 A 
ATOM     14  C   UNL     1      44.993   1.944   9.001  0.00  0.00    +0.000 A 
ATOM     15  C   UNL     1      45.849   2.243   7.951  0.00  0.00    +0.000 A 
ATOM     16  C   UNL     1      46.120   3.577   7.685  0.00  0.00    +0.000 A 
ATOM     17  N   UNL     1      45.616   4.611   8.396  0.00  0.00    +0.000 NA
ENDBRANCH  11  12
BRANCH  11  18
ATOM     18  N   UNL     1      43.220   4.952  11.214  0.00  0.00    +0.000 NA
ATOM     19  H   UNL     1      43.330   3.936  11.231  0.00  0.00    +0.000 HD
ATOM     20  H   UNL     1      42.352   5.115  10.710  0.00  0.00    +0.000 HD
ENDBRANCH  11  18
ENDBRANCH   7  11
ENDBRANCH   1   8
BRANCH   4  21
ATOM     21  C   UNL     1      49.838   8.704  14.915  0.00  0.00    +0.000 C 
BRANCH  21  22
ATOM     22  N   UNL     1      50.578   7.567  15.401  0.00  0.00    +0.000 N 
ATOM     23  C   UNL     1      51.188   7.593  16.631  0.00  0.00    +0.000 C 
ATOM     24  O   UNL     1      51.081   8.556  17.387  0.00  0.00    +0.000 OA
ATOM     25  H   UNL     1      50.865   6.868  14.725  0.00  0.00    +0.000 HD
BRANCH  23  26
ATOM     26  C   UNL     1      51.929   6.386  17.025  0.00  0.00    +0.000 A 
ATOM     27  C   UNL     1      53.299   6.460  17.233  0.00  0.00    +0.000 A 
ATOM     28  S   UNL     1      53.995   4.986  17.739  0.00  0.00    +0.000 S 
ATOM     29  C   UNL     1      52.497   4.184  17.643  0.00  0.00    +0.000 A 
ATOM     30  N   UNL     1      52.394   2.859  17.929  0.00  0.00    +0.000 NA
ATOM     31  C   UNL     1      51.208   2.368  17.776  0.00  0.00    +0.000 A 
ATOM     32  N   UNL     1      50.114   3.090  17.369  0.00  0.00    +0.000 N 
ATOM     33  C   UNL     1      50.163   4.437  17.104  0.00  0.00    +0.000 A 
ATOM     34  O   UNL     1      49.158   5.066  16.791  0.00  0.00    +0.000 OA
ATOM     35  C   UNL     1      51.478   5.034  17.245  0.00  0.00    +0.000 A 
ATOM     36  H   UNL     1      49.211   2.648  17.277  0.00  0.00    +0.000 HD
ENDBRANCH  23  26
ENDBRANCH  21  22
ENDBRANCH   4  21
TORSDOF 7
ENDMDL
