MODEL 1
REMARK VINA RESULT:    -8.389      0.000      0.000
REMARK INTER + INTRA:         -12.177
REMARK INTER:                 -11.332
REMARK INTRA:                  -0.845
REMARK UNBOUND:                -0.845
REMARK  Name = 
REMARK  7 active torsions:
REMARK  status: ('A' for Active; 'I' for Inactive)
REMARK    1  A    between atoms: C_1  and  C_2
REMARK    2  A    between atoms: C_2  and  C_3
REMARK    3  A    between atoms: C_2  and  C_25
REMARK    4  A    between atoms: C_3  and  N_4
REMARK    5  A    between atoms: C_8  and  C_9
REMARK    6  A    between atoms: C_9  and  N_10
REMARK    7  A    between atoms: C_11  and  C_13
REMARK                            x       y       z     vdW  Elec       q    Type
REMARK                         _______ _______ _______ _____ _____    ______ ____
ROOT
ATOM      1  N   UNL     1      43.815   4.763  10.316  0.00  0.00    +0.000 N 
ATOM      2  C   UNL     1      44.758   5.388  11.120  0.00  0.00    +0.000 A 
ATOM      3  N   UNL     1      45.733   6.108  10.555  0.00  0.00    +0.000 NA
ATOM      4  C   UNL     1      46.624   6.685  11.372  0.00  0.00    +0.000 A 
ATOM      5  C   UNL     1      46.588   6.573  12.747  0.00  0.00    +0.000 A 
ATOM      6  C   UNL     1      45.552   5.810  13.224  0.00  0.00    +0.000 A 
ATOM      7  N   UNL     1      44.641   5.196  12.441  0.00  0.00    +0.000 NA
ATOM      8  H   UNL     1      43.467   3.983  10.867  0.00  0.00    +0.000 HD
ENDROOT
BRANCH   1   9
ATOM      9  C   UNL     1      44.339   4.429   8.997  0.00  0.00    +0.000 C 
BRANCH   9  11
ATOM     10  C   UNL     1      44.397   2.159  10.133  0.00  0.00    +0.000 C 
ATOM     11  C   UNL     1      44.487   2.908   8.797  0.00  0.00    +0.000 C 
BRANCH  11  12
ATOM     12  C   UNL     1      45.706   2.551   7.971  0.00  0.00    +0.000 A 
ATOM     13  C   UNL     1      46.267   3.492   7.097  0.00  0.00    +0.000 A 
ATOM     14  C   UNL     1      47.370   3.146   6.321  0.00  0.00    +0.000 A 
ATOM     15  C   UNL     1      47.890   1.870   6.451  0.00  0.00    +0.000 A 
ATOM     16  N   UNL     1      47.398   0.945   7.299  0.00  0.00    +0.000 NA
ATOM     17  C   UNL     1      46.326   1.306   8.039  0.00  0.00    +0.000 A 
ENDBRANCH  11  12
ENDBRANCH   9  11
ENDBRANCH   1   9
BRANCH   5  18
ATOM     18  C   UNL     1      47.539   7.308  13.629  0.00  0.00    +0.000 C 
BRANCH  18  19
ATOM     19  N   UNL     1      48.068   6.450  14.673  0.00  0.00    +0.000 N 
ATOM     20  C   UNL     1      48.542   6.987  15.841  0.00  0.00    +0.000 C 
ATOM     21  O   UNL     1      48.520   8.203  16.060  0.00  0.00    +0.000 OA
ATOM     22  H   UNL     1      47.987   5.443  14.563  0.00  0.00    +0.000 HD
BRANCH  20  23
ATOM     23  C   UNL     1      49.202   6.097  16.792  0.00  0.00    +0.000 A 
ATOM     24  C   UNL     1      50.188   6.600  17.631  0.00  0.00    +0.000 A 
ATOM     25  S   UNL     1      51.194   5.379  18.266  0.00  0.00    +0.000 S 
ATOM     26  C   UNL     1      50.238   4.163  17.555  0.00  0.00    +0.000 A 
ATOM     27  N   UNL     1      50.610   2.857  17.583  0.00  0.00    +0.000 NA
ATOM     28  C   UNL     1      49.733   2.047  17.087  0.00  0.00    +0.000 A 
ATOM     29  N   UNL     1      48.500   2.419  16.615  0.00  0.00    +0.000 N 
ATOM     30  C   UNL     1      48.093   3.731  16.540  0.00  0.00    +0.000 A 
ATOM     31  O   UNL     1      46.976   4.050  16.148  0.00  0.00    +0.000 OA
ATOM     32  C   UNL     1      49.094   4.680  16.978  0.00  0.00    +0.000 A 
ATOM     33  H   UNL     1      47.829   1.722  16.327  0.00  0.00    +0.000 HD
ENDBRANCH  20  23
ENDBRANCH  18  19
ENDBRANCH   5  18
TORSDOF 6
ENDMDL
MODEL 2
REMARK VINA RESULT:    -7.768      1.866      2.357
REMARK INTER + INTRA:         -11.338
REMARK INTER:                 -10.441
REMARK INTRA:                  -0.896
REMARK UNBOUND:                -0.845
REMARK  Name = 
REMARK  7 active torsions:
REMARK  status: ('A' for Active; 'I' for Inactive)
REMARK    1  A    between atoms: C_1  and  C_2
REMARK    2  A    between atoms: C_2  and  C_3
REMARK    3  A    between atoms: C_2  and  C_25
REMARK    4  A    between atoms: C_3  and  N_4
REMARK    5  A    between atoms: C_8  and  C_9
REMARK    6  A    between atoms: C_9  and  N_10
REMARK    7  A    between atoms: C_11  and  C_13
REMARK                            x       y       z     vdW  Elec       q    Type
REMARK                         _______ _______ _______ _____ _____    ______ ____
ROOT
ATOM      1  N   UNL     1      44.890   4.299  11.031  0.00  0.00    +0.000 N 
ATOM      2  C   UNL     1      45.672   5.195  11.747  0.00  0.00    +0.000 A 
ATOM      3  N   UNL     1      45.988   6.375  11.204  0.00  0.00    +0.000 NA
ATOM      4  C   UNL     1      46.753   7.201  11.929  0.00  0.00    +0.000 A 
ATOM      5  C   UNL     1      47.225   6.899  13.190  0.00  0.00    +0.000 A 
ATOM      6  C   UNL     1      46.848   5.664  13.653  0.00  0.00    +0.000 A 
ATOM      7  N   UNL     1      46.094   4.790  12.953  0.00  0.00    +0.000 NA
ATOM      8  H   UNL     1      45.120   3.383  11.405  0.00  0.00    +0.000 HD
ENDROOT
BRANCH   1   9
ATOM      9  C   UNL     1      45.038   4.456   9.589  0.00  0.00    +0.000 C 
BRANCH   9  11
ATOM     10  C   UNL     1      44.222   2.060   9.778  0.00  0.00    +0.000 C 
ATOM     11  C   UNL     1      44.709   3.160   8.825  0.00  0.00    +0.000 C 
BRANCH  11  12
ATOM     12  C   UNL     1      45.836   2.728   7.909  0.00  0.00    +0.000 A 
ATOM     13  C   UNL     1      46.339   3.611   6.944  0.00  0.00    +0.000 A 
ATOM     14  C   UNL     1      47.356   3.197   6.088  0.00  0.00    +0.000 A 
ATOM     15  C   UNL     1      47.852   1.912   6.231  0.00  0.00    +0.000 A 
ATOM     16  N   UNL     1      47.416   1.042   7.164  0.00  0.00    +0.000 NA
ATOM     17  C   UNL     1      46.426   1.469   7.980  0.00  0.00    +0.000 A 
ENDBRANCH  11  12
ENDBRANCH   9  11
ENDBRANCH   1   9
BRANCH   5  18
ATOM     18  C   UNL     1      47.993   7.882  14.007  0.00  0.00    +0.000 C 
BRANCH  18  19
ATOM     19  N   UNL     1      48.255   7.375  15.342  0.00  0.00    +0.000 N 
ATOM     20  C   UNL     1      49.512   6.963  15.696  0.00  0.00    +0.000 C 
ATOM     21  O   UNL     1      50.467   7.025  14.913  0.00  0.00    +0.000 OA
ATOM     22  H   UNL     1      47.514   7.426  16.036  0.00  0.00    +0.000 HD
BRANCH  20  23
ATOM     23  C   UNL     1      49.689   6.321  16.995  0.00  0.00    +0.000 A 
ATOM     24  C   UNL     1      50.574   5.258  17.120  0.00  0.00    +0.000 A 
ATOM     25  S   UNL     1      50.272   4.312  18.505  0.00  0.00    +0.000 S 
ATOM     26  C   UNL     1      49.062   5.390  19.029  0.00  0.00    +0.000 A 
ATOM     27  N   UNL     1      48.278   5.114  20.103  0.00  0.00    +0.000 NA
ATOM     28  C   UNL     1      47.476   6.072  20.432  0.00  0.00    +0.000 A 
ATOM     29  N   UNL     1      47.425   7.299  19.818  0.00  0.00    +0.000 N 
ATOM     30  C   UNL     1      48.178   7.612  18.710  0.00  0.00    +0.000 A 
ATOM     31  O   UNL     1      48.149   8.721  18.190  0.00  0.00    +0.000 OA
ATOM     32  C   UNL     1      49.006   6.522  18.239  0.00  0.00    +0.000 A 
ATOM     33  H   UNL     1      46.838   8.033  20.186  0.00  0.00    +0.000 HD
ENDBRANCH  20  23
ENDBRANCH  18  19
ENDBRANCH   5  18
TORSDOF 6
ENDMDL
MODEL 3
REMARK VINA RESULT:    -7.613      3.355      8.275
REMARK INTER + INTRA:         -11.128
REMARK INTER:                  -9.852
REMARK INTRA:                  -1.277
REMARK UNBOUND:                -0.845
REMARK  Name = 
REMARK  7 active torsions:
REMARK  status: ('A' for Active; 'I' for Inactive)
REMARK    1  A    between atoms: C_1  and  C_2
REMARK    2  A    between atoms: C_2  and  C_3
REMARK    3  A    between atoms: C_2  and  C_25
REMARK    4  A    between atoms: C_3  and  N_4
REMARK    5  A    between atoms: C_8  and  C_9
REMARK    6  A    between atoms: C_9  and  N_10
REMARK    7  A    between atoms: C_11  and  C_13
REMARK                            x       y       z     vdW  Elec       q    Type
REMARK                         _______ _______ _______ _____ _____    ______ ____
ROOT
ATOM      1  N   UNL     1      50.071   7.050  17.479  0.00  0.00    +0.000 N 
ATOM      2  C   UNL     1      49.505   7.419  16.266  0.00  0.00    +0.000 A 
ATOM      3  N   UNL     1      48.558   8.363  16.241  0.00  0.00    +0.000 NA
ATOM      4  C   UNL     1      48.036   8.678  15.048  0.00  0.00    +0.000 A 
ATOM      5  C   UNL     1      48.420   8.086  13.862  0.00  0.00    +0.000 A 
ATOM      6  C   UNL     1      49.394   7.129  13.999  0.00  0.00    +0.000 A 
ATOM      7  N   UNL     1      49.937   6.765  15.179  0.00  0.00    +0.000 NA
ATOM      8  H   UNL     1      50.411   6.102  17.339  0.00  0.00    +0.000 HD
ENDROOT
BRANCH   1   9
ATOM      9  C   UNL     1      49.161   7.243  18.601  0.00  0.00    +0.000 C 
BRANCH   9  11
ATOM     10  C   UNL     1      50.072   5.609  20.318  0.00  0.00    +0.000 C 
ATOM     11  C   UNL     1      48.906   5.935  19.375  0.00  0.00    +0.000 C 
BRANCH  11  12
ATOM     12  C   UNL     1      48.512   4.792  18.462  0.00  0.00    +0.000 A 
ATOM     13  C   UNL     1      49.425   3.767  18.180  0.00  0.00    +0.000 A 
ATOM     14  C   UNL     1      49.063   2.735  17.318  0.00  0.00    +0.000 A 
ATOM     15  C   UNL     1      47.792   2.750  16.772  0.00  0.00    +0.000 A 
ATOM     16  N   UNL     1      46.875   3.701  17.040  0.00  0.00    +0.000 NA
ATOM     17  C   UNL     1      47.252   4.693  17.877  0.00  0.00    +0.000 A 
ENDBRANCH  11  12
ENDBRANCH   9  11
ENDBRANCH   1   9
BRANCH   5  18
ATOM     18  C   UNL     1      47.886   8.531  12.543  0.00  0.00    +0.000 C 
BRANCH  18  19
ATOM     19  N   UNL     1      47.449   7.405  11.739  0.00  0.00    +0.000 N 
ATOM     20  C   UNL     1      46.151   6.973  11.793  0.00  0.00    +0.000 C 
ATOM     21  O   UNL     1      45.304   7.530  12.501  0.00  0.00    +0.000 OA
ATOM     22  H   UNL     1      48.097   7.008  11.063  0.00  0.00    +0.000 HD
BRANCH  20  23
ATOM     23  C   UNL     1      45.800   5.746  11.084  0.00  0.00    +0.000 A 
ATOM     24  C   UNL     1      45.997   5.668   9.710  0.00  0.00    +0.000 A 
ATOM     25  S   UNL     1      45.073   4.432   8.986  0.00  0.00    +0.000 S 
ATOM     26  C   UNL     1      44.522   3.895  10.505  0.00  0.00    +0.000 A 
ATOM     27  N   UNL     1      43.569   2.933  10.617  0.00  0.00    +0.000 NA
ATOM     28  C   UNL     1      43.329   2.568  11.834  0.00  0.00    +0.000 A 
ATOM     29  N   UNL     1      43.991   3.039  12.940  0.00  0.00    +0.000 N 
ATOM     30  C   UNL     1      44.940   4.033  12.876  0.00  0.00    +0.000 A 
ATOM     31  O   UNL     1      45.549   4.422  13.866  0.00  0.00    +0.000 OA
ATOM     32  C   UNL     1      45.154   4.552  11.543  0.00  0.00    +0.000 A 
ATOM     33  H   UNL     1      43.815   2.641  13.851  0.00  0.00    +0.000 HD
ENDBRANCH  20  23
ENDBRANCH  18  19
ENDBRANCH   5  18
TORSDOF 6
ENDMDL
MODEL 4
REMARK VINA RESULT:    -7.559      1.547      1.743
REMARK INTER + INTRA:         -11.055
REMARK INTER:                 -10.183
REMARK INTRA:                  -0.872
REMARK UNBOUND:                -0.845
REMARK  Name = 
REMARK  7 active torsions:
REMARK  status: ('A' for Active; 'I' for Inactive)
REMARK    1  A    between atoms: C_1  and  C_2
REMARK    2  A    between atoms: C_2  and  C_3
REMARK    3  A    between atoms: C_2  and  C_25
REMARK    4  A    between atoms: C_3  and  N_4
REMARK    5  A    between atoms: C_8  and  C_9
REMARK    6  A    between atoms: C_9  and  N_10
REMARK    7  A    between atoms: C_11  and  C_13
REMARK                            x       y       z     vdW  Elec       q    Type
REMARK                         _______ _______ _______ _____ _____    ______ ____
ROOT
ATOM      1  N   UNL     1      44.899   5.544  10.191  0.00  0.00    +0.000 N 
ATOM      2  C   UNL     1      45.551   6.432  11.035  0.00  0.00    +0.000 A 
ATOM      3  N   UNL     1      46.880   6.364  11.165  0.00  0.00    +0.000 NA
ATOM      4  C   UNL     1      47.462   7.236  11.998  0.00  0.00    +0.000 A 
ATOM      5  C   UNL     1      46.769   8.187  12.719  0.00  0.00    +0.000 A 
ATOM      6  C   UNL     1      45.412   8.170  12.517  0.00  0.00    +0.000 A 
ATOM      7  N   UNL     1      44.778   7.300  11.703  0.00  0.00    +0.000 NA
ATOM      8  H   UNL     1      43.949   5.483  10.546  0.00  0.00    +0.000 HD
ENDROOT
BRANCH   1   9
ATOM      9  C   UNL     1      45.611   4.280  10.053  0.00  0.00    +0.000 C 
BRANCH   9  11
ATOM     10  C   UNL     1      44.134   2.230   9.800  0.00  0.00    +0.000 C 
ATOM     11  C   UNL     1      44.917   3.325   9.063  0.00  0.00    +0.000 C 
BRANCH  11  12
ATOM     12  C   UNL     1      45.868   2.799   8.007  0.00  0.00    +0.000 A 
ATOM     13  C   UNL     1      46.270   3.621   6.946  0.00  0.00    +0.000 A 
ATOM     14  C   UNL     1      47.122   3.121   5.965  0.00  0.00    +0.000 A 
ATOM     15  C   UNL     1      47.560   1.813   6.080  0.00  0.00    +0.000 A 
ATOM     16  N   UNL     1      47.219   0.998   7.099  0.00  0.00    +0.000 NA
ATOM     17  C   UNL     1      46.390   1.508   8.036  0.00  0.00    +0.000 A 
ENDBRANCH  11  12
ENDBRANCH   9  11
ENDBRANCH   1   9
BRANCH   5  18
ATOM     18  C   UNL     1      47.460   9.204  13.562  0.00  0.00    +0.000 C 
BRANCH  18  19
ATOM     19  N   UNL     1      47.521   8.791  14.952  0.00  0.00    +0.000 N 
ATOM     20  C   UNL     1      48.660   8.225  15.461  0.00  0.00    +0.000 C 
ATOM     21  O   UNL     1      49.675   8.065  14.774  0.00  0.00    +0.000 OA
ATOM     22  H   UNL     1      46.741   9.019  15.563  0.00  0.00    +0.000 HD
BRANCH  20  23
ATOM     23  C   UNL     1      48.618   7.688  16.818  0.00  0.00    +0.000 A 
ATOM     24  C   UNL     1      48.638   8.559  17.901  0.00  0.00    +0.000 A 
ATOM     25  S   UNL     1      49.115   7.794  19.347  0.00  0.00    +0.000 S 
ATOM     26  C   UNL     1      49.153   6.274  18.581  0.00  0.00    +0.000 A 
ATOM     27  N   UNL     1      49.622   5.168  19.215  0.00  0.00    +0.000 NA
ATOM     28  C   UNL     1      49.495   4.076  18.536  0.00  0.00    +0.000 A 
ATOM     29  N   UNL     1      48.894   3.982  17.306  0.00  0.00    +0.000 N 
ATOM     30  C   UNL     1      48.432   5.078  16.615  0.00  0.00    +0.000 A 
ATOM     31  O   UNL     1      47.867   4.979  15.532  0.00  0.00    +0.000 OA
ATOM     32  C   UNL     1      48.662   6.336  17.291  0.00  0.00    +0.000 A 
ATOM     33  H   UNL     1      48.747   3.081  16.874  0.00  0.00    +0.000 HD
ENDBRANCH  20  23
ENDBRANCH  18  19
ENDBRANCH   5  18
TORSDOF 6
ENDMDL
MODEL 5
REMARK VINA RESULT:    -7.480      3.885      9.152
REMARK INTER + INTRA:         -10.948
REMARK INTER:                  -9.900
REMARK INTRA:                  -1.047
REMARK UNBOUND:                -0.845
REMARK  Name = 
REMARK  7 active torsions:
REMARK  status: ('A' for Active; 'I' for Inactive)
REMARK    1  A    between atoms: C_1  and  C_2
REMARK    2  A    between atoms: C_2  and  C_3
REMARK    3  A    between atoms: C_2  and  C_25
REMARK    4  A    between atoms: C_3  and  N_4
REMARK    5  A    between atoms: C_8  and  C_9
REMARK    6  A    between atoms: C_9  and  N_10
REMARK    7  A    between atoms: C_11  and  C_13
REMARK                            x       y       z     vdW  Elec       q    Type
REMARK                         _______ _______ _______ _____ _____    ______ ____
ROOT
ATOM      1  N   UNL     1      51.842   0.928  17.013  0.00  0.00    +0.000 N 
ATOM      2  C   UNL     1      50.843   1.893  17.043  0.00  0.00    +0.000 A 
ATOM      3  N   UNL     1      51.019   3.001  17.768  0.00  0.00    +0.000 NA
ATOM      4  C   UNL     1      50.023   3.897  17.773  0.00  0.00    +0.000 A 
ATOM      5  C   UNL     1      48.843   3.735  17.076  0.00  0.00    +0.000 A 
ATOM      6  C   UNL     1      48.762   2.563  16.368  0.00  0.00    +0.000 A 
ATOM      7  N   UNL     1      49.730   1.623  16.347  0.00  0.00    +0.000 NA
ATOM      8  H   UNL     1      51.368   0.058  16.787  0.00  0.00    +0.000 HD
ENDROOT
BRANCH   1   9
ATOM      9  C   UNL     1      52.646   0.921  18.229  0.00  0.00    +0.000 C 
BRANCH   9  11
ATOM     10  C   UNL     1      54.662   1.818  16.973  0.00  0.00    +0.000 C 
ATOM     11  C   UNL     1      54.147   0.737  17.932  0.00  0.00    +0.000 C 
BRANCH  11  12
ATOM     12  C   UNL     1      54.481  -0.678  17.505  0.00  0.00    +0.000 A 
ATOM     13  C   UNL     1      54.822  -0.951  16.173  0.00  0.00    +0.000 A 
ATOM     14  C   UNL     1      55.101  -2.258  15.783  0.00  0.00    +0.000 A 
ATOM     15  C   UNL     1      55.044  -3.255  16.741  0.00  0.00    +0.000 A 
ATOM     16  N   UNL     1      54.748  -3.031  18.037  0.00  0.00    +0.000 NA
ATOM     17  C   UNL     1      54.479  -1.754  18.388  0.00  0.00    +0.000 A 
ENDBRANCH  11  12
ENDBRANCH   9  11
ENDBRANCH   1   9
BRANCH   5  18
ATOM     18  C   UNL     1      47.798   4.798  17.027  0.00  0.00    +0.000 C 
BRANCH  18  19
ATOM     19  N   UNL     1      47.157   4.853  15.725  0.00  0.00    +0.000 N 
ATOM     20  C   UNL     1      47.657   5.660  14.738  0.00  0.00    +0.000 C 
ATOM     21  O   UNL     1      48.672   6.346  14.903  0.00  0.00    +0.000 OA
ATOM     22  H   UNL     1      46.394   4.211  15.530  0.00  0.00    +0.000 HD
BRANCH  20  23
ATOM     23  C   UNL     1      46.890   5.796  13.503  0.00  0.00    +0.000 A 
ATOM     24  C   UNL     1      46.828   7.030  12.868  0.00  0.00    +0.000 A 
ATOM     25  S   UNL     1      45.510   7.147  11.793  0.00  0.00    +0.000 S 
ATOM     26  C   UNL     1      45.102   5.513  12.048  0.00  0.00    +0.000 A 
ATOM     27  N   UNL     1      43.969   4.973  11.530  0.00  0.00    +0.000 NA
ATOM     28  C   UNL     1      43.851   3.702  11.730  0.00  0.00    +0.000 A 
ATOM     29  N   UNL     1      44.787   2.915  12.353  0.00  0.00    +0.000 N 
ATOM     30  C   UNL     1      45.934   3.423  12.917  0.00  0.00    +0.000 A 
ATOM     31  O   UNL     1      46.779   2.707  13.441  0.00  0.00    +0.000 OA
ATOM     32  C   UNL     1      46.047   4.862  12.817  0.00  0.00    +0.000 A 
ATOM     33  H   UNL     1      44.671   1.913  12.392  0.00  0.00    +0.000 HD
ENDBRANCH  20  23
ENDBRANCH  18  19
ENDBRANCH   5  18
TORSDOF 6
ENDMDL
MODEL 6
REMARK VINA RESULT:    -7.231      2.365      3.950
REMARK INTER + INTRA:         -10.613
REMARK INTER:                  -9.640
REMARK INTRA:                  -0.972
REMARK UNBOUND:                -0.845
REMARK  Name = 
REMARK  7 active torsions:
REMARK  status: ('A' for Active; 'I' for Inactive)
REMARK    1  A    between atoms: C_1  and  C_2
REMARK    2  A    between atoms: C_2  and  C_3
REMARK    3  A    between atoms: C_2  and  C_25
REMARK    4  A    between atoms: C_3  and  N_4
REMARK    5  A    between atoms: C_8  and  C_9
REMARK    6  A    between atoms: C_9  and  N_10
REMARK    7  A    between atoms: C_11  and  C_13
REMARK                            x       y       z     vdW  Elec       q    Type
REMARK                         _______ _______ _______ _____ _____    ______ ____
ROOT
ATOM      1  N   UNL     1      47.068   5.353  12.726  0.00  0.00    +0.000 N 
ATOM      2  C   UNL     1      47.910   5.893  13.689  0.00  0.00    +0.000 A 
ATOM      3  N   UNL     1      47.746   5.555  14.971  0.00  0.00    +0.000 NA
ATOM      4  C   UNL     1      48.577   6.109  15.864  0.00  0.00    +0.000 A 
ATOM      5  C   UNL     1      49.577   6.999  15.530  0.00  0.00    +0.000 A 
ATOM      6  C   UNL     1      49.657   7.282  14.190  0.00  0.00    +0.000 A 
ATOM      7  N   UNL     1      48.833   6.763  13.256  0.00  0.00    +0.000 NA
ATOM      8  H   UNL     1      47.077   6.018  11.958  0.00  0.00    +0.000 HD
ENDROOT
BRANCH   1   9
ATOM      9  C   UNL     1      45.755   5.012  13.260  0.00  0.00    +0.000 C 
BRANCH   9  11
ATOM     10  C   UNL     1      43.246   5.213  12.926  0.00  0.00    +0.000 C 
ATOM     11  C   UNL     1      44.624   5.307  12.256  0.00  0.00    +0.000 C 
BRANCH  11  12
ATOM     12  C   UNL     1      44.750   4.487  10.988  0.00  0.00    +0.000 A 
ATOM     13  C   UNL     1      45.289   5.059   9.828  0.00  0.00    +0.000 A 
ATOM     14  C   UNL     1      45.377   4.307   8.659  0.00  0.00    +0.000 A 
ATOM     15  C   UNL     1      44.933   2.997   8.688  0.00  0.00    +0.000 A 
ATOM     16  N   UNL     1      44.435   2.400   9.789  0.00  0.00    +0.000 NA
ATOM     17  C   UNL     1      44.359   3.153  10.909  0.00  0.00    +0.000 A 
ENDBRANCH  11  12
ENDBRANCH   9  11
ENDBRANCH   1   9
BRANCH   5  18
ATOM     18  C   UNL     1      50.545   7.521  16.538  0.00  0.00    +0.000 C 
BRANCH  18  19
ATOM     19  N   UNL     1      51.004   6.470  17.429  0.00  0.00    +0.000 N 
ATOM     20  C   UNL     1      52.212   5.860  17.221  0.00  0.00    +0.000 C 
ATOM     21  O   UNL     1      52.961   6.188  16.293  0.00  0.00    +0.000 OA
ATOM     22  H   UNL     1      50.460   6.267  18.263  0.00  0.00    +0.000 HD
BRANCH  20  23
ATOM     23  C   UNL     1      52.557   4.709  18.051  0.00  0.00    +0.000 A 
ATOM     24  C   UNL     1      53.552   4.831  19.012  0.00  0.00    +0.000 A 
ATOM     25  S   UNL     1      54.184   3.323  19.495  0.00  0.00    +0.000 S 
ATOM     26  C   UNL     1      53.039   2.492  18.547  0.00  0.00    +0.000 A 
ATOM     27  N   UNL     1      53.093   1.145  18.385  0.00  0.00    +0.000 NA
ATOM     28  C   UNL     1      52.100   0.654  17.718  0.00  0.00    +0.000 A 
ATOM     29  N   UNL     1      51.035   1.379  17.246  0.00  0.00    +0.000 N 
ATOM     30  C   UNL     1      50.954   2.748  17.361  0.00  0.00    +0.000 A 
ATOM     31  O   UNL     1      49.983   3.383  16.966  0.00  0.00    +0.000 OA
ATOM     32  C   UNL     1      52.105   3.350  18.000  0.00  0.00    +0.000 A 
ATOM     33  H   UNL     1      50.250   0.916  16.814  0.00  0.00    +0.000 HD
ENDBRANCH  20  23
ENDBRANCH  18  19
ENDBRANCH   5  18
TORSDOF 6
ENDMDL
MODEL 7
REMARK VINA RESULT:    -7.231      1.636      2.475
REMARK INTER + INTRA:         -10.612
REMARK INTER:                  -9.979
REMARK INTRA:                  -0.634
REMARK UNBOUND:                -0.845
REMARK  Name = 
REMARK  7 active torsions:
REMARK  status: ('A' for Active; 'I' for Inactive)
REMARK    1  A    between atoms: C_1  and  C_2
REMARK    2  A    between atoms: C_2  and  C_3
REMARK    3  A    between atoms: C_2  and  C_25
REMARK    4  A    between atoms: C_3  and  N_4
REMARK    5  A    between atoms: C_8  and  C_9
REMARK    6  A    between atoms: C_9  and  N_10
REMARK    7  A    between atoms: C_11  and  C_13
REMARK                            x       y       z     vdW  Elec       q    Type
REMARK                         _______ _______ _______ _____ _____    ______ ____
ROOT
ATOM      1  N   UNL     1      45.578   5.975  11.757  0.00  0.00    +0.000 N 
ATOM      2  C   UNL     1      46.516   6.436  12.672  0.00  0.00    +0.000 A 
ATOM      3  N   UNL     1      47.370   5.573  13.231  0.00  0.00    +0.000 NA
ATOM      4  C   UNL     1      48.250   6.064  14.114  0.00  0.00    +0.000 A 
ATOM      5  C   UNL     1      48.316   7.395  14.471  0.00  0.00    +0.000 A 
ATOM      6  C   UNL     1      47.394   8.194  13.844  0.00  0.00    +0.000 A 
ATOM      7  N   UNL     1      46.477   7.744  12.961  0.00  0.00    +0.000 NA
ATOM      8  H   UNL     1      44.818   6.648  11.791  0.00  0.00    +0.000 HD
ENDROOT
BRANCH   1   9
ATOM      9  C   UNL     1      45.210   4.584  11.988  0.00  0.00    +0.000 C 
BRANCH   9  11
ATOM     10  C   UNL     1      43.359   2.936  11.436  0.00  0.00    +0.000 C 
ATOM     11  C   UNL     1      44.276   4.039  10.891  0.00  0.00    +0.000 C 
BRANCH  11  12
ATOM     12  C   UNL     1      45.027   3.652   9.633  0.00  0.00    +0.000 A 
ATOM     13  C   UNL     1      45.199   2.301   9.301  0.00  0.00    +0.000 A 
ATOM     14  C   UNL     1      45.914   1.953   8.158  0.00  0.00    +0.000 A 
ATOM     15  C   UNL     1      46.427   2.969   7.370  0.00  0.00    +0.000 A 
ATOM     16  N   UNL     1      46.261   4.280   7.639  0.00  0.00    +0.000 NA
ATOM     17  C   UNL     1      45.565   4.590   8.755  0.00  0.00    +0.000 A 
ENDBRANCH  11  12
ENDBRANCH   9  11
ENDBRANCH   1   9
BRANCH   5  18
ATOM     18  C   UNL     1      49.371   7.921  15.384  0.00  0.00    +0.000 C 
BRANCH  18  19
ATOM     19  N   UNL     1      50.112   6.845  16.017  0.00  0.00    +0.000 N 
ATOM     20  C   UNL     1      49.687   6.313  17.205  0.00  0.00    +0.000 C 
ATOM     21  O   UNL     1      48.658   6.705  17.768  0.00  0.00    +0.000 OA
ATOM     22  H   UNL     1      50.891   6.429  15.514  0.00  0.00    +0.000 HD
BRANCH  20  23
ATOM     23  C   UNL     1      50.548   5.342  17.874  0.00  0.00    +0.000 A 
ATOM     24  C   UNL     1      51.581   5.789  18.688  0.00  0.00    +0.000 A 
ATOM     25  S   UNL     1      52.775   4.599  18.943  0.00  0.00    +0.000 S 
ATOM     26  C   UNL     1      51.857   3.437  18.102  0.00  0.00    +0.000 A 
ATOM     27  N   UNL     1      52.355   2.205  17.819  0.00  0.00    +0.000 NA
ATOM     28  C   UNL     1      51.503   1.407  17.263  0.00  0.00    +0.000 A 
ATOM     29  N   UNL     1      50.188   1.711  17.014  0.00  0.00    +0.000 N 
ATOM     30  C   UNL     1      49.650   2.954  17.257  0.00  0.00    +0.000 A 
ATOM     31  O   UNL     1      48.466   3.205  17.062  0.00  0.00    +0.000 OA
ATOM     32  C   UNL     1      50.603   3.913  17.772  0.00  0.00    +0.000 A 
ATOM     33  H   UNL     1      49.556   1.007  16.662  0.00  0.00    +0.000 HD
ENDBRANCH  20  23
ENDBRANCH  18  19
ENDBRANCH   5  18
TORSDOF 6
ENDMDL
MODEL 8
REMARK VINA RESULT:    -7.161      3.662      4.713
REMARK INTER + INTRA:         -10.518
REMARK INTER:                  -9.498
REMARK INTRA:                  -1.020
REMARK UNBOUND:                -0.845
REMARK  Name = 
REMARK  7 active torsions:
REMARK  status: ('A' for Active; 'I' for Inactive)
REMARK    1  A    between atoms: C_1  and  C_2
REMARK    2  A    between atoms: C_2  and  C_3
REMARK    3  A    between atoms: C_2  and  C_25
REMARK    4  A    between atoms: C_3  and  N_4
REMARK    5  A    between atoms: C_8  and  C_9
REMARK    6  A    between atoms: C_9  and  N_10
REMARK    7  A    between atoms: C_11  and  C_13
REMARK                            x       y       z     vdW  Elec       q    Type
REMARK                         _______ _______ _______ _____ _____    ______ ____
ROOT
ATOM      1  N   UNL     1      44.929   4.487  10.976  0.00  0.00    +0.000 N 
ATOM      2  C   UNL     1      45.801   5.196  11.791  0.00  0.00    +0.000 A 
ATOM      3  N   UNL     1      46.446   6.259  11.300  0.00  0.00    +0.000 NA
ATOM      4  C   UNL     1      47.284   6.904  12.122  0.00  0.00    +0.000 A 
ATOM      5  C   UNL     1      47.511   6.532  13.432  0.00  0.00    +0.000 A 
ATOM      6  C   UNL     1      46.803   5.428  13.835  0.00  0.00    +0.000 A 
ATOM      7  N   UNL     1      45.962   4.734  13.039  0.00  0.00    +0.000 NA
ATOM      8  H   UNL     1      44.892   3.552  11.371  0.00  0.00    +0.000 HD
ENDROOT
BRANCH   1   9
ATOM      9  C   UNL     1      45.290   4.571   9.566  0.00  0.00    +0.000 C 
BRANCH   9  11
ATOM     10  C   UNL     1      44.243   2.262   9.700  0.00  0.00    +0.000 C 
ATOM     11  C   UNL     1      44.823   3.337   8.771  0.00  0.00    +0.000 C 
BRANCH  11  12
ATOM     12  C   UNL     1      45.889   2.824   7.825  0.00  0.00    +0.000 A 
ATOM     13  C   UNL     1      46.317   3.612   6.748  0.00  0.00    +0.000 A 
ATOM     14  C   UNL     1      47.277   3.122   5.867  0.00  0.00    +0.000 A 
ATOM     15  C   UNL     1      47.794   1.859   6.096  0.00  0.00    +0.000 A 
ATOM     16  N   UNL     1      47.431   1.080   7.135  0.00  0.00    +0.000 NA
ATOM     17  C   UNL     1      46.496   1.578   7.973  0.00  0.00    +0.000 A 
ENDBRANCH  11  12
ENDBRANCH   9  11
ENDBRANCH   1   9
BRANCH   5  18
ATOM     18  C   UNL     1      48.376   7.331  14.346  0.00  0.00    +0.000 C 
BRANCH  18  19
ATOM     19  N   UNL     1      49.764   7.306  13.923  0.00  0.00    +0.000 N 
ATOM     20  C   UNL     1      50.575   8.389  14.132  0.00  0.00    +0.000 C 
ATOM     21  O   UNL     1      50.171   9.410  14.700  0.00  0.00    +0.000 OA
ATOM     22  H   UNL     1      50.147   6.436  13.561  0.00  0.00    +0.000 HD
BRANCH  20  23
ATOM     23  C   UNL     1      51.915   8.371  13.552  0.00  0.00    +0.000 A 
ATOM     24  C   UNL     1      53.023   8.443  14.387  0.00  0.00    +0.000 A 
ATOM     25  S   UNL     1      54.431   8.940  13.565  0.00  0.00    +0.000 S 
ATOM     26  C   UNL     1      53.617   8.918  12.069  0.00  0.00    +0.000 A 
ATOM     27  N   UNL     1      54.202   9.377  10.933  0.00  0.00    +0.000 NA
ATOM     28  C   UNL     1      53.493   9.203   9.867  0.00  0.00    +0.000 A 
ATOM     29  N   UNL     1      52.277   8.567   9.827  0.00  0.00    +0.000 N 
ATOM     30  C   UNL     1      51.634   8.114  10.955  0.00  0.00    +0.000 A 
ATOM     31  O   UNL     1      50.565   7.517  10.906  0.00  0.00    +0.000 OA
ATOM     32  C   UNL     1      52.344   8.394  12.185  0.00  0.00    +0.000 A 
ATOM     33  H   UNL     1      51.822   8.385   8.945  0.00  0.00    +0.000 HD
ENDBRANCH  20  23
ENDBRANCH  18  19
ENDBRANCH   5  18
TORSDOF 6
ENDMDL
MODEL 9
REMARK VINA RESULT:    -7.130      2.007      2.686
REMARK INTER + INTRA:         -10.476
REMARK INTER:                  -9.341
REMARK INTRA:                  -1.135
REMARK UNBOUND:                -0.845
REMARK  Name = 
REMARK  7 active torsions:
REMARK  status: ('A' for Active; 'I' for Inactive)
REMARK    1  A    between atoms: C_1  and  C_2
REMARK    2  A    between atoms: C_2  and  C_3
REMARK    3  A    between atoms: C_2  and  C_25
REMARK    4  A    between atoms: C_3  and  N_4
REMARK    5  A    between atoms: C_8  and  C_9
REMARK    6  A    between atoms: C_9  and  N_10
REMARK    7  A    between atoms: C_11  and  C_13
REMARK                            x       y       z     vdW  Elec       q    Type
REMARK                         _______ _______ _______ _____ _____    ______ ____
ROOT
ATOM      1  N   UNL     1      44.281   4.711  12.984  0.00  0.00    +0.000 N 
ATOM      2  C   UNL     1      45.472   5.393  13.201  0.00  0.00    +0.000 A 
ATOM      3  N   UNL     1      45.678   6.567  12.597  0.00  0.00    +0.000 NA
ATOM      4  C   UNL     1      46.846   7.181  12.830  0.00  0.00    +0.000 A 
ATOM      5  C   UNL     1      47.831   6.670  13.649  0.00  0.00    +0.000 A 
ATOM      6  C   UNL     1      47.521   5.459  14.215  0.00  0.00    +0.000 A 
ATOM      7  N   UNL     1      46.368   4.794  13.998  0.00  0.00    +0.000 NA
ATOM      8  H   UNL     1      44.495   3.734  13.163  0.00  0.00    +0.000 HD
ENDROOT
BRANCH   1   9
ATOM      9  C   UNL     1      43.696   5.009  11.682  0.00  0.00    +0.000 C 
BRANCH   9  11
ATOM     10  C   UNL     1      43.417   2.486  11.707  0.00  0.00    +0.000 C 
ATOM     11  C   UNL     1      43.499   3.742  10.829  0.00  0.00    +0.000 C 
BRANCH  11  12
ATOM     12  C   UNL     1      44.506   3.643   9.702  0.00  0.00    +0.000 A 
ATOM     13  C   UNL     1      44.849   2.393   9.169  0.00  0.00    +0.000 A 
ATOM     14  C   UNL     1      45.796   2.309   8.151  0.00  0.00    +0.000 A 
ATOM     15  C   UNL     1      46.364   3.482   7.685  0.00  0.00    +0.000 A 
ATOM     16  N   UNL     1      46.042   4.705   8.150  0.00  0.00    +0.000 NA
ATOM     17  C   UNL     1      45.122   4.758   9.139  0.00  0.00    +0.000 A 
ENDBRANCH  11  12
ENDBRANCH   9  11
ENDBRANCH   1   9
BRANCH   5  18
ATOM     18  C   UNL     1      49.077   7.427  13.961  0.00  0.00    +0.000 C 
BRANCH  18  19
ATOM     19  N   UNL     1      49.417   7.334  15.369  0.00  0.00    +0.000 N 
ATOM     20  C   UNL     1      50.720   7.437  15.778  0.00  0.00    +0.000 C 
ATOM     21  O   UNL     1      51.644   7.633  14.980  0.00  0.00    +0.000 OA
ATOM     22  H   UNL     1      48.664   7.292  16.051  0.00  0.00    +0.000 HD
BRANCH  20  23
ATOM     23  C   UNL     1      51.025   7.184  17.184  0.00  0.00    +0.000 A 
ATOM     24  C   UNL     1      51.404   8.240  18.003  0.00  0.00    +0.000 A 
ATOM     25  S   UNL     1      52.216   7.719  19.408  0.00  0.00    +0.000 S 
ATOM     26  C   UNL     1      51.940   6.086  19.014  0.00  0.00    +0.000 A 
ATOM     27  N   UNL     1      52.496   5.076  19.733  0.00  0.00    +0.000 NA
ATOM     28  C   UNL     1      52.113   3.897  19.369  0.00  0.00    +0.000 A 
ATOM     29  N   UNL     1      51.187   3.639  18.389  0.00  0.00    +0.000 N 
ATOM     30  C   UNL     1      50.621   4.627  17.617  0.00  0.00    +0.000 A 
ATOM     31  O   UNL     1      49.771   4.390  16.768  0.00  0.00    +0.000 OA
ATOM     32  C   UNL     1      51.113   5.956  17.915  0.00  0.00    +0.000 A 
ATOM     33  H   UNL     1      50.867   2.697  18.221  0.00  0.00    +0.000 HD
ENDBRANCH  20  23
ENDBRANCH  18  19
ENDBRANCH   5  18
TORSDOF 6
ENDMDL
