MODEL 1
REMARK VINA RESULT:    -8.858      0.000      0.000
REMARK INTER + INTRA:         -12.338
REMARK INTER:                 -11.448
REMARK INTRA:                  -0.890
REMARK UNBOUND:                -0.890
REMARK  Name = 
REMARK  5 active torsions:
REMARK  status: ('A' for Active; 'I' for Inactive)
REMARK    1  A    between atoms: C_2  and  C_4
REMARK    2  A    between atoms: C_7  and  O_8
REMARK    3  A    between atoms: O_8  and  C_9
REMARK    4  A    between atoms: C_9  and  C_10
REMARK    5  A    between atoms: C_15  and  C_16
REMARK                            x       y       z     vdW  Elec       q    Type
REMARK                         _______ _______ _______ _____ _____    ______ ____
ROOT
ATOM      1  C   UNL     1      44.890   4.745  12.023  0.00  0.00    +0.000 A 
ATOM      2  C   UNL     1      45.510   3.880  12.927  0.00  0.00    +0.000 A 
ATOM      3  C   UNL     1      46.673   4.280  13.570  0.00  0.00    +0.000 A 
ATOM      4  F   UNL     1      47.259   3.449  14.442  0.00  0.00    +0.000 F 
ATOM      5  C   UNL     1      47.233   5.532  13.340  0.00  0.00    +0.000 A 
ATOM      6  C   UNL     1      46.648   6.429  12.430  0.00  0.00    +0.000 A 
ATOM      7  C   UNL     1      45.473   6.002  11.774  0.00  0.00    +0.000 A 
ENDROOT
BRANCH   6   8
ATOM      8  C   UNL     1      47.230   7.772  12.181  0.00  0.00    +0.000 A 
ATOM      9  C   UNL     1      46.473   8.948  12.350  0.00  0.00    +0.000 A 
ATOM     10  C   UNL     1      47.015  10.216  12.102  0.00  0.00    +0.000 A 
ATOM     11  C   UNL     1      48.337  10.337  11.691  0.00  0.00    +0.000 A 
ATOM     12  C   UNL     1      49.100   9.190  11.526  0.00  0.00    +0.000 A 
ATOM     13  F   UNL     1      50.376   9.298  11.132  0.00  0.00    +0.000 F 
ATOM     14  C   UNL     1      48.562   7.925  11.757  0.00  0.00    +0.000 A 
ENDBRANCH   6   8
BRANCH   1  15
ATOM     15  C   UNL     1      43.591   4.363  11.357  0.00  0.00    +0.000 C 
BRANCH  15  16
ATOM     16  O   UNL     1      43.684   4.614   9.955  0.00  0.00    +0.000 OA
BRANCH  16  20
ATOM     17  C   UNL     1      46.437   2.557   7.708  0.00  0.00    +0.000 A 
ATOM     18  C   UNL     1      45.641   1.800   8.557  0.00  0.00    +0.000 A 
ATOM     19  C   UNL     1      44.693   2.455   9.342  0.00  0.00    +0.000 A 
ATOM     20  C   UNL     1      44.564   3.840   9.256  0.00  0.00    +0.000 A 
ATOM     21  C   UNL     1      45.410   4.509   8.374  0.00  0.00    +0.000 A 
ATOM     22  N   UNL     1      46.349   3.910   7.597  0.00  0.00    +0.000 NA
BRANCH  17  24
ATOM     23  N   UNL     1      48.505   2.649   6.445  0.00  0.00    +0.000 N 
ATOM     24  C   UNL     1      47.460   1.870   6.856  0.00  0.00    +0.000 C 
ATOM     25  O   UNL     1      47.375   0.688   6.550  0.00  0.00    +0.000 OA
ATOM     26  H   UNL     1      49.237   2.242   5.883  0.00  0.00    +0.000 HD
ATOM     27  H   UNL     1      48.555   3.619   6.738  0.00  0.00    +0.000 HD
ENDBRANCH  17  24
ENDBRANCH  16  20
ENDBRANCH  15  16
ENDBRANCH   1  15
TORSDOF 5
ENDMDL
MODEL 2
REMARK VINA RESULT:    -8.761      1.273      1.594
REMARK INTER + INTRA:         -12.213
REMARK INTER:                 -11.350
REMARK INTRA:                  -0.863
REMARK UNBOUND:                -0.890
REMARK  Name = 
REMARK  5 active torsions:
REMARK  status: ('A' for Active; 'I' for Inactive)
REMARK    1  A    between atoms: C_2  and  C_4
REMARK    2  A    between atoms: C_7  and  O_8
REMARK    3  A    between atoms: O_8  and  C_9
REMARK    4  A    between atoms: C_9  and  C_10
REMARK    5  A    between atoms: C_15  and  C_16
REMARK                            x       y       z     vdW  Elec       q    Type
REMARK                         _______ _______ _______ _____ _____    ______ ____
ROOT
ATOM      1  C   UNL     1      44.882   4.215  12.147  0.00  0.00    +0.000 A 
ATOM      2  C   UNL     1      45.657   3.440  13.012  0.00  0.00    +0.000 A 
ATOM      3  C   UNL     1      46.761   4.005  13.634  0.00  0.00    +0.000 A 
ATOM      4  F   UNL     1      47.497   3.260  14.469  0.00  0.00    +0.000 F 
ATOM      5  C   UNL     1      47.111   5.335  13.421  0.00  0.00    +0.000 A 
ATOM      6  C   UNL     1      46.365   6.147  12.549  0.00  0.00    +0.000 A 
ATOM      7  C   UNL     1      45.253   5.553  11.914  0.00  0.00    +0.000 A 
ENDROOT
BRANCH   6   8
ATOM      8  C   UNL     1      46.722   7.569  12.318  0.00  0.00    +0.000 A 
ATOM      9  C   UNL     1      48.052   7.966  12.075  0.00  0.00    +0.000 A 
ATOM     10  C   UNL     1      48.395   9.309  11.872  0.00  0.00    +0.000 A 
ATOM     11  C   UNL     1      47.408  10.288  11.892  0.00  0.00    +0.000 A 
ATOM     12  C   UNL     1      46.092   9.915  12.122  0.00  0.00    +0.000 A 
ATOM     13  F   UNL     1      45.135  10.851  12.140  0.00  0.00    +0.000 F 
ATOM     14  C   UNL     1      45.747   8.582  12.339  0.00  0.00    +0.000 A 
ENDBRANCH   6   8
BRANCH   1  15
ATOM     15  C   UNL     1      43.640   3.646  11.506  0.00  0.00    +0.000 C 
BRANCH  15  16
ATOM     16  O   UNL     1      43.586   4.045  10.137  0.00  0.00    +0.000 OA
BRANCH  16  20
ATOM     17  C   UNL     1      46.454   2.710   7.518  0.00  0.00    +0.000 A 
ATOM     18  C   UNL     1      45.890   1.757   8.357  0.00  0.00    +0.000 A 
ATOM     19  C   UNL     1      44.913   2.164   9.265  0.00  0.00    +0.000 A 
ATOM     20  C   UNL     1      44.527   3.503   9.309  0.00  0.00    +0.000 A 
ATOM     21  C   UNL     1      45.153   4.380   8.426  0.00  0.00    +0.000 A 
ATOM     22  N   UNL     1      46.110   4.026   7.531  0.00  0.00    +0.000 NA
BRANCH  17  24
ATOM     23  N   UNL     1      47.547   3.012   5.375  0.00  0.00    +0.000 N 
ATOM     24  C   UNL     1      47.503   2.290   6.535  0.00  0.00    +0.000 C 
ATOM     25  O   UNL     1      48.277   1.367   6.752  0.00  0.00    +0.000 OA
ATOM     26  H   UNL     1      48.243   2.792   4.679  0.00  0.00    +0.000 HD
ATOM     27  H   UNL     1      46.906   3.786   5.240  0.00  0.00    +0.000 HD
ENDBRANCH  17  24
ENDBRANCH  16  20
ENDBRANCH  15  16
ENDBRANCH   1  15
TORSDOF 5
ENDMDL
MODEL 3
REMARK VINA RESULT:    -8.507      4.060      7.366
REMARK INTER + INTRA:         -11.884
REMARK INTER:                 -11.372
REMARK INTRA:                  -0.512
REMARK UNBOUND:                -0.890
REMARK  Name = 
REMARK  5 active torsions:
REMARK  status: ('A' for Active; 'I' for Inactive)
REMARK    1  A    between atoms: C_2  and  C_4
REMARK    2  A    between atoms: C_7  and  O_8
REMARK    3  A    between atoms: O_8  and  C_9
REMARK    4  A    between atoms: C_9  and  C_10
REMARK    5  A    between atoms: C_15  and  C_16
REMARK                            x       y       z     vdW  Elec       q    Type
REMARK                         _______ _______ _______ _____ _____    ______ ____
ROOT
ATOM      1  C   UNL     1      45.392   6.299  11.341  0.00  0.00    +0.000 A 
ATOM      2  C   UNL     1      44.040   6.195  11.675  0.00  0.00    +0.000 A 
ATOM      3  C   UNL     1      43.244   5.261  11.026  0.00  0.00    +0.000 A 
ATOM      4  F   UNL     1      41.950   5.161  11.355  0.00  0.00    +0.000 F 
ATOM      5  C   UNL     1      43.767   4.416  10.052  0.00  0.00    +0.000 A 
ATOM      6  C   UNL     1      45.119   4.495   9.677  0.00  0.00    +0.000 A 
ATOM      7  C   UNL     1      45.912   5.459  10.337  0.00  0.00    +0.000 A 
ENDROOT
BRANCH   6   8
ATOM      8  C   UNL     1      45.692   3.595   8.645  0.00  0.00    +0.000 A 
ATOM      9  C   UNL     1      46.246   4.099   7.451  0.00  0.00    +0.000 A 
ATOM     10  C   UNL     1      46.774   3.251   6.469  0.00  0.00    +0.000 A 
ATOM     11  C   UNL     1      46.772   1.875   6.665  0.00  0.00    +0.000 A 
ATOM     12  C   UNL     1      46.237   1.362   7.837  0.00  0.00    +0.000 A 
ATOM     13  F   UNL     1      46.234   0.037   8.036  0.00  0.00    +0.000 F 
ATOM     14  C   UNL     1      45.698   2.199   8.813  0.00  0.00    +0.000 A 
ENDBRANCH   6   8
BRANCH   1  15
ATOM     15  C   UNL     1      46.295   7.260  12.073  0.00  0.00    +0.000 C 
BRANCH  15  16
ATOM     16  O   UNL     1      47.520   6.605  12.400  0.00  0.00    +0.000 OA
BRANCH  16  20
ATOM     17  C   UNL     1      47.492   4.551  15.956  0.00  0.00    +0.000 A 
ATOM     18  C   UNL     1      48.247   5.716  15.919  0.00  0.00    +0.000 A 
ATOM     19  C   UNL     1      48.289   6.446  14.733  0.00  0.00    +0.000 A 
ATOM     20  C   UNL     1      47.578   5.998  13.621  0.00  0.00    +0.000 A 
ATOM     21  C   UNL     1      46.850   4.817  13.759  0.00  0.00    +0.000 A 
ATOM     22  N   UNL     1      46.787   4.075  14.894  0.00  0.00    +0.000 NA
BRANCH  17  24
ATOM     23  N   UNL     1      48.429   4.009  18.125  0.00  0.00    +0.000 N 
ATOM     24  C   UNL     1      47.434   3.755  17.223  0.00  0.00    +0.000 C 
ATOM     25  O   UNL     1      46.552   2.935  17.445  0.00  0.00    +0.000 OA
ATOM     26  H   UNL     1      48.437   3.519  19.007  0.00  0.00    +0.000 HD
ATOM     27  H   UNL     1      49.129   4.713  17.917  0.00  0.00    +0.000 HD
ENDBRANCH  17  24
ENDBRANCH  16  20
ENDBRANCH  15  16
ENDBRANCH   1  15
TORSDOF 5
ENDMDL
MODEL 4
REMARK VINA RESULT:    -8.364      2.126      2.817
REMARK INTER + INTRA:         -11.699
REMARK INTER:                 -10.873
REMARK INTRA:                  -0.826
REMARK UNBOUND:                -0.890
REMARK  Name = 
REMARK  5 active torsions:
REMARK  status: ('A' for Active; 'I' for Inactive)
REMARK    1  A    between atoms: C_2  and  C_4
REMARK    2  A    between atoms: C_7  and  O_8
REMARK    3  A    between atoms: O_8  and  C_9
REMARK    4  A    between atoms: C_9  and  C_10
REMARK    5  A    between atoms: C_15  and  C_16
REMARK                            x       y       z     vdW  Elec       q    Type
REMARK                         _______ _______ _______ _____ _____    ______ ____
ROOT
ATOM      1  C   UNL     1      44.389   4.848  11.712  0.00  0.00    +0.000 A 
ATOM      2  C   UNL     1      43.460   5.821  11.340  0.00  0.00    +0.000 A 
ATOM      3  C   UNL     1      43.831   7.158  11.338  0.00  0.00    +0.000 A 
ATOM      4  F   UNL     1      42.938   8.087  10.973  0.00  0.00    +0.000 F 
ATOM      5  C   UNL     1      45.118   7.552  11.693  0.00  0.00    +0.000 A 
ATOM      6  C   UNL     1      46.081   6.606  12.085  0.00  0.00    +0.000 A 
ATOM      7  C   UNL     1      45.683   5.253  12.094  0.00  0.00    +0.000 A 
ENDROOT
BRANCH   6   8
ATOM      8  C   UNL     1      47.459   7.012  12.458  0.00  0.00    +0.000 A 
ATOM      9  C   UNL     1      48.284   7.728  11.568  0.00  0.00    +0.000 A 
ATOM     10  C   UNL     1      49.590   8.100  11.911  0.00  0.00    +0.000 A 
ATOM     11  C   UNL     1      50.098   7.775  13.164  0.00  0.00    +0.000 A 
ATOM     12  C   UNL     1      49.297   7.077  14.056  0.00  0.00    +0.000 A 
ATOM     13  F   UNL     1      49.778   6.763  15.267  0.00  0.00    +0.000 F 
ATOM     14  C   UNL     1      48.002   6.692  13.715  0.00  0.00    +0.000 A 
ENDBRANCH   6   8
BRANCH   1  15
ATOM     15  C   UNL     1      44.033   3.382  11.662  0.00  0.00    +0.000 C 
BRANCH  15  16
ATOM     16  O   UNL     1      43.572   3.050  10.353  0.00  0.00    +0.000 OA
BRANCH  16  20
ATOM     17  C   UNL     1      46.465   2.577   7.477  0.00  0.00    +0.000 A 
ATOM     18  C   UNL     1      45.906   3.843   7.590  0.00  0.00    +0.000 A 
ATOM     19  C   UNL     1      44.918   4.051   8.551  0.00  0.00    +0.000 A 
ATOM     20  C   UNL     1      44.519   2.997   9.371  0.00  0.00    +0.000 A 
ATOM     21  C   UNL     1      45.142   1.765   9.179  0.00  0.00    +0.000 A 
ATOM     22  N   UNL     1      46.103   1.519   8.252  0.00  0.00    +0.000 NA
BRANCH  17  24
ATOM     23  N   UNL     1      47.483   3.144   5.351  0.00  0.00    +0.000 N 
ATOM     24  C   UNL     1      47.530   2.335   6.452  0.00  0.00    +0.000 C 
ATOM     25  O   UNL     1      48.391   1.476   6.587  0.00  0.00    +0.000 OA
ATOM     26  H   UNL     1      48.182   3.046   4.631  0.00  0.00    +0.000 HD
ATOM     27  H   UNL     1      46.769   3.862   5.284  0.00  0.00    +0.000 HD
ENDBRANCH  17  24
ENDBRANCH  16  20
ENDBRANCH  15  16
ENDBRANCH   1  15
TORSDOF 5
ENDMDL
MODEL 5
REMARK VINA RESULT:    -8.247      2.066      4.196
REMARK INTER + INTRA:         -11.548
REMARK INTER:                 -10.772
REMARK INTRA:                  -0.776
REMARK UNBOUND:                -0.890
REMARK  Name = 
REMARK  5 active torsions:
REMARK  status: ('A' for Active; 'I' for Inactive)
REMARK    1  A    between atoms: C_2  and  C_4
REMARK    2  A    between atoms: C_7  and  O_8
REMARK    3  A    between atoms: O_8  and  C_9
REMARK    4  A    between atoms: C_9  and  C_10
REMARK    5  A    between atoms: C_15  and  C_16
REMARK                            x       y       z     vdW  Elec       q    Type
REMARK                         _______ _______ _______ _____ _____    ______ ____
ROOT
ATOM      1  C   UNL     1      45.001   5.143  12.210  0.00  0.00    +0.000 A 
ATOM      2  C   UNL     1      45.314   6.364  11.607  0.00  0.00    +0.000 A 
ATOM      3  C   UNL     1      46.293   7.172  12.165  0.00  0.00    +0.000 A 
ATOM      4  F   UNL     1      46.594   8.338  11.578  0.00  0.00    +0.000 F 
ATOM      5  C   UNL     1      46.981   6.789  13.312  0.00  0.00    +0.000 A 
ATOM      6  C   UNL     1      46.691   5.575  13.957  0.00  0.00    +0.000 A 
ATOM      7  C   UNL     1      45.683   4.770  13.385  0.00  0.00    +0.000 A 
ENDROOT
BRANCH   6   8
ATOM      8  C   UNL     1      47.423   5.151  15.177  0.00  0.00    +0.000 A 
ATOM      9  C   UNL     1      48.469   5.925  15.717  0.00  0.00    +0.000 A 
ATOM     10  C   UNL     1      49.172   5.521  16.859  0.00  0.00    +0.000 A 
ATOM     11  C   UNL     1      48.832   4.335  17.499  0.00  0.00    +0.000 A 
ATOM     12  C   UNL     1      47.800   3.563  16.986  0.00  0.00    +0.000 A 
ATOM     13  F   UNL     1      47.464   2.420  17.599  0.00  0.00    +0.000 F 
ATOM     14  C   UNL     1      47.106   3.953  15.842  0.00  0.00    +0.000 A 
ENDBRANCH   6   8
BRANCH   1  15
ATOM     15  C   UNL     1      43.986   4.214  11.591  0.00  0.00    +0.000 C 
BRANCH  15  16
ATOM     16  O   UNL     1      43.870   4.499  10.197  0.00  0.00    +0.000 OA
BRANCH  16  20
ATOM     17  C   UNL     1      46.370   2.230   7.859  0.00  0.00    +0.000 A 
ATOM     18  C   UNL     1      46.358   3.596   7.608  0.00  0.00    +0.000 A 
ATOM     19  C   UNL     1      45.523   4.407   8.376  0.00  0.00    +0.000 A 
ATOM     20  C   UNL     1      44.729   3.836   9.369  0.00  0.00    +0.000 A 
ATOM     21  C   UNL     1      44.814   2.455   9.542  0.00  0.00    +0.000 A 
ATOM     22  N   UNL     1      45.609   1.631   8.815  0.00  0.00    +0.000 NA
BRANCH  17  24
ATOM     23  N   UNL     1      48.292   1.974   6.404  0.00  0.00    +0.000 N 
ATOM     24  C   UNL     1      47.263   1.344   7.046  0.00  0.00    +0.000 C 
ATOM     25  O   UNL     1      47.092   0.135   6.963  0.00  0.00    +0.000 OA
ATOM     26  H   UNL     1      48.941   1.431   5.854  0.00  0.00    +0.000 HD
ATOM     27  H   UNL     1      48.418   2.974   6.515  0.00  0.00    +0.000 HD
ENDBRANCH  17  24
ENDBRANCH  16  20
ENDBRANCH  15  16
ENDBRANCH   1  15
TORSDOF 5
ENDMDL
MODEL 6
REMARK VINA RESULT:    -7.965      3.940      7.360
REMARK INTER + INTRA:         -11.184
REMARK INTER:                 -10.578
REMARK INTRA:                  -0.606
REMARK UNBOUND:                -0.890
REMARK  Name = 
REMARK  5 active torsions:
REMARK  status: ('A' for Active; 'I' for Inactive)
REMARK    1  A    between atoms: C_2  and  C_4
REMARK    2  A    between atoms: C_7  and  O_8
REMARK    3  A    between atoms: O_8  and  C_9
REMARK    4  A    between atoms: C_9  and  C_10
REMARK    5  A    between atoms: C_15  and  C_16
REMARK                            x       y       z     vdW  Elec       q    Type
REMARK                         _______ _______ _______ _____ _____    ______ ____
ROOT
ATOM      1  C   UNL     1      44.688   5.522  10.989  0.00  0.00    +0.000 A 
ATOM      2  C   UNL     1      43.790   4.751  11.730  0.00  0.00    +0.000 A 
ATOM      3  C   UNL     1      43.566   3.429  11.373  0.00  0.00    +0.000 A 
ATOM      4  F   UNL     1      42.709   2.692  12.092  0.00  0.00    +0.000 F 
ATOM      5  C   UNL     1      44.225   2.848  10.294  0.00  0.00    +0.000 A 
ATOM      6  C   UNL     1      45.129   3.591   9.515  0.00  0.00    +0.000 A 
ATOM      7  C   UNL     1      45.335   4.938   9.883  0.00  0.00    +0.000 A 
ENDROOT
BRANCH   6   8
ATOM      8  C   UNL     1      45.845   2.983   8.366  0.00  0.00    +0.000 A 
ATOM      9  C   UNL     1      46.281   3.758   7.273  0.00  0.00    +0.000 A 
ATOM     10  C   UNL     1      46.944   3.185   6.181  0.00  0.00    +0.000 A 
ATOM     11  C   UNL     1      47.200   1.819   6.164  0.00  0.00    +0.000 A 
ATOM     12  C   UNL     1      46.785   1.041   7.234  0.00  0.00    +0.000 A 
ATOM     13  F   UNL     1      47.031  -0.276   7.227  0.00  0.00    +0.000 F 
ATOM     14  C   UNL     1      46.112   1.603   8.318  0.00  0.00    +0.000 A 
ENDBRANCH   6   8
BRANCH   1  15
ATOM     15  C   UNL     1      44.999   6.943  11.392  0.00  0.00    +0.000 C 
BRANCH  15  16
ATOM     16  O   UNL     1      46.411   7.147  11.357  0.00  0.00    +0.000 OA
BRANCH  16  20
ATOM     17  C   UNL     1      48.338   6.570  14.937  0.00  0.00    +0.000 A 
ATOM     18  C   UNL     1      48.227   7.883  14.498  0.00  0.00    +0.000 A 
ATOM     19  C   UNL     1      47.582   8.128  13.287  0.00  0.00    +0.000 A 
ATOM     20  C   UNL     1      47.067   7.062  12.551  0.00  0.00    +0.000 A 
ATOM     21  C   UNL     1      47.230   5.782  13.077  0.00  0.00    +0.000 A 
ATOM     22  N   UNL     1      47.855   5.500  14.249  0.00  0.00    +0.000 NA
BRANCH  17  24
ATOM     23  N   UNL     1      48.267   6.477  17.358  0.00  0.00    +0.000 N 
ATOM     24  C   UNL     1      49.026   6.288  16.237  0.00  0.00    +0.000 C 
ATOM     25  O   UNL     1      50.188   5.907  16.298  0.00  0.00    +0.000 OA
ATOM     26  H   UNL     1      48.665   6.287  18.266  0.00  0.00    +0.000 HD
ATOM     27  H   UNL     1      47.300   6.770  17.268  0.00  0.00    +0.000 HD
ENDBRANCH  17  24
ENDBRANCH  16  20
ENDBRANCH  15  16
ENDBRANCH   1  15
TORSDOF 5
ENDMDL
MODEL 7
REMARK VINA RESULT:    -7.965      3.735      6.827
REMARK INTER + INTRA:         -11.184
REMARK INTER:                 -10.315
REMARK INTRA:                  -0.869
REMARK UNBOUND:                -0.890
REMARK  Name = 
REMARK  5 active torsions:
REMARK  status: ('A' for Active; 'I' for Inactive)
REMARK    1  A    between atoms: C_2  and  C_4
REMARK    2  A    between atoms: C_7  and  O_8
REMARK    3  A    between atoms: O_8  and  C_9
REMARK    4  A    between atoms: C_9  and  C_10
REMARK    5  A    between atoms: C_15  and  C_16
REMARK                            x       y       z     vdW  Elec       q    Type
REMARK                         _______ _______ _______ _____ _____    ______ ____
ROOT
ATOM      1  C   UNL     1      44.258   5.303  11.118  0.00  0.00    +0.000 A 
ATOM      2  C   UNL     1      43.598   4.400  11.954  0.00  0.00    +0.000 A 
ATOM      3  C   UNL     1      43.626   3.045  11.658  0.00  0.00    +0.000 A 
ATOM      4  F   UNL     1      42.998   2.183  12.468  0.00  0.00    +0.000 F 
ATOM      5  C   UNL     1      44.308   2.561  10.545  0.00  0.00    +0.000 A 
ATOM      6  C   UNL     1      44.976   3.436   9.671  0.00  0.00    +0.000 A 
ATOM      7  C   UNL     1      44.927   4.812   9.979  0.00  0.00    +0.000 A 
ENDROOT
BRANCH   6   8
ATOM      8  C   UNL     1      45.713   2.933   8.485  0.00  0.00    +0.000 A 
ATOM      9  C   UNL     1      46.107   3.793   7.440  0.00  0.00    +0.000 A 
ATOM     10  C   UNL     1      46.790   3.319   6.313  0.00  0.00    +0.000 A 
ATOM     11  C   UNL     1      47.109   1.970   6.211  0.00  0.00    +0.000 A 
ATOM     12  C   UNL     1      46.736   1.110   7.233  0.00  0.00    +0.000 A 
ATOM     13  F   UNL     1      47.043  -0.191   7.144  0.00  0.00    +0.000 F 
ATOM     14  C   UNL     1      46.044   1.573   8.351  0.00  0.00    +0.000 A 
ENDBRANCH   6   8
BRANCH   1  15
ATOM     15  C   UNL     1      44.299   6.774  11.449  0.00  0.00    +0.000 C 
BRANCH  15  16
ATOM     16  O   UNL     1      45.006   6.966  12.673  0.00  0.00    +0.000 OA
BRANCH  16  20
ATOM     17  C   UNL     1      49.046   7.672  12.453  0.00  0.00    +0.000 A 
ATOM     18  C   UNL     1      48.213   8.731  12.117  0.00  0.00    +0.000 A 
ATOM     19  C   UNL     1      46.833   8.538  12.175  0.00  0.00    +0.000 A 
ATOM     20  C   UNL     1      46.325   7.301  12.566  0.00  0.00    +0.000 A 
ATOM     21  C   UNL     1      47.244   6.302  12.883  0.00  0.00    +0.000 A 
ATOM     22  N   UNL     1      48.593   6.447  12.835  0.00  0.00    +0.000 NA
BRANCH  17  24
ATOM     23  N   UNL     1      51.148   7.365  11.285  0.00  0.00    +0.000 N 
ATOM     24  C   UNL     1      50.530   7.862  12.399  0.00  0.00    +0.000 C 
ATOM     25  O   UNL     1      51.154   8.430  13.286  0.00  0.00    +0.000 OA
ATOM     26  H   UNL     1      52.145   7.476  11.179  0.00  0.00    +0.000 HD
ATOM     27  H   UNL     1      50.596   6.922  10.559  0.00  0.00    +0.000 HD
ENDBRANCH  17  24
ENDBRANCH  16  20
ENDBRANCH  15  16
ENDBRANCH   1  15
TORSDOF 5
ENDMDL
MODEL 8
REMARK VINA RESULT:    -7.729      1.183      1.692
REMARK INTER + INTRA:         -10.879
REMARK INTER:                 -10.118
REMARK INTRA:                  -0.761
REMARK UNBOUND:                -0.890
REMARK  Name = 
REMARK  5 active torsions:
REMARK  status: ('A' for Active; 'I' for Inactive)
REMARK    1  A    between atoms: C_2  and  C_4
REMARK    2  A    between atoms: C_7  and  O_8
REMARK    3  A    between atoms: O_8  and  C_9
REMARK    4  A    between atoms: C_9  and  C_10
REMARK    5  A    between atoms: C_15  and  C_16
REMARK                            x       y       z     vdW  Elec       q    Type
REMARK                         _______ _______ _______ _____ _____    ______ ____
ROOT
ATOM      1  C   UNL     1      45.707   5.892  11.693  0.00  0.00    +0.000 A 
ATOM      2  C   UNL     1      45.499   5.044  12.782  0.00  0.00    +0.000 A 
ATOM      3  C   UNL     1      46.425   5.014  13.815  0.00  0.00    +0.000 A 
ATOM      4  F   UNL     1      46.217   4.204  14.861  0.00  0.00    +0.000 F 
ATOM      5  C   UNL     1      47.558   5.822  13.794  0.00  0.00    +0.000 A 
ATOM      6  C   UNL     1      47.812   6.683  12.712  0.00  0.00    +0.000 A 
ATOM      7  C   UNL     1      46.867   6.691  11.665  0.00  0.00    +0.000 A 
ENDROOT
BRANCH   6   8
ATOM      8  C   UNL     1      49.012   7.555  12.681  0.00  0.00    +0.000 A 
ATOM      9  C   UNL     1      49.939   7.575  13.743  0.00  0.00    +0.000 A 
ATOM     10  C   UNL     1      51.065   8.408  13.724  0.00  0.00    +0.000 A 
ATOM     11  C   UNL     1      51.299   9.233  12.630  0.00  0.00    +0.000 A 
ATOM     12  C   UNL     1      50.401   9.222  11.572  0.00  0.00    +0.000 A 
ATOM     13  F   UNL     1      50.621  10.012  10.513  0.00  0.00    +0.000 F 
ATOM     14  C   UNL     1      49.272   8.406  11.592  0.00  0.00    +0.000 A 
ENDBRANCH   6   8
BRANCH   1  15
ATOM     15  C   UNL     1      44.686   5.993  10.587  0.00  0.00    +0.000 C 
BRANCH  15  16
ATOM     16  O   UNL     1      44.151   4.698  10.316  0.00  0.00    +0.000 OA
BRANCH  16  20
ATOM     17  C   UNL     1      46.495   2.539   7.726  0.00  0.00    +0.000 A 
ATOM     18  C   UNL     1      45.755   1.808   8.647  0.00  0.00    +0.000 A 
ATOM     19  C   UNL     1      44.946   2.498   9.548  0.00  0.00    +0.000 A 
ATOM     20  C   UNL     1      44.895   3.890   9.505  0.00  0.00    +0.000 A 
ATOM     21  C   UNL     1      45.675   4.530   8.544  0.00  0.00    +0.000 A 
ATOM     22  N   UNL     1      46.479   3.897   7.652  0.00  0.00    +0.000 NA
BRANCH  17  24
ATOM     23  N   UNL     1      48.382   2.552   6.204  0.00  0.00    +0.000 N 
ATOM     24  C   UNL     1      47.368   1.814   6.748  0.00  0.00    +0.000 C 
ATOM     25  O   UNL     1      47.194   0.638   6.456  0.00  0.00    +0.000 OA
ATOM     26  H   UNL     1      49.017   2.117   5.551  0.00  0.00    +0.000 HD
ATOM     27  H   UNL     1      48.510   3.517   6.487  0.00  0.00    +0.000 HD
ENDBRANCH  17  24
ENDBRANCH  16  20
ENDBRANCH  15  16
ENDBRANCH   1  15
TORSDOF 5
ENDMDL
MODEL 9
REMARK VINA RESULT:    -7.671      4.909      7.884
REMARK INTER + INTRA:         -10.803
REMARK INTER:                 -10.184
REMARK INTRA:                  -0.619
REMARK UNBOUND:                -0.890
REMARK  Name = 
REMARK  5 active torsions:
REMARK  status: ('A' for Active; 'I' for Inactive)
REMARK    1  A    between atoms: C_2  and  C_4
REMARK    2  A    between atoms: C_7  and  O_8
REMARK    3  A    between atoms: O_8  and  C_9
REMARK    4  A    between atoms: C_9  and  C_10
REMARK    5  A    between atoms: C_15  and  C_16
REMARK                            x       y       z     vdW  Elec       q    Type
REMARK                         _______ _______ _______ _____ _____    ______ ____
ROOT
ATOM      1  C   UNL     1      45.148   5.037  12.808  0.00  0.00    +0.000 A 
ATOM      2  C   UNL     1      43.805   5.420  12.840  0.00  0.00    +0.000 A 
ATOM      3  C   UNL     1      43.001   5.190  11.733  0.00  0.00    +0.000 A 
ATOM      4  F   UNL     1      41.712   5.553  11.771  0.00  0.00    +0.000 F 
ATOM      5  C   UNL     1      43.502   4.576  10.589  0.00  0.00    +0.000 A 
ATOM      6  C   UNL     1      44.849   4.184  10.511  0.00  0.00    +0.000 A 
ATOM      7  C   UNL     1      45.657   4.437  11.640  0.00  0.00    +0.000 A 
ENDROOT
BRANCH   6   8
ATOM      8  C   UNL     1      45.395   3.520   9.300  0.00  0.00    +0.000 A 
ATOM      9  C   UNL     1      45.820   4.262   8.180  0.00  0.00    +0.000 A 
ATOM     10  C   UNL     1      46.322   3.638   7.031  0.00  0.00    +0.000 A 
ATOM     11  C   UNL     1      46.423   2.253   6.981  0.00  0.00    +0.000 A 
ATOM     12  C   UNL     1      46.015   1.507   8.076  0.00  0.00    +0.000 A 
ATOM     13  F   UNL     1      46.112   0.171   8.038  0.00  0.00    +0.000 F 
ATOM     14  C   UNL     1      45.503   2.121   9.218  0.00  0.00    +0.000 A 
ENDBRANCH   6   8
BRANCH   1  15
ATOM     15  C   UNL     1      46.030   5.216  14.019  0.00  0.00    +0.000 C 
BRANCH  15  16
ATOM     16  O   UNL     1      46.451   3.938  14.493  0.00  0.00    +0.000 OA
BRANCH  16  20
ATOM     17  C   UNL     1      49.388   4.250  17.347  0.00  0.00    +0.000 A 
ATOM     18  C   UNL     1      48.844   2.987  17.154  0.00  0.00    +0.000 A 
ATOM     19  C   UNL     1      47.842   2.832  16.197  0.00  0.00    +0.000 A 
ATOM     20  C   UNL     1      47.414   3.936  15.461  0.00  0.00    +0.000 A 
ATOM     21  C   UNL     1      48.023   5.160  15.730  0.00  0.00    +0.000 A 
ATOM     22  N   UNL     1      48.997   5.355  16.655  0.00  0.00    +0.000 NA
BRANCH  17  24
ATOM     23  N   UNL     1      51.323   3.380  18.520  0.00  0.00    +0.000 N 
ATOM     24  C   UNL     1      50.466   4.435  18.369  0.00  0.00    +0.000 C 
ATOM     25  O   UNL     1      50.583   5.461  19.026  0.00  0.00    +0.000 OA
ATOM     26  H   UNL     1      52.083   3.447  19.179  0.00  0.00    +0.000 HD
ATOM     27  H   UNL     1      51.211   2.554  17.941  0.00  0.00    +0.000 HD
ENDBRANCH  17  24
ENDBRANCH  16  20
ENDBRANCH  15  16
ENDBRANCH   1  15
TORSDOF 5
ENDMDL
