MODEL 1
REMARK VINA RESULT:    -7.735      0.000      0.000
REMARK INTER + INTRA:         -11.482
REMARK INTER:                 -10.448
REMARK INTRA:                  -1.033
REMARK UNBOUND:                -1.033
REMARK  Name = 
REMARK  8 active torsions:
REMARK  status: ('A' for Active; 'I' for Inactive)
REMARK    1  A    between atoms: C_1  and  C_2
REMARK    2  A    between atoms: C_5  and  C_6
REMARK    3  A    between atoms: N_8  and  C_9
REMARK    4  A    between atoms: C_9  and  C_10
REMARK    5  A    between atoms: C_13  and  C_14
REMARK    6  A    between atoms: C_14  and  N_15
REMARK    7  A    between atoms: C_16  and  C_18
REMARK    8  A    between atoms: N_24  and  C_25
REMARK                            x       y       z     vdW  Elec       q    Type
REMARK                         _______ _______ _______ _____ _____    ______ ____
ROOT
ATOM      1  C   UNL     1      49.585   7.794  15.345  0.00  0.00    +0.000 A 
ATOM      2  C   UNL     1      48.542   8.717  15.324  0.00  0.00    +0.000 A 
ATOM      3  C   UNL     1      47.748   8.822  14.183  0.00  0.00    +0.000 A 
ATOM      4  C   UNL     1      47.990   7.990  13.089  0.00  0.00    +0.000 A 
ATOM      5  C   UNL     1      49.054   7.101  13.195  0.00  0.00    +0.000 A 
ATOM      6  N   UNL     1      49.852   6.985  14.288  0.00  0.00    +0.000 NA
ENDROOT
BRANCH   1   7
ATOM      7  C   UNL     1      50.462   7.666  16.574  0.00  0.00    +0.000 C 
BRANCH   7  10
ATOM      8  C   UNL     1      50.337   5.328  17.383  0.00  0.00    +0.000 C 
ATOM      9  O   UNL     1      49.201   5.474  17.828  0.00  0.00    +0.000 OA
ATOM     10  N   UNL     1      51.022   6.341  16.748  0.00  0.00    +0.000 N 
ATOM     11  H   UNL     1      51.926   6.133  16.335  0.00  0.00    +0.000 HD
BRANCH   8  16
ATOM     12  C   UNL     1      52.887   0.229  17.649  0.00  0.00    +0.000 C 
ATOM     13  C   UNL     1      52.258   1.588  17.625  0.00  0.00    +0.000 A 
ATOM     14  C   UNL     1      52.917   2.697  18.136  0.00  0.00    +0.000 A 
ATOM     15  C   UNL     1      52.293   3.939  18.072  0.00  0.00    +0.000 A 
ATOM     16  C   UNL     1      51.036   4.016  17.498  0.00  0.00    +0.000 A 
ATOM     17  N   UNL     1      50.408   2.925  17.000  0.00  0.00    +0.000 NA
ATOM     18  N   UNL     1      51.031   1.700  17.065  0.00  0.00    +0.000 NA
ENDBRANCH   8  16
ENDBRANCH   7  10
ENDBRANCH   1   7
BRANCH   4  19
ATOM     19  C   UNL     1      47.053   7.955  11.921  0.00  0.00    +0.000 C 
BRANCH  19  20
ATOM     20  N   UNL     1      46.608   6.651  11.475  0.00  0.00    +0.000 N 
ATOM     21  C   UNL     1      45.313   6.296  11.798  0.00  0.00    +0.000 C 
ATOM     22  O   UNL     1      44.614   7.067  12.458  0.00  0.00    +0.000 OA
ATOM     23  H   UNL     1      47.191   6.058  10.886  0.00  0.00    +0.000 HD
BRANCH  21  24
ATOM     24  C   UNL     1      44.757   5.014  11.349  0.00  0.00    +0.000 A 
ATOM     25  C   UNL     1      43.912   4.338  12.225  0.00  0.00    +0.000 A 
ATOM     26  S   UNL     1      43.371   2.835  11.652  0.00  0.00    +0.000 S 
ATOM     27  C   UNL     1      44.335   2.976  10.261  0.00  0.00    +0.000 A 
ATOM     28  N   UNL     1      44.452   1.928   9.412  0.00  0.00    +0.000 NA
ATOM     29  C   UNL     1      45.231   2.144   8.406  0.00  0.00    +0.000 A 
ATOM     30  N   UNL     1      45.867   3.338   8.128  0.00  0.00    +0.000 N 
ATOM     31  C   UNL     1      46.563   3.466   6.865  0.00  0.00    +0.000 C 
ATOM     32  C   UNL     1      45.711   4.463   8.947  0.00  0.00    +0.000 A 
ATOM     33  O   UNL     1      46.142   5.578   8.666  0.00  0.00    +0.000 OA
ATOM     34  C   UNL     1      44.949   4.214  10.161  0.00  0.00    +0.000 A 
ENDBRANCH  21  24
ENDBRANCH  19  20
ENDBRANCH   4  19
TORSDOF 6
ENDMDL
MODEL 2
REMARK VINA RESULT:    -7.688      2.963      9.145
REMARK INTER + INTRA:         -11.417
REMARK INTER:                 -10.558
REMARK INTRA:                  -0.860
REMARK UNBOUND:                -1.033
REMARK  Name = 
REMARK  8 active torsions:
REMARK  status: ('A' for Active; 'I' for Inactive)
REMARK    1  A    between atoms: C_1  and  C_2
REMARK    2  A    between atoms: C_5  and  C_6
REMARK    3  A    between atoms: N_8  and  C_9
REMARK    4  A    between atoms: C_9  and  C_10
REMARK    5  A    between atoms: C_13  and  C_14
REMARK    6  A    between atoms: C_14  and  N_15
REMARK    7  A    between atoms: C_16  and  C_18
REMARK    8  A    between atoms: N_24  and  C_25
REMARK                            x       y       z     vdW  Elec       q    Type
REMARK                         _______ _______ _______ _____ _____    ______ ____
ROOT
ATOM      1  C   UNL     1      44.615   6.576  11.660  0.00  0.00    +0.000 A 
ATOM      2  C   UNL     1      44.483   7.952  11.488  0.00  0.00    +0.000 A 
ATOM      3  C   UNL     1      45.273   8.813  12.249  0.00  0.00    +0.000 A 
ATOM      4  C   UNL     1      46.200   8.291  13.153  0.00  0.00    +0.000 A 
ATOM      5  C   UNL     1      46.261   6.906  13.262  0.00  0.00    +0.000 A 
ATOM      6  N   UNL     1      45.497   6.043  12.545  0.00  0.00    +0.000 NA
ENDROOT
BRANCH   1   7
ATOM      7  C   UNL     1      43.764   5.623  10.847  0.00  0.00    +0.000 C 
BRANCH   7  10
ATOM      8  C   UNL     1      44.981   3.764   9.752  0.00  0.00    +0.000 C 
ATOM      9  O   UNL     1      44.867   3.027  10.729  0.00  0.00    +0.000 OA
ATOM     10  N   UNL     1      44.465   5.041   9.720  0.00  0.00    +0.000 N 
ATOM     11  H   UNL     1      44.525   5.569   8.856  0.00  0.00    +0.000 HD
BRANCH   8  16
ATOM     12  C   UNL     1      47.740   2.183   5.013  0.00  0.00    +0.000 C 
ATOM     13  C   UNL     1      47.002   2.535   6.267  0.00  0.00    +0.000 A 
ATOM     14  C   UNL     1      46.737   1.583   7.240  0.00  0.00    +0.000 A 
ATOM     15  C   UNL     1      46.062   1.970   8.394  0.00  0.00    +0.000 A 
ATOM     16  C   UNL     1      45.683   3.295   8.523  0.00  0.00    +0.000 A 
ATOM     17  N   UNL     1      45.953   4.213   7.565  0.00  0.00    +0.000 NA
ATOM     18  N   UNL     1      46.622   3.825   6.428  0.00  0.00    +0.000 NA
ENDBRANCH   8  16
ENDBRANCH   7  10
ENDBRANCH   1   7
BRANCH   4  19
ATOM     19  C   UNL     1      47.182   9.178  13.854  0.00  0.00    +0.000 C 
BRANCH  19  20
ATOM     20  N   UNL     1      47.508   8.842  15.225  0.00  0.00    +0.000 N 
ATOM     21  C   UNL     1      48.701   8.178  15.430  0.00  0.00    +0.000 C 
ATOM     22  O   UNL     1      49.410   7.880  14.467  0.00  0.00    +0.000 OA
ATOM     23  H   UNL     1      46.928   9.148  16.004  0.00  0.00    +0.000 HD
BRANCH  21  24
ATOM     24  C   UNL     1      49.140   7.837  16.788  0.00  0.00    +0.000 A 
ATOM     25  C   UNL     1      49.453   8.888  17.647  0.00  0.00    +0.000 A 
ATOM     26  S   UNL     1      50.015   8.401  19.172  0.00  0.00    +0.000 S 
ATOM     27  C   UNL     1      49.973   6.768  18.707  0.00  0.00    +0.000 A 
ATOM     28  N   UNL     1      50.490   5.820  19.524  0.00  0.00    +0.000 NA
ATOM     29  C   UNL     1      50.425   4.621  19.053  0.00  0.00    +0.000 A 
ATOM     30  N   UNL     1      49.832   4.260  17.859  0.00  0.00    +0.000 N 
ATOM     31  C   UNL     1      49.688   2.851  17.563  0.00  0.00    +0.000 C 
ATOM     32  C   UNL     1      49.223   5.206  17.024  0.00  0.00    +0.000 A 
ATOM     33  O   UNL     1      48.567   4.917  16.028  0.00  0.00    +0.000 OA
ATOM     34  C   UNL     1      49.399   6.583  17.460  0.00  0.00    +0.000 A 
ENDBRANCH  21  24
ENDBRANCH  19  20
ENDBRANCH   4  19
TORSDOF 6
ENDMDL
MODEL 3
REMARK VINA RESULT:    -7.375      3.332      5.747
REMARK INTER + INTRA:         -10.995
REMARK INTER:                 -10.250
REMARK INTRA:                  -0.746
REMARK UNBOUND:                -1.033
REMARK  Name = 
REMARK  8 active torsions:
REMARK  status: ('A' for Active; 'I' for Inactive)
REMARK    1  A    between atoms: C_1  and  C_2
REMARK    2  A    between atoms: C_5  and  C_6
REMARK    3  A    between atoms: N_8  and  C_9
REMARK    4  A    between atoms: C_9  and  C_10
REMARK    5  A    between atoms: C_13  and  C_14
REMARK    6  A    between atoms: C_14  and  N_15
REMARK    7  A    between atoms: C_16  and  C_18
REMARK    8  A    between atoms: N_24  and  C_25
REMARK                            x       y       z     vdW  Elec       q    Type
REMARK                         _______ _______ _______ _____ _____    ______ ____
ROOT
ATOM      1  C   UNL     1      51.626   2.916  17.956  0.00  0.00    +0.000 A 
ATOM      2  C   UNL     1      50.901   1.931  17.290  0.00  0.00    +0.000 A 
ATOM      3  C   UNL     1      49.546   2.137  17.033  0.00  0.00    +0.000 A 
ATOM      4  C   UNL     1      48.939   3.332  17.423  0.00  0.00    +0.000 A 
ATOM      5  C   UNL     1      49.737   4.258  18.086  0.00  0.00    +0.000 A 
ATOM      6  N   UNL     1      51.054   4.080  18.360  0.00  0.00    +0.000 NA
ENDROOT
BRANCH   1   7
ATOM      7  C   UNL     1      53.098   2.711  18.248  0.00  0.00    +0.000 C 
BRANCH   7  10
ATOM      8  C   UNL     1      54.012   0.468  17.732  0.00  0.00    +0.000 C 
ATOM      9  O   UNL     1      54.305   0.780  16.580  0.00  0.00    +0.000 OA
ATOM     10  N   UNL     1      53.430   1.350  18.616  0.00  0.00    +0.000 N 
ATOM     11  H   UNL     1      53.285   1.053  19.576  0.00  0.00    +0.000 HD
BRANCH   8  16
ATOM     12  C   UNL     1      54.874  -4.798  19.757  0.00  0.00    +0.000 C 
ATOM     13  C   UNL     1      54.708  -3.417  19.201  0.00  0.00    +0.000 A 
ATOM     14  C   UNL     1      55.542  -2.936  18.203  0.00  0.00    +0.000 A 
ATOM     15  C   UNL     1      55.332  -1.651  17.712  0.00  0.00    +0.000 A 
ATOM     16  C   UNL     1      54.294  -0.904  18.242  0.00  0.00    +0.000 A 
ATOM     17  N   UNL     1      53.486  -1.390  19.214  0.00  0.00    +0.000 NA
ATOM     18  N   UNL     1      53.699  -2.661  19.695  0.00  0.00    +0.000 NA
ENDBRANCH   8  16
ENDBRANCH   7  10
ENDBRANCH   1   7
BRANCH   4  19
ATOM     19  C   UNL     1      47.536   3.657  17.010  0.00  0.00    +0.000 C 
BRANCH  19  20
ATOM     20  N   UNL     1      47.367   4.726  16.047  0.00  0.00    +0.000 N 
ATOM     21  C   UNL     1      47.282   4.354  14.720  0.00  0.00    +0.000 C 
ATOM     22  O   UNL     1      47.379   3.165  14.411  0.00  0.00    +0.000 OA
ATOM     23  H   UNL     1      47.237   5.694  16.338  0.00  0.00    +0.000 HD
BRANCH  21  24
ATOM     24  C   UNL     1      47.063   5.361  13.676  0.00  0.00    +0.000 A 
ATOM     25  C   UNL     1      48.112   6.231  13.390  0.00  0.00    +0.000 A 
ATOM     26  S   UNL     1      47.748   7.404  12.219  0.00  0.00    +0.000 S 
ATOM     27  C   UNL     1      46.138   6.870  12.131  0.00  0.00    +0.000 A 
ATOM     28  N   UNL     1      45.233   7.571  11.408  0.00  0.00    +0.000 NA
ATOM     29  C   UNL     1      44.039   7.084  11.437  0.00  0.00    +0.000 A 
ATOM     30  N   UNL     1      43.665   5.917  12.075  0.00  0.00    +0.000 N 
ATOM     31  C   UNL     1      42.323   5.419  11.861  0.00  0.00    +0.000 C 
ATOM     32  C   UNL     1      44.590   5.130  12.771  0.00  0.00    +0.000 A 
ATOM     33  O   UNL     1      44.335   4.021  13.233  0.00  0.00    +0.000 OA
ATOM     34  C   UNL     1      45.916   5.721  12.872  0.00  0.00    +0.000 A 
ENDBRANCH  21  24
ENDBRANCH  19  20
ENDBRANCH   4  19
TORSDOF 6
ENDMDL
MODEL 4
REMARK VINA RESULT:    -7.236      3.072      9.764
REMARK INTER + INTRA:         -10.807
REMARK INTER:                  -9.770
REMARK INTRA:                  -1.037
REMARK UNBOUND:                -1.033
REMARK  Name = 
REMARK  8 active torsions:
REMARK  status: ('A' for Active; 'I' for Inactive)
REMARK    1  A    between atoms: C_1  and  C_2
REMARK    2  A    between atoms: C_5  and  C_6
REMARK    3  A    between atoms: N_8  and  C_9
REMARK    4  A    between atoms: C_9  and  C_10
REMARK    5  A    between atoms: C_13  and  C_14
REMARK    6  A    between atoms: C_14  and  N_15
REMARK    7  A    between atoms: C_16  and  C_18
REMARK    8  A    between atoms: N_24  and  C_25
REMARK                            x       y       z     vdW  Elec       q    Type
REMARK                         _______ _______ _______ _____ _____    ______ ____
ROOT
ATOM      1  C   UNL     1      46.263   5.048  13.654  0.00  0.00    +0.000 A 
ATOM      2  C   UNL     1      46.762   4.466  14.817  0.00  0.00    +0.000 A 
ATOM      3  C   UNL     1      47.758   5.127  15.536  0.00  0.00    +0.000 A 
ATOM      4  C   UNL     1      48.224   6.367  15.099  0.00  0.00    +0.000 A 
ATOM      5  C   UNL     1      47.672   6.871  13.926  0.00  0.00    +0.000 A 
ATOM      6  N   UNL     1      46.712   6.246  13.199  0.00  0.00    +0.000 NA
ENDROOT
BRANCH   1   7
ATOM      7  C   UNL     1      45.184   4.346  12.855  0.00  0.00    +0.000 C 
BRANCH   7  10
ATOM      8  C   UNL     1      44.851   4.199  10.405  0.00  0.00    +0.000 C 
ATOM      9  O   UNL     1      43.770   4.782  10.452  0.00  0.00    +0.000 OA
ATOM     10  N   UNL     1      45.611   3.953  11.528  0.00  0.00    +0.000 N 
ATOM     11  H   UNL     1      46.529   3.537  11.412  0.00  0.00    +0.000 HD
BRANCH   8  16
ATOM     12  C   UNL     1      47.098   2.619   5.403  0.00  0.00    +0.000 C 
ATOM     13  C   UNL     1      46.483   2.975   6.721  0.00  0.00    +0.000 A 
ATOM     14  C   UNL     1      46.060   1.995   7.607  0.00  0.00    +0.000 A 
ATOM     15  C   UNL     1      45.510   2.382   8.826  0.00  0.00    +0.000 A 
ATOM     16  C   UNL     1      45.409   3.734   9.103  0.00  0.00    +0.000 A 
ATOM     17  N   UNL     1      45.830   4.678   8.228  0.00  0.00    +0.000 NA
ATOM     18  N   UNL     1      46.374   4.289   7.027  0.00  0.00    +0.000 NA
ENDBRANCH   8  16
ENDBRANCH   7  10
ENDBRANCH   1   7
BRANCH   4  19
ATOM     19  C   UNL     1      49.162   7.181  15.937  0.00  0.00    +0.000 C 
BRANCH  19  20
ATOM     20  N   UNL     1      50.208   6.464  16.637  0.00  0.00    +0.000 N 
ATOM     21  C   UNL     1      50.200   6.550  18.015  0.00  0.00    +0.000 C 
ATOM     22  O   UNL     1      49.346   7.236  18.581  0.00  0.00    +0.000 OA
ATOM     23  H   UNL     1      50.867   5.863  16.145  0.00  0.00    +0.000 HD
BRANCH  21  24
ATOM     24  C   UNL     1      51.191   5.820  18.813  0.00  0.00    +0.000 A 
ATOM     25  C   UNL     1      51.840   6.517  19.829  0.00  0.00    +0.000 A 
ATOM     26  S   UNL     1      53.017   5.616  20.655  0.00  0.00    +0.000 S 
ATOM     27  C   UNL     1      52.787   4.294  19.614  0.00  0.00    +0.000 A 
ATOM     28  N   UNL     1      53.617   3.226  19.686  0.00  0.00    +0.000 NA
ATOM     29  C   UNL     1      53.361   2.296  18.829  0.00  0.00    +0.000 A 
ATOM     30  N   UNL     1      52.308   2.299  17.935  0.00  0.00    +0.000 N 
ATOM     31  C   UNL     1      52.060   1.098  17.165  0.00  0.00    +0.000 C 
ATOM     32  C   UNL     1      51.389   3.354  17.883  0.00  0.00    +0.000 A 
ATOM     33  O   UNL     1      50.365   3.336  17.206  0.00  0.00    +0.000 OA
ATOM     34  C   UNL     1      51.727   4.479  18.741  0.00  0.00    +0.000 A 
ENDBRANCH  21  24
ENDBRANCH  19  20
ENDBRANCH   4  19
TORSDOF 6
ENDMDL
MODEL 5
REMARK VINA RESULT:    -7.038      4.569      6.533
REMARK INTER + INTRA:         -10.540
REMARK INTER:                  -9.639
REMARK INTRA:                  -0.900
REMARK UNBOUND:                -1.033
REMARK  Name = 
REMARK  8 active torsions:
REMARK  status: ('A' for Active; 'I' for Inactive)
REMARK    1  A    between atoms: C_1  and  C_2
REMARK    2  A    between atoms: C_5  and  C_6
REMARK    3  A    between atoms: N_8  and  C_9
REMARK    4  A    between atoms: C_9  and  C_10
REMARK    5  A    between atoms: C_13  and  C_14
REMARK    6  A    between atoms: C_14  and  N_15
REMARK    7  A    between atoms: C_16  and  C_18
REMARK    8  A    between atoms: N_24  and  C_25
REMARK                            x       y       z     vdW  Elec       q    Type
REMARK                         _______ _______ _______ _____ _____    ______ ____
ROOT
ATOM      1  C   UNL     1      50.817   8.909  11.010  0.00  0.00    +0.000 A 
ATOM      2  C   UNL     1      50.515   7.611  11.414  0.00  0.00    +0.000 A 
ATOM      3  C   UNL     1      49.292   7.358  12.036  0.00  0.00    +0.000 A 
ATOM      4  C   UNL     1      48.380   8.398  12.224  0.00  0.00    +0.000 A 
ATOM      5  C   UNL     1      48.767   9.662  11.794  0.00  0.00    +0.000 A 
ATOM      6  N   UNL     1      49.954   9.940  11.197  0.00  0.00    +0.000 NA
ENDROOT
BRANCH   1   7
ATOM      7  C   UNL     1      52.141   9.206  10.336  0.00  0.00    +0.000 C 
BRANCH   7  10
ATOM      8  C   UNL     1      52.931   8.213   8.209  0.00  0.00    +0.000 C 
ATOM      9  O   UNL     1      52.782   9.263   7.587  0.00  0.00    +0.000 OA
ATOM     10  N   UNL     1      52.652   8.099   9.554  0.00  0.00    +0.000 N 
ATOM     11  H   UNL     1      52.871   7.227  10.024  0.00  0.00    +0.000 HD
BRANCH   8  16
ATOM     12  C   UNL     1      54.932   3.662   5.407  0.00  0.00    +0.000 C 
ATOM     13  C   UNL     1      54.405   4.820   6.196  0.00  0.00    +0.000 A 
ATOM     14  C   UNL     1      54.480   4.844   7.580  0.00  0.00    +0.000 A 
ATOM     15  C   UNL     1      53.990   5.953   8.262  0.00  0.00    +0.000 A 
ATOM     16  C   UNL     1      53.447   6.992   7.526  0.00  0.00    +0.000 A 
ATOM     17  N   UNL     1      53.384   6.955   6.174  0.00  0.00    +0.000 NA
ATOM     18  N   UNL     1      53.872   5.856   5.506  0.00  0.00    +0.000 NA
ENDBRANCH   8  16
ENDBRANCH   7  10
ENDBRANCH   1   7
BRANCH   4  19
ATOM     19  C   UNL     1      46.995   8.130  12.727  0.00  0.00    +0.000 C 
BRANCH  19  20
ATOM     20  N   UNL     1      46.467   6.797  12.519  0.00  0.00    +0.000 N 
ATOM     21  C   UNL     1      45.334   6.697  11.738  0.00  0.00    +0.000 C 
ATOM     22  O   UNL     1      44.813   7.716  11.281  0.00  0.00    +0.000 OA
ATOM     23  H   UNL     1      46.950   5.970  12.866  0.00  0.00    +0.000 HD
BRANCH  21  24
ATOM     24  C   UNL     1      44.752   5.385  11.432  0.00  0.00    +0.000 A 
ATOM     25  C   UNL     1      43.929   4.806  12.394  0.00  0.00    +0.000 A 
ATOM     26  S   UNL     1      43.356   3.261  11.986  0.00  0.00    +0.000 S 
ATOM     27  C   UNL     1      44.278   3.256  10.560  0.00  0.00    +0.000 A 
ATOM     28  N   UNL     1      44.359   2.129   9.813  0.00  0.00    +0.000 NA
ATOM     29  C   UNL     1      45.108   2.238   8.769  0.00  0.00    +0.000 A 
ATOM     30  N   UNL     1      45.746   3.392   8.356  0.00  0.00    +0.000 N 
ATOM     31  C   UNL     1      46.404   3.388   7.067  0.00  0.00    +0.000 C 
ATOM     32  C   UNL     1      45.626   4.593   9.067  0.00  0.00    +0.000 A 
ATOM     33  O   UNL     1      46.058   5.670   8.666  0.00  0.00    +0.000 OA
ATOM     34  C   UNL     1      44.899   4.471  10.322  0.00  0.00    +0.000 A 
ENDBRANCH  21  24
ENDBRANCH  19  20
ENDBRANCH   4  19
TORSDOF 6
ENDMDL
MODEL 6
REMARK VINA RESULT:    -6.994      3.177      9.813
REMARK INTER + INTRA:         -10.480
REMARK INTER:                  -9.485
REMARK INTRA:                  -0.995
REMARK UNBOUND:                -1.033
REMARK  Name = 
REMARK  8 active torsions:
REMARK  status: ('A' for Active; 'I' for Inactive)
REMARK    1  A    between atoms: C_1  and  C_2
REMARK    2  A    between atoms: C_5  and  C_6
REMARK    3  A    between atoms: N_8  and  C_9
REMARK    4  A    between atoms: C_9  and  C_10
REMARK    5  A    between atoms: C_13  and  C_14
REMARK    6  A    between atoms: C_14  and  N_15
REMARK    7  A    between atoms: C_16  and  C_18
REMARK    8  A    between atoms: N_24  and  C_25
REMARK                            x       y       z     vdW  Elec       q    Type
REMARK                         _______ _______ _______ _____ _____    ______ ____
ROOT
ATOM      1  C   UNL     1      47.558   5.927  14.630  0.00  0.00    +0.000 A 
ATOM      2  C   UNL     1      48.457   6.338  15.611  0.00  0.00    +0.000 A 
ATOM      3  C   UNL     1      48.677   5.522  16.720  0.00  0.00    +0.000 A 
ATOM      4  C   UNL     1      48.016   4.297  16.823  0.00  0.00    +0.000 A 
ATOM      5  C   UNL     1      47.134   3.968  15.799  0.00  0.00    +0.000 A 
ATOM      6  N   UNL     1      46.890   4.748  14.715  0.00  0.00    +0.000 NA
ENDROOT
BRANCH   1   7
ATOM      7  C   UNL     1      47.301   6.801  13.419  0.00  0.00    +0.000 C 
BRANCH   7  10
ATOM      8  C   UNL     1      45.735   5.958  11.695  0.00  0.00    +0.000 C 
ATOM      9  O   UNL     1      44.768   6.521  12.205  0.00  0.00    +0.000 OA
ATOM     10  N   UNL     1      47.007   6.049  12.216  0.00  0.00    +0.000 N 
ATOM     11  H   UNL     1      47.774   5.624  11.705  0.00  0.00    +0.000 HD
BRANCH   8  16
ATOM     12  C   UNL     1      45.308   2.952   6.863  0.00  0.00    +0.000 C 
ATOM     13  C   UNL     1      45.371   3.706   8.155  0.00  0.00    +0.000 A 
ATOM     14  C   UNL     1      44.797   3.203   9.313  0.00  0.00    +0.000 A 
ATOM     15  C   UNL     1      44.900   3.938  10.490  0.00  0.00    +0.000 A 
ATOM     16  C   UNL     1      45.575   5.146  10.455  0.00  0.00    +0.000 A 
ATOM     17  N   UNL     1      46.133   5.622   9.317  0.00  0.00    +0.000 NA
ATOM     18  N   UNL     1      46.028   4.890   8.157  0.00  0.00    +0.000 NA
ENDBRANCH   8  16
ENDBRANCH   7  10
ENDBRANCH   1   7
BRANCH   4  19
ATOM     19  C   UNL     1      48.359   3.321  17.906  0.00  0.00    +0.000 C 
BRANCH  19  20
ATOM     20  N   UNL     1      49.764   3.144  18.209  0.00  0.00    +0.000 N 
ATOM     21  C   UNL     1      50.474   2.303  17.376  0.00  0.00    +0.000 C 
ATOM     22  O   UNL     1      49.898   1.730  16.449  0.00  0.00    +0.000 OA
ATOM     23  H   UNL     1      50.224   3.672  18.950  0.00  0.00    +0.000 HD
BRANCH  21  24
ATOM     24  C   UNL     1      51.914   2.097  17.575  0.00  0.00    +0.000 A 
ATOM     25  C   UNL     1      52.372   0.784  17.650  0.00  0.00    +0.000 A 
ATOM     26  S   UNL     1      54.036   0.641  17.949  0.00  0.00    +0.000 S 
ATOM     27  C   UNL     1      54.191   2.325  18.103  0.00  0.00    +0.000 A 
ATOM     28  N   UNL     1      55.363   2.859  18.521  0.00  0.00    +0.000 NA
ATOM     29  C   UNL     1      55.353   4.145  18.625  0.00  0.00    +0.000 A 
ATOM     30  N   UNL     1      54.294   4.968  18.291  0.00  0.00    +0.000 N 
ATOM     31  C   UNL     1      54.508   6.399  18.300  0.00  0.00    +0.000 C 
ATOM     32  C   UNL     1      53.093   4.453  17.788  0.00  0.00    +0.000 A 
ATOM     33  O   UNL     1      52.181   5.149  17.351  0.00  0.00    +0.000 OA
ATOM     34  C   UNL     1      53.023   2.999  17.787  0.00  0.00    +0.000 A 
ENDBRANCH  21  24
ENDBRANCH  19  20
ENDBRANCH   4  19
TORSDOF 6
ENDMDL
MODEL 7
REMARK VINA RESULT:    -6.848      3.412      6.173
REMARK INTER + INTRA:         -10.283
REMARK INTER:                  -9.250
REMARK INTRA:                  -1.033
REMARK UNBOUND:                -1.033
REMARK  Name = 
REMARK  8 active torsions:
REMARK  status: ('A' for Active; 'I' for Inactive)
REMARK    1  A    between atoms: C_1  and  C_2
REMARK    2  A    between atoms: C_5  and  C_6
REMARK    3  A    between atoms: N_8  and  C_9
REMARK    4  A    between atoms: C_9  and  C_10
REMARK    5  A    between atoms: C_13  and  C_14
REMARK    6  A    between atoms: C_14  and  N_15
REMARK    7  A    between atoms: C_16  and  C_18
REMARK    8  A    between atoms: N_24  and  C_25
REMARK                            x       y       z     vdW  Elec       q    Type
REMARK                         _______ _______ _______ _____ _____    ______ ____
ROOT
ATOM      1  C   UNL     1      51.558   2.841  17.887  0.00  0.00    +0.000 A 
ATOM      2  C   UNL     1      50.862   1.880  17.158  0.00  0.00    +0.000 A 
ATOM      3  C   UNL     1      49.504   2.068  16.903  0.00  0.00    +0.000 A 
ATOM      4  C   UNL     1      48.865   3.223  17.358  0.00  0.00    +0.000 A 
ATOM      5  C   UNL     1      49.635   4.127  18.081  0.00  0.00    +0.000 A 
ATOM      6  N   UNL     1      50.955   3.964  18.355  0.00  0.00    +0.000 NA
ENDROOT
BRANCH   1   7
ATOM      7  C   UNL     1      53.032   2.654  18.179  0.00  0.00    +0.000 C 
BRANCH   7  10
ATOM      8  C   UNL     1      54.232   0.515  17.834  0.00  0.00    +0.000 C 
ATOM      9  O   UNL     1      54.772   0.908  16.803  0.00  0.00    +0.000 OA
ATOM     10  N   UNL     1      53.377   1.304  18.573  0.00  0.00    +0.000 N 
ATOM     11  H   UNL     1      53.025   0.946  19.456  0.00  0.00    +0.000 HD
BRANCH   8  16
ATOM     12  C   UNL     1      55.097  -4.694  20.001  0.00  0.00    +0.000 C 
ATOM     13  C   UNL     1      54.905  -3.345  19.380  0.00  0.00    +0.000 A 
ATOM     14  C   UNL     1      55.101  -3.140  18.023  0.00  0.00    +0.000 A 
ATOM     15  C   UNL     1      54.892  -1.869  17.497  0.00  0.00    +0.000 A 
ATOM     16  C   UNL     1      54.494  -0.858  18.354  0.00  0.00    +0.000 A 
ATOM     17  N   UNL     1      54.303  -1.075  19.677  0.00  0.00    +0.000 NA
ATOM     18  N   UNL     1      54.510  -2.334  20.191  0.00  0.00    +0.000 NA
ENDBRANCH   8  16
ENDBRANCH   7  10
ENDBRANCH   1   7
BRANCH   4  19
ATOM     19  C   UNL     1      47.458   3.539  16.954  0.00  0.00    +0.000 C 
BRANCH  19  20
ATOM     20  N   UNL     1      47.270   4.650  16.044  0.00  0.00    +0.000 N 
ATOM     21  C   UNL     1      47.192   4.343  14.701  0.00  0.00    +0.000 C 
ATOM     22  O   UNL     1      47.309   3.173  14.333  0.00  0.00    +0.000 OA
ATOM     23  H   UNL     1      47.123   5.600  16.383  0.00  0.00    +0.000 HD
BRANCH  21  24
ATOM     24  C   UNL     1      46.955   5.396  13.707  0.00  0.00    +0.000 A 
ATOM     25  C   UNL     1      45.784   5.322  12.957  0.00  0.00    +0.000 A 
ATOM     26  S   UNL     1      45.626   6.541  11.788  0.00  0.00    +0.000 S 
ATOM     27  C   UNL     1      47.167   7.149  12.158  0.00  0.00    +0.000 A 
ATOM     28  N   UNL     1      47.711   8.123  11.390  0.00  0.00    +0.000 NA
ATOM     29  C   UNL     1      48.895   8.485  11.753  0.00  0.00    +0.000 A 
ATOM     30  N   UNL     1      49.576   8.009  12.857  0.00  0.00    +0.000 N 
ATOM     31  C   UNL     1      50.821   8.649  13.223  0.00  0.00    +0.000 C 
ATOM     32  C   UNL     1      49.013   7.055  13.714  0.00  0.00    +0.000 A 
ATOM     33  O   UNL     1      49.519   6.707  14.777  0.00  0.00    +0.000 OA
ATOM     34  C   UNL     1      47.736   6.526  13.257  0.00  0.00    +0.000 A 
ENDBRANCH  21  24
ENDBRANCH  19  20
ENDBRANCH   4  19
TORSDOF 6
ENDMDL
MODEL 8
REMARK VINA RESULT:    -6.490      4.900      8.842
REMARK INTER + INTRA:          -9.800
REMARK INTER:                  -8.732
REMARK INTRA:                  -1.068
REMARK UNBOUND:                -1.033
REMARK  Name = 
REMARK  8 active torsions:
REMARK  status: ('A' for Active; 'I' for Inactive)
REMARK    1  A    between atoms: C_1  and  C_2
REMARK    2  A    between atoms: C_5  and  C_6
REMARK    3  A    between atoms: N_8  and  C_9
REMARK    4  A    between atoms: C_9  and  C_10
REMARK    5  A    between atoms: C_13  and  C_14
REMARK    6  A    between atoms: C_14  and  N_15
REMARK    7  A    between atoms: C_16  and  C_18
REMARK    8  A    between atoms: N_24  and  C_25
REMARK                            x       y       z     vdW  Elec       q    Type
REMARK                         _______ _______ _______ _____ _____    ______ ____
ROOT
ATOM      1  C   UNL     1      45.813   6.910  12.841  0.00  0.00    +0.000 A 
ATOM      2  C   UNL     1      45.402   8.184  12.455  0.00  0.00    +0.000 A 
ATOM      3  C   UNL     1      46.202   9.282  12.770  0.00  0.00    +0.000 A 
ATOM      4  C   UNL     1      47.410   9.093  13.443  0.00  0.00    +0.000 A 
ATOM      5  C   UNL     1      47.739   7.787  13.792  0.00  0.00    +0.000 A 
ATOM      6  N   UNL     1      46.976   6.701  13.510  0.00  0.00    +0.000 NA
ENDROOT
BRANCH   1   7
ATOM      7  C   UNL     1      44.958   5.704  12.512  0.00  0.00    +0.000 C 
BRANCH   7  10
ATOM      8  C   UNL     1      44.624   4.664  10.289  0.00  0.00    +0.000 C 
ATOM      9  O   UNL     1      43.455   5.035  10.218  0.00  0.00    +0.000 OA
ATOM     10  N   UNL     1      45.432   4.954  11.367  0.00  0.00    +0.000 N 
ATOM     11  H   UNL     1      46.410   4.685  11.329  0.00  0.00    +0.000 HD
BRANCH   8  16
ATOM     12  C   UNL     1      47.095   1.849   5.983  0.00  0.00    +0.000 C 
ATOM     13  C   UNL     1      46.422   2.532   7.133  0.00  0.00    +0.000 A 
ATOM     14  C   UNL     1      45.974   1.818   8.234  0.00  0.00    +0.000 A 
ATOM     15  C   UNL     1      45.370   2.505   9.282  0.00  0.00    +0.000 A 
ATOM     16  C   UNL     1      45.241   3.879   9.181  0.00  0.00    +0.000 A 
ATOM     17  N   UNL     1      45.687   4.563   8.100  0.00  0.00    +0.000 NA
ATOM     18  N   UNL     1      46.284   3.877   7.068  0.00  0.00    +0.000 NA
ENDBRANCH   8  16
ENDBRANCH   7  10
ENDBRANCH   1   7
BRANCH   4  19
ATOM     19  C   UNL     1      48.371  10.224  13.641  0.00  0.00    +0.000 C 
BRANCH  19  20
ATOM     20  N   UNL     1      49.704  10.055  13.100  0.00  0.00    +0.000 N 
ATOM     21  C   UNL     1      50.712   9.802  14.008  0.00  0.00    +0.000 C 
ATOM     22  O   UNL     1      50.454   9.757  15.212  0.00  0.00    +0.000 OA
ATOM     23  H   UNL     1      49.878  10.045  12.096  0.00  0.00    +0.000 HD
BRANCH  21  24
ATOM     24  C   UNL     1      52.087   9.570  13.551  0.00  0.00    +0.000 A 
ATOM     25  C   UNL     1      53.117  10.140  14.295  0.00  0.00    +0.000 A 
ATOM     26  S   UNL     1      54.668   9.878  13.656  0.00  0.00    +0.000 S 
ATOM     27  C   UNL     1      54.016   9.091  12.300  0.00  0.00    +0.000 A 
ATOM     28  N   UNL     1      54.823   8.748  11.267  0.00  0.00    +0.000 NA
ATOM     29  C   UNL     1      54.211   8.180  10.283  0.00  0.00    +0.000 A 
ATOM     30  N   UNL     1      52.867   7.862  10.251  0.00  0.00    +0.000 N 
ATOM     31  C   UNL     1      52.377   7.068   9.144  0.00  0.00    +0.000 C 
ATOM     32  C   UNL     1      52.020   8.138  11.331  0.00  0.00    +0.000 A 
ATOM     33  O   UNL     1      50.857   7.751  11.404  0.00  0.00    +0.000 OA
ATOM     34  C   UNL     1      52.648   8.899  12.400  0.00  0.00    +0.000 A 
ENDBRANCH  21  24
ENDBRANCH  19  20
ENDBRANCH   4  19
TORSDOF 6
ENDMDL
MODEL 9
REMARK VINA RESULT:    -6.481      3.569      9.405
REMARK INTER + INTRA:          -9.787
REMARK INTER:                  -8.920
REMARK INTRA:                  -0.867
REMARK UNBOUND:                -1.033
REMARK  Name = 
REMARK  8 active torsions:
REMARK  status: ('A' for Active; 'I' for Inactive)
REMARK    1  A    between atoms: C_1  and  C_2
REMARK    2  A    between atoms: C_5  and  C_6
REMARK    3  A    between atoms: N_8  and  C_9
REMARK    4  A    between atoms: C_9  and  C_10
REMARK    5  A    between atoms: C_13  and  C_14
REMARK    6  A    between atoms: C_14  and  N_15
REMARK    7  A    between atoms: C_16  and  C_18
REMARK    8  A    between atoms: N_24  and  C_25
REMARK                            x       y       z     vdW  Elec       q    Type
REMARK                         _______ _______ _______ _____ _____    ______ ____
ROOT
ATOM      1  C   UNL     1      45.661   6.734  12.555  0.00  0.00    +0.000 A 
ATOM      2  C   UNL     1      45.562   8.123  12.554  0.00  0.00    +0.000 A 
ATOM      3  C   UNL     1      46.478   8.872  13.293  0.00  0.00    +0.000 A 
ATOM      4  C   UNL     1      47.492   8.227  14.002  0.00  0.00    +0.000 A 
ATOM      5  C   UNL     1      47.513   6.837  13.949  0.00  0.00    +0.000 A 
ATOM      6  N   UNL     1      46.629   6.082  13.249  0.00  0.00    +0.000 NA
ENDROOT
BRANCH   1   7
ATOM      7  C   UNL     1      44.675   5.901  11.762  0.00  0.00    +0.000 C 
BRANCH   7  10
ATOM      8  C   UNL     1      44.707   4.143  10.017  0.00  0.00    +0.000 C 
ATOM      9  O   UNL     1      43.675   3.621  10.431  0.00  0.00    +0.000 OA
ATOM     10  N   UNL     1      45.260   5.263  10.601  0.00  0.00    +0.000 N 
ATOM     11  H   UNL     1      46.070   5.690  10.164  0.00  0.00    +0.000 HD
BRANCH   8  16
ATOM     12  C   UNL     1      47.520   2.221   5.439  0.00  0.00    +0.000 C 
ATOM     13  C   UNL     1      46.761   2.665   6.651  0.00  0.00    +0.000 A 
ATOM     14  C   UNL     1      46.354   1.759   7.619  0.00  0.00    +0.000 A 
ATOM     15  C   UNL     1      45.666   2.229   8.733  0.00  0.00    +0.000 A 
ATOM     16  C   UNL     1      45.418   3.587   8.830  0.00  0.00    +0.000 A 
ATOM     17  N   UNL     1      45.826   4.459   7.878  0.00  0.00    +0.000 NA
ATOM     18  N   UNL     1      46.506   3.988   6.779  0.00  0.00    +0.000 NA
ENDBRANCH   8  16
ENDBRANCH   7  10
ENDBRANCH   1   7
BRANCH   4  19
ATOM     19  C   UNL     1      48.591   9.004  14.659  0.00  0.00    +0.000 C 
BRANCH  19  20
ATOM     20  N   UNL     1      49.941   8.509  14.484  0.00  0.00    +0.000 N 
ATOM     21  C   UNL     1      50.767   9.247  13.661  0.00  0.00    +0.000 C 
ATOM     22  O   UNL     1      50.332  10.255  13.101  0.00  0.00    +0.000 OA
ATOM     23  H   UNL     1      50.288   7.703  15.002  0.00  0.00    +0.000 HD
BRANCH  21  24
ATOM     24  C   UNL     1      52.166   8.851  13.460  0.00  0.00    +0.000 A 
ATOM     25  C   UNL     1      52.794   9.276  12.292  0.00  0.00    +0.000 A 
ATOM     26  S   UNL     1      54.385   8.716  12.110  0.00  0.00    +0.000 S 
ATOM     27  C   UNL     1      54.261   7.789  13.528  0.00  0.00    +0.000 A 
ATOM     28  N   UNL     1      55.252   6.929  13.861  0.00  0.00    +0.000 NA
ATOM     29  C   UNL     1      55.033   6.261  14.943  0.00  0.00    +0.000 A 
ATOM     30  N   UNL     1      53.937   6.412  15.770  0.00  0.00    +0.000 N 
ATOM     31  C   UNL     1      53.932   5.712  17.036  0.00  0.00    +0.000 C 
ATOM     32  C   UNL     1      52.929   7.344  15.493  0.00  0.00    +0.000 A 
ATOM     33  O   UNL     1      52.012   7.610  16.265  0.00  0.00    +0.000 OA
ATOM     34  C   UNL     1      53.077   8.016  14.211  0.00  0.00    +0.000 A 
ENDBRANCH  21  24
ENDBRANCH  19  20
ENDBRANCH   4  19
TORSDOF 6
ENDMDL
