MODEL 1
REMARK VINA RESULT:    -7.088      0.000      0.000
REMARK INTER + INTRA:          -9.207
REMARK INTER:                  -8.745
REMARK INTRA:                  -0.462
REMARK UNBOUND:                -0.462
REMARK  Name = 
REMARK  7 active torsions:
REMARK  status: ('A' for Active; 'I' for Inactive)
REMARK    1  A    between atoms: C_1  and  N_2
REMARK    2  A    between atoms: C_10  and  C_11
REMARK    3  A    between atoms: C_11  and  C_12
REMARK    4  A    between atoms: C_12  and  C_13
REMARK    5  A    between atoms: C_12  and  C_14
REMARK    6  A    between atoms: C_12  and  C_15
REMARK    7  A    between atoms: C_19  and  C_20
REMARK                            x       y       z     vdW  Elec       q    Type
REMARK                         _______ _______ _______ _____ _____    ______ ____
ROOT
ATOM      1  C   UNL     1      46.803   5.853  12.394  0.00  0.00    +0.000 C 
ENDROOT
BRANCH   1  11
ATOM      2  C   UNL     1      49.471   7.865  20.419  0.00  0.00    +0.000 C 
ATOM      3  N   UNL     1      49.687   7.338  19.071  0.00  0.00    +0.000 NA
ATOM      4  C   UNL     1      49.509   5.865  19.074  0.00  0.00    +0.000 C 
ATOM      5  C   UNL     1      49.605   5.241  17.665  0.00  0.00    +0.000 C 
ATOM      6  N   UNL     1      48.631   5.898  16.798  0.00  0.00    +0.000 N 
ATOM      7  C   UNL     1      48.118   5.186  15.742  0.00  0.00    +0.000 A 
ATOM      8  N   UNL     1      47.953   3.872  15.875  0.00  0.00    +0.000 NA
ATOM      9  C   UNL     1      47.358   3.260  14.857  0.00  0.00    +0.000 A 
ATOM     10  N   UNL     1      46.962   3.830  13.725  0.00  0.00    +0.000 NA
ATOM     11  C   UNL     1      47.186   5.142  13.668  0.00  0.00    +0.000 A 
ATOM     12  N   UNL     1      47.739   5.845  14.655  0.00  0.00    +0.000 NA
ATOM     13  C   UNL     1      48.810   7.347  16.696  0.00  0.00    +0.000 C 
ATOM     14  C   UNL     1      48.734   7.957  18.118  0.00  0.00    +0.000 C 
ENDBRANCH   1  11
BRANCH   1  15
ATOM     15  C   UNL     1      45.293   5.921  11.984  0.00  0.00    +0.000 C 
ATOM     16  C   UNL     1      44.393   5.825  13.236  0.00  0.00    +0.000 C 
ATOM     17  C   UNL     1      45.005   7.217  11.190  0.00  0.00    +0.000 C 
BRANCH  15  18
ATOM     18  C   UNL     1      44.950   4.713  11.086  0.00  0.00    +0.000 A 
ATOM     19  C   UNL     1      44.041   3.748  11.490  0.00  0.00    +0.000 A 
ATOM     20  C   UNL     1      43.848   2.679  10.647  0.00  0.00    +0.000 A 
ATOM     21  N   UNL     1      44.485   2.534   9.473  0.00  0.00    +0.000 NA
ATOM     22  C   UNL     1      45.359   3.510   9.130  0.00  0.00    +0.000 A 
ATOM     23  N   UNL     1      45.603   4.596   9.910  0.00  0.00    +0.000 NA
BRANCH  22  24
ATOM     24  C   UNL     1      46.122   3.392   7.805  0.00  0.00    +0.000 C 
ATOM     25  F   UNL     1      45.318   3.305   6.702  0.00  0.00    +0.000 F 
ATOM     26  F   UNL     1      46.945   4.459   7.566  0.00  0.00    +0.000 F 
ATOM     27  F   UNL     1      46.929   2.289   7.749  0.00  0.00    +0.000 F 
ENDBRANCH  22  24
ENDBRANCH  15  18
ENDBRANCH   1  15
TORSDOF 4
ENDMDL
MODEL 2
REMARK VINA RESULT:    -7.051      2.247      3.638
REMARK INTER + INTRA:          -9.162
REMARK INTER:                  -8.597
REMARK INTRA:                  -0.565
REMARK UNBOUND:                -0.462
REMARK  Name = 
REMARK  7 active torsions:
REMARK  status: ('A' for Active; 'I' for Inactive)
REMARK    1  A    between atoms: C_1  and  N_2
REMARK    2  A    between atoms: C_10  and  C_11
REMARK    3  A    between atoms: C_11  and  C_12
REMARK    4  A    between atoms: C_12  and  C_13
REMARK    5  A    between atoms: C_12  and  C_14
REMARK    6  A    between atoms: C_12  and  C_15
REMARK    7  A    between atoms: C_19  and  C_20
REMARK                            x       y       z     vdW  Elec       q    Type
REMARK                         _______ _______ _______ _____ _____    ______ ____
ROOT
ATOM      1  C   UNL     1      45.974   3.272  13.164  0.00  0.00    +0.000 C 
ENDROOT
BRANCH   1  11
ATOM      2  C   UNL     1      49.950  10.937  12.168  0.00  0.00    +0.000 C 
ATOM      3  N   UNL     1      49.952   9.484  12.334  0.00  0.00    +0.000 NA
ATOM      4  C   UNL     1      50.110   9.143  13.769  0.00  0.00    +0.000 C 
ATOM      5  C   UNL     1      50.006   7.628  14.047  0.00  0.00    +0.000 C 
ATOM      6  N   UNL     1      48.734   7.144  13.516  0.00  0.00    +0.000 N 
ATOM      7  C   UNL     1      48.156   6.050  14.113  0.00  0.00    +0.000 A 
ATOM      8  N   UNL     1      48.322   5.872  15.421  0.00  0.00    +0.000 NA
ATOM      9  C   UNL     1      47.653   4.854  15.953  0.00  0.00    +0.000 A 
ATOM     10  N   UNL     1      46.885   3.994  15.295  0.00  0.00    +0.000 NA
ATOM     11  C   UNL     1      46.795   4.233  13.987  0.00  0.00    +0.000 A 
ATOM     12  N   UNL     1      47.395   5.253  13.376  0.00  0.00    +0.000 NA
ATOM     13  C   UNL     1      48.560   7.384  12.084  0.00  0.00    +0.000 C 
ATOM     14  C   UNL     1      48.689   8.905  11.816  0.00  0.00    +0.000 C 
ENDBRANCH   1  11
BRANCH   1  15
ATOM     15  C   UNL     1      44.767   3.820  12.331  0.00  0.00    +0.000 C 
ATOM     16  C   UNL     1      43.680   2.732  12.182  0.00  0.00    +0.000 C 
ATOM     17  C   UNL     1      44.190   5.096  12.988  0.00  0.00    +0.000 C 
BRANCH  15  18
ATOM     18  C   UNL     1      45.247   4.178  10.908  0.00  0.00    +0.000 A 
ATOM     19  C   UNL     1      45.376   5.496  10.500  0.00  0.00    +0.000 A 
ATOM     20  C   UNL     1      45.752   5.712   9.195  0.00  0.00    +0.000 A 
ATOM     21  N   UNL     1      45.998   4.725   8.319  0.00  0.00    +0.000 NA
ATOM     22  C   UNL     1      45.860   3.457   8.776  0.00  0.00    +0.000 A 
ATOM     23  N   UNL     1      45.492   3.163  10.051  0.00  0.00    +0.000 NA
BRANCH  22  24
ATOM     24  C   UNL     1      46.118   2.288   7.816  0.00  0.00    +0.000 C 
ATOM     25  F   UNL     1      45.578   1.100   8.224  0.00  0.00    +0.000 F 
ATOM     26  F   UNL     1      45.610   2.504   6.564  0.00  0.00    +0.000 F 
ATOM     27  F   UNL     1      47.449   2.033   7.632  0.00  0.00    +0.000 F 
ENDBRANCH  22  24
ENDBRANCH  15  18
ENDBRANCH   1  15
TORSDOF 4
ENDMDL
MODEL 3
REMARK VINA RESULT:    -6.778      1.561      2.334
REMARK INTER + INTRA:          -8.826
REMARK INTER:                  -8.487
REMARK INTRA:                  -0.338
REMARK UNBOUND:                -0.462
REMARK  Name = 
REMARK  7 active torsions:
REMARK  status: ('A' for Active; 'I' for Inactive)
REMARK    1  A    between atoms: C_1  and  N_2
REMARK    2  A    between atoms: C_10  and  C_11
REMARK    3  A    between atoms: C_11  and  C_12
REMARK    4  A    between atoms: C_12  and  C_13
REMARK    5  A    between atoms: C_12  and  C_14
REMARK    6  A    between atoms: C_12  and  C_15
REMARK    7  A    between atoms: C_19  and  C_20
REMARK                            x       y       z     vdW  Elec       q    Type
REMARK                         _______ _______ _______ _____ _____    ______ ____
ROOT
ATOM      1  C   UNL     1      47.282   5.235  12.953  0.00  0.00    +0.000 C 
ENDROOT
BRANCH   1  11
ATOM      2  C   UNL     1      50.252   4.989  21.119  0.00  0.00    +0.000 C 
ATOM      3  N   UNL     1      49.339   5.470  20.082  0.00  0.00    +0.000 NA
ATOM      4  C   UNL     1      49.848   6.744  19.517  0.00  0.00    +0.000 C 
ATOM      5  C   UNL     1      49.003   7.261  18.333  0.00  0.00    +0.000 C 
ATOM      6  N   UNL     1      48.933   6.214  17.318  0.00  0.00    +0.000 N 
ATOM      7  C   UNL     1      48.772   6.590  16.007  0.00  0.00    +0.000 A 
ATOM      8  N   UNL     1      49.318   7.732  15.597  0.00  0.00    +0.000 NA
ATOM      9  C   UNL     1      49.213   7.986  14.296  0.00  0.00    +0.000 A 
ATOM     10  N   UNL     1      48.586   7.233  13.401  0.00  0.00    +0.000 NA
ATOM     11  C   UNL     1      48.050   6.121  13.903  0.00  0.00    +0.000 A 
ATOM     12  N   UNL     1      48.140   5.766  15.183  0.00  0.00    +0.000 NA
ATOM     13  C   UNL     1      48.364   4.956  17.803  0.00  0.00    +0.000 C 
ATOM     14  C   UNL     1      49.207   4.460  19.005  0.00  0.00    +0.000 C 
ENDBRANCH   1  11
BRANCH   1  15
ATOM     15  C   UNL     1      46.047   5.824  12.192  0.00  0.00    +0.000 C 
ATOM     16  C   UNL     1      45.259   6.785  13.110  0.00  0.00    +0.000 C 
ATOM     17  C   UNL     1      46.500   6.541  10.897  0.00  0.00    +0.000 C 
BRANCH  15  18
ATOM     18  C   UNL     1      45.088   4.678  11.805  0.00  0.00    +0.000 A 
ATOM     19  C   UNL     1      44.060   4.282  12.646  0.00  0.00    +0.000 A 
ATOM     20  C   UNL     1      43.298   3.212  12.240  0.00  0.00    +0.000 A 
ATOM     21  N   UNL     1      43.498   2.552  11.088  0.00  0.00    +0.000 NA
ATOM     22  C   UNL     1      44.515   2.986  10.305  0.00  0.00    +0.000 A 
ATOM     23  N   UNL     1      45.312   4.036  10.639  0.00  0.00    +0.000 NA
BRANCH  22  24
ATOM     24  C   UNL     1      44.796   2.263   8.982  0.00  0.00    +0.000 C 
ATOM     25  F   UNL     1      44.193   1.040   8.875  0.00  0.00    +0.000 F 
ATOM     26  F   UNL     1      44.375   2.969   7.888  0.00  0.00    +0.000 F 
ATOM     27  F   UNL     1      46.127   2.027   8.775  0.00  0.00    +0.000 F 
ENDBRANCH  22  24
ENDBRANCH  15  18
ENDBRANCH   1  15
TORSDOF 4
ENDMDL
MODEL 4
REMARK VINA RESULT:    -6.659      3.411      4.310
REMARK INTER + INTRA:          -8.679
REMARK INTER:                  -8.085
REMARK INTRA:                  -0.594
REMARK UNBOUND:                -0.462
REMARK  Name = 
REMARK  7 active torsions:
REMARK  status: ('A' for Active; 'I' for Inactive)
REMARK    1  A    between atoms: C_1  and  N_2
REMARK    2  A    between atoms: C_10  and  C_11
REMARK    3  A    between atoms: C_11  and  C_12
REMARK    4  A    between atoms: C_12  and  C_13
REMARK    5  A    between atoms: C_12  and  C_14
REMARK    6  A    between atoms: C_12  and  C_15
REMARK    7  A    between atoms: C_19  and  C_20
REMARK                            x       y       z     vdW  Elec       q    Type
REMARK                         _______ _______ _______ _____ _____    ______ ____
ROOT
ATOM      1  C   UNL     1      45.295   6.358  10.774  0.00  0.00    +0.000 C 
ENDROOT
BRANCH   1  11
ATOM      2  C   UNL     1      53.363   9.374  11.942  0.00  0.00    +0.000 C 
ATOM      3  N   UNL     1      52.216   8.550  12.322  0.00  0.00    +0.000 NA
ATOM      4  C   UNL     1      51.377   9.281  13.304  0.00  0.00    +0.000 C 
ATOM      5  C   UNL     1      50.080   8.529  13.671  0.00  0.00    +0.000 C 
ATOM      6  N   UNL     1      49.344   8.243  12.443  0.00  0.00    +0.000 N 
ATOM      7  C   UNL     1      47.977   8.133  12.516  0.00  0.00    +0.000 A 
ATOM      8  N   UNL     1      47.321   8.878  13.403  0.00  0.00    +0.000 NA
ATOM      9  C   UNL     1      45.995   8.799  13.352  0.00  0.00    +0.000 A 
ATOM     10  N   UNL     1      45.288   8.025  12.538  0.00  0.00    +0.000 NA
ATOM     11  C   UNL     1      46.026   7.296  11.701  0.00  0.00    +0.000 A 
ATOM     12  N   UNL     1      47.356   7.341  11.653  0.00  0.00    +0.000 NA
ATOM     13  C   UNL     1      50.099   7.454  11.469  0.00  0.00    +0.000 C 
ATOM     14  C   UNL     1      51.408   8.209  11.127  0.00  0.00    +0.000 C 
ENDBRANCH   1  11
BRANCH   1  15
ATOM     15  C   UNL     1      44.665   5.048  11.357  0.00  0.00    +0.000 C 
ATOM     16  C   UNL     1      45.442   4.592  12.612  0.00  0.00    +0.000 C 
ATOM     17  C   UNL     1      43.167   5.265  11.679  0.00  0.00    +0.000 C 
BRANCH  15  18
ATOM     18  C   UNL     1      44.781   3.915  10.315  0.00  0.00    +0.000 A 
ATOM     19  C   UNL     1      44.080   2.728  10.459  0.00  0.00    +0.000 A 
ATOM     20  C   UNL     1      44.297   1.756   9.511  0.00  0.00    +0.000 A 
ATOM     21  N   UNL     1      45.136   1.904   8.473  0.00  0.00    +0.000 NA
ATOM     22  C   UNL     1      45.790   3.086   8.383  0.00  0.00    +0.000 A 
ATOM     23  N   UNL     1      45.629   4.094   9.280  0.00  0.00    +0.000 NA
BRANCH  22  24
ATOM     24  C   UNL     1      46.770   3.308   7.223  0.00  0.00    +0.000 C 
ATOM     25  F   UNL     1      47.837   2.452   7.222  0.00  0.00    +0.000 F 
ATOM     26  F   UNL     1      46.185   3.155   5.995  0.00  0.00    +0.000 F 
ATOM     27  F   UNL     1      47.314   4.562   7.215  0.00  0.00    +0.000 F 
ENDBRANCH  22  24
ENDBRANCH  15  18
ENDBRANCH   1  15
TORSDOF 4
ENDMDL
MODEL 5
REMARK VINA RESULT:    -6.614      3.632      7.704
REMARK INTER + INTRA:          -8.623
REMARK INTER:                  -7.687
REMARK INTRA:                  -0.936
REMARK UNBOUND:                -0.462
REMARK  Name = 
REMARK  7 active torsions:
REMARK  status: ('A' for Active; 'I' for Inactive)
REMARK    1  A    between atoms: C_1  and  N_2
REMARK    2  A    between atoms: C_10  and  C_11
REMARK    3  A    between atoms: C_11  and  C_12
REMARK    4  A    between atoms: C_12  and  C_13
REMARK    5  A    between atoms: C_12  and  C_14
REMARK    6  A    between atoms: C_12  and  C_15
REMARK    7  A    between atoms: C_19  and  C_20
REMARK                            x       y       z     vdW  Elec       q    Type
REMARK                         _______ _______ _______ _____ _____    ______ ____
ROOT
ATOM      1  C   UNL     1      50.833   7.536  14.993  0.00  0.00    +0.000 C 
ENDROOT
BRANCH   1  11
ATOM      2  C   UNL     1      43.467   3.900  12.150  0.00  0.00    +0.000 C 
ATOM      3  N   UNL     1      44.855   4.329  11.979  0.00  0.00    +0.000 NA
ATOM      4  C   UNL     1      44.892   5.677  11.361  0.00  0.00    +0.000 C 
ATOM      5  C   UNL     1      46.320   6.253  11.252  0.00  0.00    +0.000 C 
ATOM      6  N   UNL     1      46.923   6.256  12.582  0.00  0.00    +0.000 N 
ATOM      7  C   UNL     1      47.882   7.200  12.857  0.00  0.00    +0.000 A 
ATOM      8  N   UNL     1      47.785   8.397  12.283  0.00  0.00    +0.000 NA
ATOM      9  C   UNL     1      48.685   9.296  12.671  0.00  0.00    +0.000 A 
ATOM     10  N   UNL     1      49.674   9.091  13.532  0.00  0.00    +0.000 NA
ATOM     11  C   UNL     1      49.709   7.859  14.039  0.00  0.00    +0.000 A 
ATOM     12  N   UNL     1      48.827   6.907  13.740  0.00  0.00    +0.000 NA
ATOM     13  C   UNL     1      46.985   4.934  13.206  0.00  0.00    +0.000 C 
ATOM     14  C   UNL     1      45.549   4.357  13.289  0.00  0.00    +0.000 C 
ENDBRANCH   1  11
BRANCH   1  15
ATOM     15  C   UNL     1      50.520   7.396  16.520  0.00  0.00    +0.000 C 
ATOM     16  C   UNL     1      51.681   7.972  17.361  0.00  0.00    +0.000 C 
ATOM     17  C   UNL     1      49.184   8.096  16.865  0.00  0.00    +0.000 C 
BRANCH  15  18
ATOM     18  C   UNL     1      50.395   5.901  16.883  0.00  0.00    +0.000 A 
ATOM     19  C   UNL     1      51.474   5.186  17.380  0.00  0.00    +0.000 A 
ATOM     20  C   UNL     1      51.280   3.846  17.616  0.00  0.00    +0.000 A 
ATOM     21  N   UNL     1      50.116   3.213  17.396  0.00  0.00    +0.000 NA
ATOM     22  C   UNL     1      49.097   3.964  16.914  0.00  0.00    +0.000 A 
ATOM     23  N   UNL     1      49.211   5.293  16.655  0.00  0.00    +0.000 NA
BRANCH  22  24
ATOM     24  C   UNL     1      47.747   3.292  16.634  0.00  0.00    +0.000 C 
ATOM     25  F   UNL     1      47.337   2.430  17.613  0.00  0.00    +0.000 F 
ATOM     26  F   UNL     1      46.723   4.189  16.494  0.00  0.00    +0.000 F 
ATOM     27  F   UNL     1      47.746   2.554  15.482  0.00  0.00    +0.000 F 
ENDBRANCH  22  24
ENDBRANCH  15  18
ENDBRANCH   1  15
TORSDOF 4
ENDMDL
MODEL 6
REMARK VINA RESULT:    -6.086      3.424      6.995
REMARK INTER + INTRA:          -7.972
REMARK INTER:                  -7.218
REMARK INTRA:                  -0.754
REMARK UNBOUND:                -0.462
REMARK  Name = 
REMARK  7 active torsions:
REMARK  status: ('A' for Active; 'I' for Inactive)
REMARK    1  A    between atoms: C_1  and  N_2
REMARK    2  A    between atoms: C_10  and  C_11
REMARK    3  A    between atoms: C_11  and  C_12
REMARK    4  A    between atoms: C_12  and  C_13
REMARK    5  A    between atoms: C_12  and  C_14
REMARK    6  A    between atoms: C_12  and  C_15
REMARK    7  A    between atoms: C_19  and  C_20
REMARK                            x       y       z     vdW  Elec       q    Type
REMARK                         _______ _______ _______ _____ _____    ______ ____
ROOT
ATOM      1  C   UNL     1      49.764   7.147  15.290  0.00  0.00    +0.000 C 
ENDROOT
BRANCH   1  11
ATOM      2  C   UNL     1      44.075   4.258   9.386  0.00  0.00    +0.000 C 
ATOM      3  N   UNL     1      44.424   4.972  10.615  0.00  0.00    +0.000 NA
ATOM      4  C   UNL     1      44.273   4.068  11.781  0.00  0.00    +0.000 C 
ATOM      5  C   UNL     1      44.734   4.709  13.107  0.00  0.00    +0.000 C 
ATOM      6  N   UNL     1      46.114   5.160  12.952  0.00  0.00    +0.000 N 
ATOM      7  C   UNL     1      46.910   5.211  14.070  0.00  0.00    +0.000 A 
ATOM      8  N   UNL     1      46.718   4.314  15.034  0.00  0.00    +0.000 NA
ATOM      9  C   UNL     1      47.587   4.355  16.040  0.00  0.00    +0.000 A 
ATOM     10  N   UNL     1      48.581   5.223  16.179  0.00  0.00    +0.000 NA
ATOM     11  C   UNL     1      48.684   6.099  15.180  0.00  0.00    +0.000 A 
ATOM     12  N   UNL     1      47.886   6.108  14.114  0.00  0.00    +0.000 NA
ATOM     13  C   UNL     1      46.305   6.117  11.862  0.00  0.00    +0.000 C 
ATOM     14  C   UNL     1      45.818   5.470  10.541  0.00  0.00    +0.000 C 
ENDBRANCH   1  11
BRANCH   1  15
ATOM     15  C   UNL     1      49.359   8.660  15.297  0.00  0.00    +0.000 C 
ATOM     16  C   UNL     1      48.139   8.884  16.217  0.00  0.00    +0.000 C 
ATOM     17  C   UNL     1      50.555   9.538  15.736  0.00  0.00    +0.000 C 
BRANCH  15  18
ATOM     18  C   UNL     1      48.938   9.085  13.874  0.00  0.00    +0.000 A 
ATOM     19  C   UNL     1      49.878   9.328  12.885  0.00  0.00    +0.000 A 
ATOM     20  C   UNL     1      49.406   9.761  11.668  0.00  0.00    +0.000 A 
ATOM     21  N   UNL     1      48.104   9.951  11.400  0.00  0.00    +0.000 NA
ATOM     22  C   UNL     1      47.232   9.693  12.404  0.00  0.00    +0.000 A 
ATOM     23  N   UNL     1      47.621   9.263  13.634  0.00  0.00    +0.000 NA
BRANCH  22  24
ATOM     24  C   UNL     1      45.733   9.902  12.158  0.00  0.00    +0.000 C 
ATOM     25  F   UNL     1      45.348  11.214  12.133  0.00  0.00    +0.000 F 
ATOM     26  F   UNL     1      45.310   9.381  10.965  0.00  0.00    +0.000 F 
ATOM     27  F   UNL     1      44.948   9.315  13.112  0.00  0.00    +0.000 F 
ENDBRANCH  22  24
ENDBRANCH  15  18
ENDBRANCH   1  15
TORSDOF 4
ENDMDL
MODEL 7
REMARK VINA RESULT:    -6.027      3.960      7.885
REMARK INTER + INTRA:          -7.899
REMARK INTER:                  -7.184
REMARK INTRA:                  -0.715
REMARK UNBOUND:                -0.462
REMARK  Name = 
REMARK  7 active torsions:
REMARK  status: ('A' for Active; 'I' for Inactive)
REMARK    1  A    between atoms: C_1  and  N_2
REMARK    2  A    between atoms: C_10  and  C_11
REMARK    3  A    between atoms: C_11  and  C_12
REMARK    4  A    between atoms: C_12  and  C_13
REMARK    5  A    between atoms: C_12  and  C_14
REMARK    6  A    between atoms: C_12  and  C_15
REMARK    7  A    between atoms: C_19  and  C_20
REMARK                            x       y       z     vdW  Elec       q    Type
REMARK                         _______ _______ _______ _____ _____    ______ ____
ROOT
ATOM      1  C   UNL     1      50.094   7.096  15.410  0.00  0.00    +0.000 C 
ENDROOT
BRANCH   1  11
ATOM      2  C   UNL     1      43.356   3.122  11.618  0.00  0.00    +0.000 C 
ATOM      3  N   UNL     1      44.692   3.720  11.599  0.00  0.00    +0.000 NA
ATOM      4  C   UNL     1      44.601   5.138  11.174  0.00  0.00    +0.000 C 
ATOM      5  C   UNL     1      45.955   5.877  11.239  0.00  0.00    +0.000 C 
ATOM      6  N   UNL     1      46.487   5.755  12.594  0.00  0.00    +0.000 N 
ATOM      7  C   UNL     1      47.313   6.749  13.058  0.00  0.00    +0.000 A 
ATOM      8  N   UNL     1      47.105   7.998  12.648  0.00  0.00    +0.000 NA
ATOM      9  C   UNL     1      47.873   8.924  13.214  0.00  0.00    +0.000 A 
ATOM     10  N   UNL     1      48.835   8.707  14.102  0.00  0.00    +0.000 NA
ATOM     11  C   UNL     1      48.989   7.427  14.437  0.00  0.00    +0.000 A 
ATOM     12  N   UNL     1      48.240   6.437  13.954  0.00  0.00    +0.000 NA
ATOM     13  C   UNL     1      46.672   4.372  13.035  0.00  0.00    +0.000 C 
ATOM     14  C   UNL     1      45.311   3.636  12.943  0.00  0.00    +0.000 C 
ENDBRANCH   1  11
BRANCH   1  15
ATOM     15  C   UNL     1      49.742   6.893  16.922  0.00  0.00    +0.000 C 
ATOM     16  C   UNL     1      51.006   7.067  17.794  0.00  0.00    +0.000 C 
ATOM     17  C   UNL     1      48.629   7.877  17.356  0.00  0.00    +0.000 C 
BRANCH  15  18
ATOM     18  C   UNL     1      49.234   5.453  17.143  0.00  0.00    +0.000 A 
ATOM     19  C   UNL     1      47.914   5.197  17.477  0.00  0.00    +0.000 A 
ATOM     20  C   UNL     1      47.572   3.886  17.712  0.00  0.00    +0.000 A 
ATOM     21  N   UNL     1      48.440   2.865  17.630  0.00  0.00    +0.000 NA
ATOM     22  C   UNL     1      49.715   3.176  17.296  0.00  0.00    +0.000 A 
ATOM     23  N   UNL     1      50.129   4.447  17.049  0.00  0.00    +0.000 NA
BRANCH  22  24
ATOM     24  C   UNL     1      50.754   2.051  17.197  0.00  0.00    +0.000 C 
ATOM     25  F   UNL     1      52.048   2.470  17.337  0.00  0.00    +0.000 F 
ATOM     26  F   UNL     1      50.584   1.083  18.150  0.00  0.00    +0.000 F 
ATOM     27  F   UNL     1      50.717   1.394  15.998  0.00  0.00    +0.000 F 
ENDBRANCH  22  24
ENDBRANCH  15  18
ENDBRANCH   1  15
TORSDOF 4
ENDMDL
MODEL 8
REMARK VINA RESULT:    -6.006      3.308      8.117
REMARK INTER + INTRA:          -7.873
REMARK INTER:                  -8.124
REMARK INTRA:                   0.250
REMARK UNBOUND:                -0.462
REMARK  Name = 
REMARK  7 active torsions:
REMARK  status: ('A' for Active; 'I' for Inactive)
REMARK    1  A    between atoms: C_1  and  N_2
REMARK    2  A    between atoms: C_10  and  C_11
REMARK    3  A    between atoms: C_11  and  C_12
REMARK    4  A    between atoms: C_12  and  C_13
REMARK    5  A    between atoms: C_12  and  C_14
REMARK    6  A    between atoms: C_12  and  C_15
REMARK    7  A    between atoms: C_19  and  C_20
REMARK                            x       y       z     vdW  Elec       q    Type
REMARK                         _______ _______ _______ _____ _____    ______ ____
ROOT
ATOM      1  C   UNL     1      45.208   6.679  13.032  0.00  0.00    +0.000 C 
ENDROOT
BRANCH   1  11
ATOM      2  C   UNL     1      47.112   2.541   5.627  0.00  0.00    +0.000 C 
ATOM      3  N   UNL     1      46.186   3.209   6.542  0.00  0.00    +0.000 NA
ATOM      4  C   UNL     1      45.506   2.200   7.392  0.00  0.00    +0.000 C 
ATOM      5  C   UNL     1      44.596   2.831   8.468  0.00  0.00    +0.000 C 
ATOM      6  N   UNL     1      45.392   3.758   9.267  0.00  0.00    +0.000 N 
ATOM      7  C   UNL     1      45.016   3.980  10.569  0.00  0.00    +0.000 A 
ATOM      8  N   UNL     1      44.461   2.984  11.254  0.00  0.00    +0.000 NA
ATOM      9  C   UNL     1      44.215   3.233  12.537  0.00  0.00    +0.000 A 
ATOM     10  N   UNL     1      44.435   4.382  13.166  0.00  0.00    +0.000 NA
ATOM     11  C   UNL     1      44.971   5.330  12.398  0.00  0.00    +0.000 A 
ATOM     12  N   UNL     1      45.287   5.157  11.116  0.00  0.00    +0.000 NA
ATOM     13  C   UNL     1      46.023   4.822   8.486  0.00  0.00    +0.000 C 
ATOM     14  C   UNL     1      46.915   4.177   7.397  0.00  0.00    +0.000 C 
ENDBRANCH   1  11
BRANCH   1  15
ATOM     15  C   UNL     1      46.633   7.322  12.942  0.00  0.00    +0.000 C 
ATOM     16  C   UNL     1      47.349   6.863  11.652  0.00  0.00    +0.000 C 
ATOM     17  C   UNL     1      46.535   8.865  13.005  0.00  0.00    +0.000 C 
BRANCH  15  18
ATOM     18  C   UNL     1      47.490   6.839  14.131  0.00  0.00    +0.000 A 
ATOM     19  C   UNL     1      48.486   7.635  14.674  0.00  0.00    +0.000 A 
ATOM     20  C   UNL     1      49.235   7.092  15.691  0.00  0.00    +0.000 A 
ATOM     21  N   UNL     1      49.046   5.853  16.174  0.00  0.00    +0.000 NA
ATOM     22  C   UNL     1      48.056   5.124  15.607  0.00  0.00    +0.000 A 
ATOM     23  N   UNL     1      47.274   5.590  14.598  0.00  0.00    +0.000 NA
BRANCH  22  24
ATOM     24  C   UNL     1      47.801   3.698  16.112  0.00  0.00    +0.000 C 
ATOM     25  F   UNL     1      48.836   3.166  16.830  0.00  0.00    +0.000 F 
ATOM     26  F   UNL     1      46.710   3.610  16.935  0.00  0.00    +0.000 F 
ATOM     27  F   UNL     1      47.569   2.806  15.101  0.00  0.00    +0.000 F 
ENDBRANCH  22  24
ENDBRANCH  15  18
ENDBRANCH   1  15
TORSDOF 4
ENDMDL
MODEL 9
REMARK VINA RESULT:    -5.822      3.523      7.039
REMARK INTER + INTRA:          -7.646
REMARK INTER:                  -7.020
REMARK INTRA:                  -0.626
REMARK UNBOUND:                -0.462
REMARK  Name = 
REMARK  7 active torsions:
REMARK  status: ('A' for Active; 'I' for Inactive)
REMARK    1  A    between atoms: C_1  and  N_2
REMARK    2  A    between atoms: C_10  and  C_11
REMARK    3  A    between atoms: C_11  and  C_12
REMARK    4  A    between atoms: C_12  and  C_13
REMARK    5  A    between atoms: C_12  and  C_14
REMARK    6  A    between atoms: C_12  and  C_15
REMARK    7  A    between atoms: C_19  and  C_20
REMARK                            x       y       z     vdW  Elec       q    Type
REMARK                         _______ _______ _______ _____ _____    ______ ____
ROOT
ATOM      1  C   UNL     1      49.871   7.062  15.492  0.00  0.00    +0.000 C 
ENDROOT
BRANCH   1  11
ATOM      2  C   UNL     1      44.157   4.436   9.491  0.00  0.00    +0.000 C 
ATOM      3  N   UNL     1      44.514   5.118  10.735  0.00  0.00    +0.000 NA
ATOM      4  C   UNL     1      44.328   4.198  11.883  0.00  0.00    +0.000 C 
ATOM      5  C   UNL     1      44.795   4.802  13.225  0.00  0.00    +0.000 C 
ATOM      6  N   UNL     1      46.189   5.217  13.089  0.00  0.00    +0.000 N 
ATOM      7  C   UNL     1      46.976   5.227  14.214  0.00  0.00    +0.000 A 
ATOM      8  N   UNL     1      46.751   4.318  15.160  0.00  0.00    +0.000 NA
ATOM      9  C   UNL     1      47.612   4.317  16.174  0.00  0.00    +0.000 A 
ATOM     10  N   UNL     1      48.628   5.156  16.337  0.00  0.00    +0.000 NA
ATOM     11  C   UNL     1      48.764   6.046  15.355  0.00  0.00    +0.000 A 
ATOM     12  N   UNL     1      47.975   6.095  14.283  0.00  0.00    +0.000 NA
ATOM     13  C   UNL     1      46.416   6.189  12.018  0.00  0.00    +0.000 C 
ATOM     14  C   UNL     1      45.923   5.579  10.682  0.00  0.00    +0.000 C 
ENDBRANCH   1  11
BRANCH   1  15
ATOM     15  C   UNL     1      49.521   8.586  15.416  0.00  0.00    +0.000 C 
ATOM     16  C   UNL     1      48.095   8.836  15.958  0.00  0.00    +0.000 C 
ATOM     17  C   UNL     1      50.565   9.421  16.194  0.00  0.00    +0.000 C 
BRANCH  15  18
ATOM     18  C   UNL     1      49.531   9.042  13.941  0.00  0.00    +0.000 A 
ATOM     19  C   UNL     1      48.551   9.883  13.439  0.00  0.00    +0.000 A 
ATOM     20  C   UNL     1      48.613  10.183  12.098  0.00  0.00    +0.000 A 
ATOM     21  N   UNL     1      49.562   9.712  11.274  0.00  0.00    +0.000 NA
ATOM     22  C   UNL     1      50.495   8.898  11.822  0.00  0.00    +0.000 A 
ATOM     23  N   UNL     1      50.501   8.555  13.138  0.00  0.00    +0.000 NA
BRANCH  22  24
ATOM     24  C   UNL     1      51.599   8.321  10.926  0.00  0.00    +0.000 C 
ATOM     25  F   UNL     1      52.771   8.061  11.579  0.00  0.00    +0.000 F 
ATOM     26  F   UNL     1      51.244   7.137  10.338  0.00  0.00    +0.000 F 
ATOM     27  F   UNL     1      51.938   9.153   9.895  0.00  0.00    +0.000 F 
ENDBRANCH  22  24
ENDBRANCH  15  18
ENDBRANCH   1  15
TORSDOF 4
ENDMDL
