MODEL 1
REMARK VINA RESULT:    -7.422      0.000      0.000
REMARK INTER + INTRA:          -8.507
REMARK INTER:                  -8.724
REMARK INTRA:                   0.217
REMARK UNBOUND:                 0.217
REMARK  Name = 
REMARK  4 active torsions:
REMARK  status: ('A' for Active; 'I' for Inactive)
REMARK    1  A    between atoms: C_1  and  C_2
REMARK    2  A    between atoms: C_2  and  C_3
REMARK    3  A    between atoms: C_7  and  C_8
REMARK    4  A    between atoms: C_13  and  N_14
REMARK                            x       y       z     vdW  Elec       q    Type
REMARK                         _______ _______ _______ _____ _____    ______ ____
ROOT
ATOM      1  C   UNL     1      47.257   6.421  12.229  0.00  0.00    +0.000 C 
ATOM      2  C   UNL     1      46.594   5.390  13.154  0.00  0.00    +0.000 C 
ATOM      3  C   UNL     1      45.034   5.503  13.201  0.00  0.00    +0.000 C 
ATOM      4  C   UNL     1      44.919   4.353  12.185  0.00  0.00    +0.000 C 
ATOM      5  C   UNL     1      46.391   4.004  12.457  0.00  0.00    +0.000 C 
ENDROOT
BRANCH   4   6
ATOM      6  N   UNL     1      44.698   4.791  10.842  0.00  0.00    +0.000 N 
ATOM      7  C   UNL     1      45.120   4.034   9.748  0.00  0.00    +0.000 A 
ATOM      8  N   UNL     1      45.197   2.697   9.846  0.00  0.00    +0.000 NA
ATOM      9  C   UNL     1      45.697   2.032   8.781  0.00  0.00    +0.000 A 
ATOM     10  C   UNL     1      46.124   2.651   7.633  0.00  0.00    +0.000 A 
ATOM     11 CL   UNL     1      46.783   1.786   6.316  0.00  0.00    +0.000 Cl
ATOM     12  C   UNL     1      45.996   4.018   7.626  0.00  0.00    +0.000 A 
ATOM     13  N   UNL     1      45.499   4.729   8.664  0.00  0.00    +0.000 NA
ATOM     14  H   UNL     1      45.007   5.737  10.638  0.00  0.00    +0.000 HD
ENDBRANCH   4   6
BRANCH   2  15
ATOM     15  C   UNL     1      47.356   5.384  14.565  0.00  0.00    +0.000 A 
ATOM     16  C   UNL     1      48.263   6.381  14.944  0.00  0.00    +0.000 A 
ATOM     17  N   UNL     1      48.920   6.446  16.127  0.00  0.00    +0.000 NA
ATOM     18  C   UNL     1      48.672   5.455  17.015  0.00  0.00    +0.000 A 
ATOM     19  C   UNL     1      47.807   4.402  16.774  0.00  0.00    +0.000 A 
ATOM     20  C   UNL     1      47.165   4.374  15.528  0.00  0.00    +0.000 A 
BRANCH  19  21
ATOM     21  C   UNL     1      47.515   3.327  17.755  0.00  0.00    +0.000 C 
ATOM     22  N   UNL     1      48.307   3.202  18.863  0.00  0.00    +0.000 N 
ATOM     23  O   UNL     1      46.570   2.563  17.593  0.00  0.00    +0.000 OA
ATOM     24  H   UNL     1      49.081   3.796  19.114  0.00  0.00    +0.000 HD
ATOM     25  H   UNL     1      48.047   2.476  19.519  0.00  0.00    +0.000 HD
ENDBRANCH  19  21
ENDBRANCH   2  15
TORSDOF 3
ENDMDL
MODEL 2
REMARK VINA RESULT:    -7.299      3.917      8.131
REMARK INTER + INTRA:          -8.362
REMARK INTER:                  -7.913
REMARK INTRA:                  -0.449
REMARK UNBOUND:                 0.217
REMARK  Name = 
REMARK  4 active torsions:
REMARK  status: ('A' for Active; 'I' for Inactive)
REMARK    1  A    between atoms: C_1  and  C_2
REMARK    2  A    between atoms: C_2  and  C_3
REMARK    3  A    between atoms: C_7  and  C_8
REMARK    4  A    between atoms: C_13  and  N_14
REMARK                            x       y       z     vdW  Elec       q    Type
REMARK                         _______ _______ _______ _____ _____    ______ ____
ROOT
ATOM      1  C   UNL     1      43.888   4.436  13.005  0.00  0.00    +0.000 C 
ATOM      2  C   UNL     1      45.241   4.164  12.333  0.00  0.00    +0.000 C 
ATOM      3  C   UNL     1      46.353   5.193  12.724  0.00  0.00    +0.000 C 
ATOM      4  C   UNL     1      46.907   4.201  13.762  0.00  0.00    +0.000 C 
ATOM      5  C   UNL     1      46.082   3.088  13.096  0.00  0.00    +0.000 C 
ENDROOT
BRANCH   4   6
ATOM      6  N   UNL     1      46.483   4.471  15.101  0.00  0.00    +0.000 N 
ATOM      7  C   UNL     1      47.401   4.663  16.134  0.00  0.00    +0.000 A 
ATOM      8  N   UNL     1      48.615   5.172  15.867  0.00  0.00    +0.000 NA
ATOM      9  C   UNL     1      49.487   5.250  16.896  0.00  0.00    +0.000 A 
ATOM     10  C   UNL     1      49.194   4.835  18.171  0.00  0.00    +0.000 A 
ATOM     11 CL   UNL     1      50.329   4.915  19.445  0.00  0.00    +0.000 Cl
ATOM     12  C   UNL     1      47.926   4.338  18.345  0.00  0.00    +0.000 A 
ATOM     13  N   UNL     1      47.016   4.242  17.348  0.00  0.00    +0.000 NA
ATOM     14  H   UNL     1      45.800   3.821  15.478  0.00  0.00    +0.000 HD
ENDBRANCH   4   6
BRANCH   2  15
ATOM     15  C   UNL     1      45.009   3.920  10.764  0.00  0.00    +0.000 A 
ATOM     16  C   UNL     1      44.106   4.672  10.003  0.00  0.00    +0.000 A 
ATOM     17  N   UNL     1      43.881   4.531   8.675  0.00  0.00    +0.000 NA
ATOM     18  C   UNL     1      44.596   3.577   8.034  0.00  0.00    +0.000 A 
ATOM     19  C   UNL     1      45.517   2.754   8.659  0.00  0.00    +0.000 A 
ATOM     20  C   UNL     1      45.700   2.931  10.038  0.00  0.00    +0.000 A 
BRANCH  19  21
ATOM     21  C   UNL     1      46.320   1.724   7.955  0.00  0.00    +0.000 C 
ATOM     22  N   UNL     1      47.193   2.112   6.977  0.00  0.00    +0.000 N 
ATOM     23  O   UNL     1      46.222   0.537   8.248  0.00  0.00    +0.000 OA
ATOM     24  H   UNL     1      47.381   3.058   6.686  0.00  0.00    +0.000 HD
ATOM     25  H   UNL     1      47.743   1.376   6.550  0.00  0.00    +0.000 HD
ENDBRANCH  19  21
ENDBRANCH   2  15
TORSDOF 3
ENDMDL
MODEL 3
REMARK VINA RESULT:    -6.540      4.457      8.245
REMARK INTER + INTRA:          -7.470
REMARK INTER:                  -7.244
REMARK INTRA:                  -0.226
REMARK UNBOUND:                 0.217
REMARK  Name = 
REMARK  4 active torsions:
REMARK  status: ('A' for Active; 'I' for Inactive)
REMARK    1  A    between atoms: C_1  and  C_2
REMARK    2  A    between atoms: C_2  and  C_3
REMARK    3  A    between atoms: C_7  and  C_8
REMARK    4  A    between atoms: C_13  and  N_14
REMARK                            x       y       z     vdW  Elec       q    Type
REMARK                         _______ _______ _______ _____ _____    ______ ____
ROOT
ATOM      1  C   UNL     1      45.794   8.207  13.011  0.00  0.00    +0.000 C 
ATOM      2  C   UNL     1      46.479   6.919  12.532  0.00  0.00    +0.000 C 
ATOM      3  C   UNL     1      47.870   7.163  11.857  0.00  0.00    +0.000 C 
ATOM      4  C   UNL     1      48.574   6.798  13.175  0.00  0.00    +0.000 C 
ATOM      5  C   UNL     1      47.254   6.192  13.679  0.00  0.00    +0.000 C 
ENDROOT
BRANCH   4   6
ATOM      6  N   UNL     1      48.985   7.932  13.943  0.00  0.00    +0.000 N 
ATOM      7  C   UNL     1      49.618   7.789  15.179  0.00  0.00    +0.000 A 
ATOM      8  N   UNL     1      50.368   6.702  15.426  0.00  0.00    +0.000 NA
ATOM      9  C   UNL     1      50.880   6.582  16.671  0.00  0.00    +0.000 A 
ATOM     10  C   UNL     1      50.667   7.498  17.670  0.00  0.00    +0.000 A 
ATOM     11 CL   UNL     1      51.300   7.301  19.245  0.00  0.00    +0.000 Cl
ATOM     12  C   UNL     1      49.896   8.577  17.316  0.00  0.00    +0.000 A 
ATOM     13  N   UNL     1      49.363   8.745  16.084  0.00  0.00    +0.000 NA
ATOM     14  H   UNL     1      48.267   8.633  14.100  0.00  0.00    +0.000 HD
ENDBRANCH   4   6
BRANCH   2  15
ATOM     15  C   UNL     1      45.424   6.040  11.703  0.00  0.00    +0.000 A 
ATOM     16  C   UNL     1      44.114   5.811  12.141  0.00  0.00    +0.000 A 
ATOM     17  N   UNL     1      43.171   5.099  11.479  0.00  0.00    +0.000 NA
ATOM     18  C   UNL     1      43.535   4.565  10.290  0.00  0.00    +0.000 A 
ATOM     19  C   UNL     1      44.796   4.702   9.737  0.00  0.00    +0.000 A 
ATOM     20  C   UNL     1      45.740   5.436  10.471  0.00  0.00    +0.000 A 
BRANCH  19  21
ATOM     21  C   UNL     1      45.192   4.139   8.423  0.00  0.00    +0.000 C 
ATOM     22  N   UNL     1      44.446   3.130   7.878  0.00  0.00    +0.000 N 
ATOM     23  O   UNL     1      46.164   4.572   7.815  0.00  0.00    +0.000 OA
ATOM     24  H   UNL     1      43.610   2.728   8.269  0.00  0.00    +0.000 HD
ATOM     25  H   UNL     1      44.736   2.803   6.964  0.00  0.00    +0.000 HD
ENDBRANCH  19  21
ENDBRANCH   2  15
TORSDOF 3
ENDMDL
MODEL 4
REMARK VINA RESULT:    -6.463      1.489      2.073
REMARK INTER + INTRA:          -7.380
REMARK INTER:                  -7.576
REMARK INTRA:                   0.197
REMARK UNBOUND:                 0.217
REMARK  Name = 
REMARK  4 active torsions:
REMARK  status: ('A' for Active; 'I' for Inactive)
REMARK    1  A    between atoms: C_1  and  C_2
REMARK    2  A    between atoms: C_2  and  C_3
REMARK    3  A    between atoms: C_7  and  C_8
REMARK    4  A    between atoms: C_13  and  N_14
REMARK                            x       y       z     vdW  Elec       q    Type
REMARK                         _______ _______ _______ _____ _____    ______ ____
ROOT
ATOM      1  C   UNL     1      47.084   6.055  12.553  0.00  0.00    +0.000 C 
ATOM      2  C   UNL     1      46.320   4.965  13.319  0.00  0.00    +0.000 C 
ATOM      3  C   UNL     1      44.765   5.108  13.229  0.00  0.00    +0.000 C 
ATOM      4  C   UNL     1      44.731   4.051  12.111  0.00  0.00    +0.000 C 
ATOM      5  C   UNL     1      46.166   3.647  12.489  0.00  0.00    +0.000 C 
ENDROOT
BRANCH   4   6
ATOM      6  N   UNL     1      44.646   4.606  10.796  0.00  0.00    +0.000 N 
ATOM      7  C   UNL     1      45.120   3.916   9.679  0.00  0.00    +0.000 A 
ATOM      8  N   UNL     1      45.121   2.573   9.671  0.00  0.00    +0.000 NA
ATOM      9  C   UNL     1      45.675   1.967   8.597  0.00  0.00    +0.000 A 
ATOM     10  C   UNL     1      46.227   2.650   7.543  0.00  0.00    +0.000 A 
ATOM     11 CL   UNL     1      46.950   1.855   6.214  0.00  0.00    +0.000 Cl
ATOM     12  C   UNL     1      46.169   4.018   7.640  0.00  0.00    +0.000 A 
ATOM     13  N   UNL     1      45.623   4.672   8.692  0.00  0.00    +0.000 NA
ATOM     14  H   UNL     1      45.018   5.546  10.697  0.00  0.00    +0.000 HD
ENDBRANCH   4   6
BRANCH   2  15
ATOM     15  C   UNL     1      46.944   4.822  14.790  0.00  0.00    +0.000 A 
ATOM     16  C   UNL     1      46.446   3.926  15.744  0.00  0.00    +0.000 A 
ATOM     17  N   UNL     1      46.940   3.743  16.992  0.00  0.00    +0.000 NA
ATOM     18  C   UNL     1      48.009   4.496  17.340  0.00  0.00    +0.000 A 
ATOM     19  C   UNL     1      48.601   5.427  16.504  0.00  0.00    +0.000 A 
ATOM     20  C   UNL     1      48.040   5.589  15.229  0.00  0.00    +0.000 A 
BRANCH  19  21
ATOM     21  C   UNL     1      49.788   6.237  16.874  0.00  0.00    +0.000 C 
ATOM     22  N   UNL     1      49.709   7.087  17.942  0.00  0.00    +0.000 N 
ATOM     23  O   UNL     1      50.837   6.145  16.246  0.00  0.00    +0.000 OA
ATOM     24  H   UNL     1      48.914   7.212  18.548  0.00  0.00    +0.000 HD
ATOM     25  H   UNL     1      50.555   7.593  18.175  0.00  0.00    +0.000 HD
ENDBRANCH  19  21
ENDBRANCH   2  15
TORSDOF 3
ENDMDL
MODEL 5
REMARK VINA RESULT:    -6.441      4.497      7.595
REMARK INTER + INTRA:          -7.353
REMARK INTER:                  -6.930
REMARK INTRA:                  -0.423
REMARK UNBOUND:                 0.217
REMARK  Name = 
REMARK  4 active torsions:
REMARK  status: ('A' for Active; 'I' for Inactive)
REMARK    1  A    between atoms: C_1  and  C_2
REMARK    2  A    between atoms: C_2  and  C_3
REMARK    3  A    between atoms: C_7  and  C_8
REMARK    4  A    between atoms: C_13  and  N_14
REMARK                            x       y       z     vdW  Elec       q    Type
REMARK                         _______ _______ _______ _____ _____    ______ ____
ROOT
ATOM      1  C   UNL     1      45.651   8.185  12.925  0.00  0.00    +0.000 C 
ATOM      2  C   UNL     1      46.313   6.859  12.522  0.00  0.00    +0.000 C 
ATOM      3  C   UNL     1      47.507   7.033  11.525  0.00  0.00    +0.000 C 
ATOM      4  C   UNL     1      48.500   6.930  12.696  0.00  0.00    +0.000 C 
ATOM      5  C   UNL     1      47.366   6.373  13.571  0.00  0.00    +0.000 C 
ENDROOT
BRANCH   4   6
ATOM      6  N   UNL     1      48.979   8.195  13.159  0.00  0.00    +0.000 N 
ATOM      7  C   UNL     1      50.302   8.593  12.963  0.00  0.00    +0.000 A 
ATOM      8  N   UNL     1      50.987   8.142  11.899  0.00  0.00    +0.000 NA
ATOM      9  C   UNL     1      52.289   8.494  11.815  0.00  0.00    +0.000 A 
ATOM     10  C   UNL     1      52.927   9.268  12.752  0.00  0.00    +0.000 A 
ATOM     11 CL   UNL     1      54.584   9.668  12.635  0.00  0.00    +0.000 Cl
ATOM     12  C   UNL     1      52.140   9.686  13.796  0.00  0.00    +0.000 A 
ATOM     13  N   UNL     1      50.832   9.364  13.924  0.00  0.00    +0.000 NA
ATOM     14  H   UNL     1      48.789   8.399  14.136  0.00  0.00    +0.000 HD
ENDBRANCH   4   6
BRANCH   2  15
ATOM     15  C   UNL     1      45.174   5.810  12.101  0.00  0.00    +0.000 A 
ATOM     16  C   UNL     1      43.984   5.650  12.820  0.00  0.00    +0.000 A 
ATOM     17  N   UNL     1      42.977   4.801  12.506  0.00  0.00    +0.000 NA
ATOM     18  C   UNL     1      43.144   4.044  11.397  0.00  0.00    +0.000 A 
ATOM     19  C   UNL     1      44.270   4.089  10.594  0.00  0.00    +0.000 A 
ATOM     20  C   UNL     1      45.290   4.974  10.974  0.00  0.00    +0.000 A 
BRANCH  19  21
ATOM     21  C   UNL     1      44.446   3.278   9.365  0.00  0.00    +0.000 C 
ATOM     22  N   UNL     1      44.568   1.921   9.473  0.00  0.00    +0.000 N 
ATOM     23  O   UNL     1      44.469   3.804   8.257  0.00  0.00    +0.000 OA
ATOM     24  H   UNL     1      44.524   1.384  10.324  0.00  0.00    +0.000 HD
ATOM     25  H   UNL     1      44.652   1.408   8.603  0.00  0.00    +0.000 HD
ENDBRANCH  19  21
ENDBRANCH   2  15
TORSDOF 3
ENDMDL
MODEL 6
REMARK VINA RESULT:    -6.379      1.993      2.358
REMARK INTER + INTRA:          -7.281
REMARK INTER:                  -7.475
REMARK INTRA:                   0.194
REMARK UNBOUND:                 0.217
REMARK  Name = 
REMARK  4 active torsions:
REMARK  status: ('A' for Active; 'I' for Inactive)
REMARK    1  A    between atoms: C_1  and  C_2
REMARK    2  A    between atoms: C_2  and  C_3
REMARK    3  A    between atoms: C_7  and  C_8
REMARK    4  A    between atoms: C_13  and  N_14
REMARK                            x       y       z     vdW  Elec       q    Type
REMARK                         _______ _______ _______ _____ _____    ______ ____
ROOT
ATOM      1  C   UNL     1      48.111   7.412  11.448  0.00  0.00    +0.000 C 
ATOM      2  C   UNL     1      47.116   7.190  12.597  0.00  0.00    +0.000 C 
ATOM      3  C   UNL     1      45.703   7.809  12.331  0.00  0.00    +0.000 C 
ATOM      4  C   UNL     1      45.181   6.429  11.893  0.00  0.00    +0.000 C 
ATOM      5  C   UNL     1      46.426   5.788  12.528  0.00  0.00    +0.000 C 
ENDROOT
BRANCH   4   6
ATOM      6  N   UNL     1      45.137   6.253  10.474  0.00  0.00    +0.000 N 
ATOM      7  C   UNL     1      45.219   4.987   9.892  0.00  0.00    +0.000 A 
ATOM      8  N   UNL     1      44.766   3.913  10.557  0.00  0.00    +0.000 NA
ATOM      9  C   UNL     1      44.954   2.707   9.975  0.00  0.00    +0.000 A 
ATOM     10  C   UNL     1      45.580   2.540   8.765  0.00  0.00    +0.000 A 
ATOM     11 CL   UNL     1      45.833   0.999   8.070  0.00  0.00    +0.000 Cl
ATOM     12  C   UNL     1      45.999   3.699   8.160  0.00  0.00    +0.000 A 
ATOM     13  N   UNL     1      45.831   4.928   8.699  0.00  0.00    +0.000 NA
ATOM     14  H   UNL     1      45.791   6.824   9.946  0.00  0.00    +0.000 HD
ENDBRANCH   4   6
BRANCH   2  15
ATOM     15  C   UNL     1      47.820   7.582  13.984  0.00  0.00    +0.000 A 
ATOM     16  C   UNL     1      47.826   8.886  14.493  0.00  0.00    +0.000 A 
ATOM     17  N   UNL     1      48.382   9.276  15.665  0.00  0.00    +0.000 NA
ATOM     18  C   UNL     1      48.983   8.314  16.403  0.00  0.00    +0.000 A 
ATOM     19  C   UNL     1      49.061   6.986  16.022  0.00  0.00    +0.000 A 
ATOM     20  C   UNL     1      48.483   6.638  14.792  0.00  0.00    +0.000 A 
BRANCH  19  21
ATOM     21  C   UNL     1      49.698   5.925  16.840  0.00  0.00    +0.000 C 
ATOM     22  N   UNL     1      50.620   6.275  17.787  0.00  0.00    +0.000 N 
ATOM     23  O   UNL     1      49.401   4.745  16.689  0.00  0.00    +0.000 OA
ATOM     24  H   UNL     1      50.908   7.211  18.022  0.00  0.00    +0.000 HD
ATOM     25  H   UNL     1      51.001   5.518  18.343  0.00  0.00    +0.000 HD
ENDBRANCH  19  21
ENDBRANCH   2  15
TORSDOF 3
ENDMDL
MODEL 7
REMARK VINA RESULT:    -6.046      4.348      7.917
REMARK INTER + INTRA:          -6.890
REMARK INTER:                  -6.541
REMARK INTRA:                  -0.349
REMARK UNBOUND:                 0.217
REMARK  Name = 
REMARK  4 active torsions:
REMARK  status: ('A' for Active; 'I' for Inactive)
REMARK    1  A    between atoms: C_1  and  C_2
REMARK    2  A    between atoms: C_2  and  C_3
REMARK    3  A    between atoms: C_7  and  C_8
REMARK    4  A    between atoms: C_13  and  N_14
REMARK                            x       y       z     vdW  Elec       q    Type
REMARK                         _______ _______ _______ _____ _____    ______ ____
ROOT
ATOM      1  C   UNL     1      48.123   7.227  11.381  0.00  0.00    +0.000 C 
ATOM      2  C   UNL     1      47.227   6.864  12.574  0.00  0.00    +0.000 C 
ATOM      3  C   UNL     1      47.923   5.932  13.621  0.00  0.00    +0.000 C 
ATOM      4  C   UNL     1      48.240   7.155  14.500  0.00  0.00    +0.000 C 
ATOM      5  C   UNL     1      47.227   7.971  13.680  0.00  0.00    +0.000 C 
ENDROOT
BRANCH   4   6
ATOM      6  N   UNL     1      49.579   7.638  14.354  0.00  0.00    +0.000 N 
ATOM      7  C   UNL     1      50.555   7.386  15.319  0.00  0.00    +0.000 A 
ATOM      8  N   UNL     1      50.489   6.271  16.065  0.00  0.00    +0.000 NA
ATOM      9  C   UNL     1      51.415   6.131  17.040  0.00  0.00    +0.000 A 
ATOM     10  C   UNL     1      52.392   7.059  17.296  0.00  0.00    +0.000 A 
ATOM     11 CL   UNL     1      53.529   6.869  18.558  0.00  0.00    +0.000 Cl
ATOM     12  C   UNL     1      52.382   8.159  16.474  0.00  0.00    +0.000 A 
ATOM     13  N   UNL     1      51.480   8.344  15.483  0.00  0.00    +0.000 NA
ATOM     14  H   UNL     1      49.662   8.630  14.154  0.00  0.00    +0.000 HD
ENDBRANCH   4   6
BRANCH   2  15
ATOM     15  C   UNL     1      45.795   6.388  12.030  0.00  0.00    +0.000 A 
ATOM     16  C   UNL     1      44.750   7.279  11.755  0.00  0.00    +0.000 A 
ATOM     17  N   UNL     1      43.530   6.943  11.274  0.00  0.00    +0.000 NA
ATOM     18  C   UNL     1      43.307   5.628  11.043  0.00  0.00    +0.000 A 
ATOM     19  C   UNL     1      44.242   4.636  11.276  0.00  0.00    +0.000 A 
ATOM     20  C   UNL     1      45.485   5.035  11.789  0.00  0.00    +0.000 A 
BRANCH  19  21
ATOM     21  C   UNL     1      44.010   3.196  11.000  0.00  0.00    +0.000 C 
ATOM     22  N   UNL     1      44.932   2.501  10.268  0.00  0.00    +0.000 N 
ATOM     23  O   UNL     1      43.016   2.622  11.430  0.00  0.00    +0.000 OA
ATOM     24  H   UNL     1      45.798   2.861   9.901  0.00  0.00    +0.000 HD
ATOM     25  H   UNL     1      44.746   1.513  10.136  0.00  0.00    +0.000 HD
ENDBRANCH  19  21
ENDBRANCH   2  15
TORSDOF 3
ENDMDL
MODEL 8
REMARK VINA RESULT:    -5.933      4.486      7.791
REMARK INTER + INTRA:          -6.757
REMARK INTER:                  -6.329
REMARK INTRA:                  -0.428
REMARK UNBOUND:                 0.217
REMARK  Name = 
REMARK  4 active torsions:
REMARK  status: ('A' for Active; 'I' for Inactive)
REMARK    1  A    between atoms: C_1  and  C_2
REMARK    2  A    between atoms: C_2  and  C_3
REMARK    3  A    between atoms: C_7  and  C_8
REMARK    4  A    between atoms: C_13  and  N_14
REMARK                            x       y       z     vdW  Elec       q    Type
REMARK                         _______ _______ _______ _____ _____    ______ ____
ROOT
ATOM      1  C   UNL     1      46.061   8.321  12.212  0.00  0.00    +0.000 C 
ATOM      2  C   UNL     1      46.895   7.043  12.040  0.00  0.00    +0.000 C 
ATOM      3  C   UNL     1      48.331   7.303  11.475  0.00  0.00    +0.000 C 
ATOM      4  C   UNL     1      48.905   7.235  12.900  0.00  0.00    +0.000 C 
ATOM      5  C   UNL     1      47.588   6.598  13.370  0.00  0.00    +0.000 C 
ENDROOT
BRANCH   4   6
ATOM      6  N   UNL     1      49.136   8.517  13.491  0.00  0.00    +0.000 N 
ATOM      7  C   UNL     1      50.409   8.914  13.903  0.00  0.00    +0.000 A 
ATOM      8  N   UNL     1      51.496   8.433  13.279  0.00  0.00    +0.000 NA
ATOM      9  C   UNL     1      52.699   8.787  13.784  0.00  0.00    +0.000 A 
ATOM     10  C   UNL     1      52.852   9.594  14.883  0.00  0.00    +0.000 A 
ATOM     11 CL   UNL     1      54.386   9.998  15.518  0.00  0.00    +0.000 Cl
ATOM     12  C   UNL     1      51.682  10.042  15.444  0.00  0.00    +0.000 A 
ATOM     13  N   UNL     1      50.455   9.719  14.975  0.00  0.00    +0.000 NA
ATOM     14  H   UNL     1      48.527   8.751  14.269  0.00  0.00    +0.000 HD
ENDBRANCH   4   6
BRANCH   2  15
ATOM     15  C   UNL     1      46.014   5.939  11.280  0.00  0.00    +0.000 A 
ATOM     16  C   UNL     1      46.041   5.769   9.891  0.00  0.00    +0.000 A 
ATOM     17  N   UNL     1      45.340   4.843   9.193  0.00  0.00    +0.000 NA
ATOM     18  C   UNL     1      44.546   4.014   9.909  0.00  0.00    +0.000 A 
ATOM     19  C   UNL     1      44.414   4.071  11.285  0.00  0.00    +0.000 A 
ATOM     20  C   UNL     1      45.149   5.058  11.958  0.00  0.00    +0.000 A 
BRANCH  19  21
ATOM     21  C   UNL     1      43.563   3.148  12.076  0.00  0.00    +0.000 C 
ATOM     22  N   UNL     1      43.454   3.334  13.426  0.00  0.00    +0.000 N 
ATOM     23  O   UNL     1      42.948   2.235  11.536  0.00  0.00    +0.000 OA
ATOM     24  H   UNL     1      43.881   4.071  13.964  0.00  0.00    +0.000 HD
ATOM     25  H   UNL     1      42.834   2.699  13.917  0.00  0.00    +0.000 HD
ENDBRANCH  19  21
ENDBRANCH   2  15
TORSDOF 3
ENDMDL
MODEL 9
REMARK VINA RESULT:    -5.787      4.349      7.911
REMARK INTER + INTRA:          -6.585
REMARK INTER:                  -6.152
REMARK INTRA:                  -0.433
REMARK UNBOUND:                 0.217
REMARK  Name = 
REMARK  4 active torsions:
REMARK  status: ('A' for Active; 'I' for Inactive)
REMARK    1  A    between atoms: C_1  and  C_2
REMARK    2  A    between atoms: C_2  and  C_3
REMARK    3  A    between atoms: C_7  and  C_8
REMARK    4  A    between atoms: C_13  and  N_14
REMARK                            x       y       z     vdW  Elec       q    Type
REMARK                         _______ _______ _______ _____ _____    ______ ____
ROOT
ATOM      1  C   UNL     1      47.139   5.056  14.508  0.00  0.00    +0.000 C 
ATOM      2  C   UNL     1      47.004   6.100  13.390  0.00  0.00    +0.000 C 
ATOM      3  C   UNL     1      47.202   7.572  13.881  0.00  0.00    +0.000 C 
ATOM      4  C   UNL     1      48.659   7.541  13.387  0.00  0.00    +0.000 C 
ATOM      5  C   UNL     1      48.327   6.279  12.576  0.00  0.00    +0.000 C 
ENDROOT
BRANCH   4   6
ATOM      6  N   UNL     1      49.613   7.292  14.423  0.00  0.00    +0.000 N 
ATOM      7  C   UNL     1      50.674   8.166  14.666  0.00  0.00    +0.000 A 
ATOM      8  N   UNL     1      50.541   9.474  14.394  0.00  0.00    +0.000 NA
ATOM      9  C   UNL     1      51.633  10.251  14.568  0.00  0.00    +0.000 A 
ATOM     10  C   UNL     1      52.845   9.769  14.995  0.00  0.00    +0.000 A 
ATOM     11 CL   UNL     1      54.218  10.770  15.174  0.00  0.00    +0.000 Cl
ATOM     12  C   UNL     1      52.878   8.421  15.255  0.00  0.00    +0.000 A 
ATOM     13  N   UNL     1      51.812   7.603  15.100  0.00  0.00    +0.000 NA
ATOM     14  H   UNL     1      50.036   6.369  14.410  0.00  0.00    +0.000 HD
ENDBRANCH   4   6
BRANCH   2  15
ATOM     15  C   UNL     1      45.672   5.797  12.548  0.00  0.00    +0.000 A 
ATOM     16  C   UNL     1      44.806   6.805  12.107  0.00  0.00    +0.000 A 
ATOM     17  N   UNL     1      43.681   6.618  11.376  0.00  0.00    +0.000 NA
ATOM     18  C   UNL     1      43.375   5.341  11.046  0.00  0.00    +0.000 A 
ATOM     19  C   UNL     1      44.133   4.246  11.419  0.00  0.00    +0.000 A 
ATOM     20  C   UNL     1      45.279   4.493  12.190  0.00  0.00    +0.000 A 
BRANCH  19  21
ATOM     21  C   UNL     1      43.814   2.847  11.040  0.00  0.00    +0.000 C 
ATOM     22  N   UNL     1      44.495   2.264  10.008  0.00  0.00    +0.000 N 
ATOM     23  O   UNL     1      42.962   2.206  11.645  0.00  0.00    +0.000 OA
ATOM     24  H   UNL     1      45.238   2.682   9.471  0.00  0.00    +0.000 HD
ATOM     25  H   UNL     1      44.265   1.297   9.809  0.00  0.00    +0.000 HD
ENDBRANCH  19  21
ENDBRANCH   2  15
TORSDOF 3
ENDMDL
