MODEL 1
REMARK VINA RESULT:    -7.632      0.000      0.000
REMARK INTER + INTRA:         -11.524
REMARK INTER:                 -11.201
REMARK INTRA:                  -0.323
REMARK UNBOUND:                -0.323
REMARK  Name = 
REMARK  8 active torsions:
REMARK  status: ('A' for Active; 'I' for Inactive)
REMARK    1  A    between atoms: C_2  and  C_25
REMARK    2  A    between atoms: N_3  and  C_4
REMARK    3  A    between atoms: C_4  and  C_5
REMARK    4  A    between atoms: C_8  and  C_9
REMARK    5  A    between atoms: C_9  and  N_10
REMARK    6  A    between atoms: N_10  and  C_11
REMARK    7  A    between atoms: C_11  and  C_12
REMARK    8  A    between atoms: C_16  and  C_18
REMARK                            x       y       z     vdW  Elec       q    Type
REMARK                         _______ _______ _______ _____ _____    ______ ____
ROOT
ATOM      1  C   UNL     1      46.773   7.902  12.985  0.00  0.00    +0.000 A 
ATOM      2  C   UNL     1      45.612   8.417  12.400  0.00  0.00    +0.000 A 
ATOM      3  C   UNL     1      44.902   7.681  11.442  0.00  0.00    +0.000 A 
ATOM      4  C   UNL     1      45.313   6.397  11.053  0.00  0.00    +0.000 A 
ATOM      5  C   UNL     1      46.518   5.914  11.582  0.00  0.00    +0.000 A 
ATOM      6  C   UNL     1      47.235   6.654  12.541  0.00  0.00    +0.000 A 
ENDROOT
BRANCH   1   7
ATOM      7  C   UNL     1      47.504   8.692  14.044  0.00  0.00    +0.000 C 
BRANCH   7  10
ATOM      8  O   UNL     1      50.032   7.869  14.625  0.00  0.00    +0.000 OA
ATOM      9  C   UNL     1      49.166   7.613  15.461  0.00  0.00    +0.000 C 
ATOM     10  N   UNL     1      47.842   7.931  15.234  0.00  0.00    +0.000 N 
ATOM     11  H   UNL     1      47.182   7.916  16.008  0.00  0.00    +0.000 HD
BRANCH   9  12
ATOM     12  C   UNL     1      49.527   6.929  16.713  0.00  0.00    +0.000 A 
ATOM     13  C   UNL     1      50.379   7.563  17.610  0.00  0.00    +0.000 A 
ATOM     14  S   UNL     1      50.674   6.676  19.034  0.00  0.00    +0.000 S 
ATOM     15  C   UNL     1      49.639   5.426  18.527  0.00  0.00    +0.000 A 
ATOM     16  N   UNL     1      49.394   4.356  19.333  0.00  0.00    +0.000 NA
ATOM     17  C   UNL     1      48.558   3.507  18.843  0.00  0.00    +0.000 A 
ATOM     18  N   UNL     1      47.956   3.620  17.613  0.00  0.00    +0.000 N 
ATOM     19  C   UNL     1      48.207   4.663  16.747  0.00  0.00    +0.000 A 
ATOM     20  O   UNL     1      47.706   4.709  15.632  0.00  0.00    +0.000 OA
ATOM     21  C   UNL     1      49.113   5.665  17.268  0.00  0.00    +0.000 A 
ATOM     22  H   UNL     1      47.323   2.907  17.285  0.00  0.00    +0.000 HD
ENDBRANCH   9  12
ENDBRANCH   7  10
ENDBRANCH   1   7
BRANCH   4  23
ATOM     23  C   UNL     1      44.402   5.530  10.200  0.00  0.00    +0.000 C 
BRANCH  23  24
ATOM     24  N   UNL     1      44.934   4.217   9.828  0.00  0.00    +0.000 N 
ATOM     25  C   UNL     1      45.741   4.166   8.649  0.00  0.00    +0.000 C 
ATOM     26  O   UNL     1      46.125   5.204   8.107  0.00  0.00    +0.000 OA
BRANCH  25  27
ATOM     27  C   UNL     1      46.103   2.843   8.110  0.00  0.00    +0.000 A 
ATOM     28  N   UNL     1      45.671   1.690   8.594  0.00  0.00    +0.000 NA
ATOM     29  C   UNL     1      46.318   0.647   7.968  0.00  0.00    +0.000 A 
ATOM     30  C   UNL     1      47.204   1.010   6.979  0.00  0.00    +0.000 A 
ATOM     31  S   UNL     1      47.201   2.717   6.795  0.00  0.00    +0.000 S 
ENDBRANCH  25  27
BRANCH  24  32
ATOM     32  C   UNL     1      44.287   2.971  10.310  0.00  0.00    +0.000 C 
BRANCH  32  33
ATOM     33  C   UNL     1      43.523   2.821  11.628  0.00  0.00    +0.000 C 
ATOM     34  F   UNL     1      42.930   1.629  11.807  0.00  0.00    +0.000 F 
ATOM     35  F   UNL     1      44.384   2.990  12.667  0.00  0.00    +0.000 F 
ATOM     36  F   UNL     1      42.573   3.777  11.751  0.00  0.00    +0.000 F 
ENDBRANCH  32  33
ENDBRANCH  24  32
ENDBRANCH  23  24
ENDBRANCH   4  23
TORSDOF 8
ENDMDL
MODEL 2
REMARK VINA RESULT:    -7.312      3.780      8.566
REMARK INTER + INTRA:         -11.054
REMARK INTER:                  -9.597
REMARK INTRA:                  -1.457
REMARK UNBOUND:                -0.323
REMARK  Name = 
REMARK  8 active torsions:
REMARK  status: ('A' for Active; 'I' for Inactive)
REMARK    1  A    between atoms: C_2  and  C_25
REMARK    2  A    between atoms: N_3  and  C_4
REMARK    3  A    between atoms: C_4  and  C_5
REMARK    4  A    between atoms: C_8  and  C_9
REMARK    5  A    between atoms: C_9  and  N_10
REMARK    6  A    between atoms: N_10  and  C_11
REMARK    7  A    between atoms: C_11  and  C_12
REMARK    8  A    between atoms: C_16  and  C_18
REMARK                            x       y       z     vdW  Elec       q    Type
REMARK                         _______ _______ _______ _____ _____    ______ ____
ROOT
ATOM      1  C   UNL     1      49.392   7.572  15.932  0.00  0.00    +0.000 A 
ATOM      2  C   UNL     1      50.694   7.062  15.899  0.00  0.00    +0.000 A 
ATOM      3  C   UNL     1      51.204   6.321  16.973  0.00  0.00    +0.000 A 
ATOM      4  C   UNL     1      50.424   6.044  18.106  0.00  0.00    +0.000 A 
ATOM      5  C   UNL     1      49.147   6.620  18.172  0.00  0.00    +0.000 A 
ATOM      6  C   UNL     1      48.636   7.369  17.096  0.00  0.00    +0.000 A 
ENDROOT
BRANCH   1   7
ATOM      7  C   UNL     1      48.846   8.336  14.749  0.00  0.00    +0.000 C 
BRANCH   7  10
ATOM      8  O   UNL     1      48.522   7.019  12.390  0.00  0.00    +0.000 OA
ATOM      9  C   UNL     1      47.516   7.154  13.085  0.00  0.00    +0.000 C 
ATOM     10  N   UNL     1      47.560   7.861  14.271  0.00  0.00    +0.000 N 
ATOM     11  H   UNL     1      46.792   7.779  14.932  0.00  0.00    +0.000 HD
BRANCH   9  12
ATOM     12  C   UNL     1      46.233   6.585  12.645  0.00  0.00    +0.000 A 
ATOM     13  C   UNL     1      45.289   7.417  12.055  0.00  0.00    +0.000 A 
ATOM     14  S   UNL     1      43.871   6.616  11.554  0.00  0.00    +0.000 S 
ATOM     15  C   UNL     1      44.482   5.114  12.067  0.00  0.00    +0.000 A 
ATOM     16  N   UNL     1      43.770   3.970  11.870  0.00  0.00    +0.000 NA
ATOM     17  C   UNL     1      44.369   2.900  12.267  0.00  0.00    +0.000 A 
ATOM     18  N   UNL     1      45.609   2.870  12.859  0.00  0.00    +0.000 N 
ATOM     19  C   UNL     1      46.347   4.007  13.115  0.00  0.00    +0.000 A 
ATOM     20  O   UNL     1      47.421   3.959  13.699  0.00  0.00    +0.000 OA
ATOM     21  C   UNL     1      45.731   5.233  12.653  0.00  0.00    +0.000 A 
ATOM     22  H   UNL     1      46.011   1.997  13.161  0.00  0.00    +0.000 HD
ENDBRANCH   9  12
ENDBRANCH   7  10
ENDBRANCH   1   7
BRANCH   4  23
ATOM     23  C   UNL     1      50.911   5.045  19.142  0.00  0.00    +0.000 C 
BRANCH  23  24
ATOM     24  N   UNL     1      51.393   3.764  18.618  0.00  0.00    +0.000 N 
ATOM     25  C   UNL     1      52.733   3.400  18.956  0.00  0.00    +0.000 C 
ATOM     26  O   UNL     1      53.360   4.037  19.805  0.00  0.00    +0.000 OA
BRANCH  25  27
ATOM     27  C   UNL     1      53.335   2.245  18.268  0.00  0.00    +0.000 A 
ATOM     28  N   UNL     1      52.899   1.000  18.367  0.00  0.00    +0.000 NA
ATOM     29  C   UNL     1      53.773   0.145  17.730  0.00  0.00    +0.000 A 
ATOM     30  C   UNL     1      54.844   0.749  17.111  0.00  0.00    +0.000 A 
ATOM     31  S   UNL     1      54.735   2.453  17.295  0.00  0.00    +0.000 S 
ENDBRANCH  25  27
BRANCH  24  32
ATOM     32  C   UNL     1      50.758   3.144  17.428  0.00  0.00    +0.000 C 
BRANCH  32  33
ATOM     33  C   UNL     1      49.268   2.822  17.284  0.00  0.00    +0.000 C 
ATOM     34  F   UNL     1      48.603   2.691  18.444  0.00  0.00    +0.000 F 
ATOM     35  F   UNL     1      48.658   3.821  16.593  0.00  0.00    +0.000 F 
ATOM     36  F   UNL     1      49.083   1.687  16.571  0.00  0.00    +0.000 F 
ENDBRANCH  32  33
ENDBRANCH  24  32
ENDBRANCH  23  24
ENDBRANCH   4  23
TORSDOF 8
ENDMDL
MODEL 3
REMARK VINA RESULT:    -6.996      5.470      9.473
REMARK INTER + INTRA:         -10.591
REMARK INTER:                  -9.371
REMARK INTRA:                  -1.221
REMARK UNBOUND:                -0.323
REMARK  Name = 
REMARK  8 active torsions:
REMARK  status: ('A' for Active; 'I' for Inactive)
REMARK    1  A    between atoms: C_2  and  C_25
REMARK    2  A    between atoms: N_3  and  C_4
REMARK    3  A    between atoms: C_4  and  C_5
REMARK    4  A    between atoms: C_8  and  C_9
REMARK    5  A    between atoms: C_9  and  N_10
REMARK    6  A    between atoms: N_10  and  C_11
REMARK    7  A    between atoms: C_11  and  C_12
REMARK    8  A    between atoms: C_16  and  C_18
REMARK                            x       y       z     vdW  Elec       q    Type
REMARK                         _______ _______ _______ _____ _____    ______ ____
ROOT
ATOM      1  C   UNL     1      49.858   6.631  16.183  0.00  0.00    +0.000 A 
ATOM      2  C   UNL     1      49.043   5.618  16.698  0.00  0.00    +0.000 A 
ATOM      3  C   UNL     1      49.594   4.534  17.393  0.00  0.00    +0.000 A 
ATOM      4  C   UNL     1      50.976   4.435  17.618  0.00  0.00    +0.000 A 
ATOM      5  C   UNL     1      51.799   5.410  17.036  0.00  0.00    +0.000 A 
ATOM      6  C   UNL     1      51.247   6.497  16.333  0.00  0.00    +0.000 A 
ENDROOT
BRANCH   1   7
ATOM      7  C   UNL     1      49.244   7.812  15.470  0.00  0.00    +0.000 C 
BRANCH   7  10
ATOM      8  O   UNL     1      49.113   6.595  13.040  0.00  0.00    +0.000 OA
ATOM      9  C   UNL     1      48.039   6.847  13.586  0.00  0.00    +0.000 C 
ATOM     10  N   UNL     1      47.994   7.519  14.791  0.00  0.00    +0.000 N 
ATOM     11  H   UNL     1      47.132   7.525  15.330  0.00  0.00    +0.000 HD
BRANCH   9  12
ATOM     12  C   UNL     1      46.775   6.459  12.942  0.00  0.00    +0.000 A 
ATOM     13  C   UNL     1      46.020   7.429  12.292  0.00  0.00    +0.000 A 
ATOM     14  S   UNL     1      44.606   6.830  11.553  0.00  0.00    +0.000 S 
ATOM     15  C   UNL     1      44.969   5.241  12.036  0.00  0.00    +0.000 A 
ATOM     16  N   UNL     1      44.170   4.202  11.668  0.00  0.00    +0.000 NA
ATOM     17  C   UNL     1      44.586   3.048  12.065  0.00  0.00    +0.000 A 
ATOM     18  N   UNL     1      45.720   2.839  12.811  0.00  0.00    +0.000 N 
ATOM     19  C   UNL     1      46.537   3.864  13.241  0.00  0.00    +0.000 A 
ATOM     20  O   UNL     1      47.507   3.657  13.957  0.00  0.00    +0.000 OA
ATOM     21  C   UNL     1      46.131   5.178  12.788  0.00  0.00    +0.000 A 
ATOM     22  H   UNL     1      45.977   1.909  13.101  0.00  0.00    +0.000 HD
ENDBRANCH   9  12
ENDBRANCH   7  10
ENDBRANCH   1   7
BRANCH   4  23
ATOM     23  C   UNL     1      51.520   3.386  18.573  0.00  0.00    +0.000 C 
BRANCH  23  24
ATOM     24  N   UNL     1      52.678   2.625  18.094  0.00  0.00    +0.000 N 
ATOM     25  C   UNL     1      52.427   1.285  17.666  0.00  0.00    +0.000 C 
ATOM     26  O   UNL     1      51.273   0.878  17.522  0.00  0.00    +0.000 OA
BRANCH  25  27
ATOM     27  C   UNL     1      53.584   0.412  17.398  0.00  0.00    +0.000 A 
ATOM     28  N   UNL     1      54.292   0.424  16.281  0.00  0.00    +0.000 NA
ATOM     29  C   UNL     1      55.197  -0.616  16.288  0.00  0.00    +0.000 A 
ATOM     30  C   UNL     1      55.204  -1.384  17.430  0.00  0.00    +0.000 A 
ATOM     31  S   UNL     1      54.067  -0.761  18.556  0.00  0.00    +0.000 S 
ENDBRANCH  25  27
BRANCH  24  32
ATOM     32  C   UNL     1      54.055   3.006  18.496  0.00  0.00    +0.000 C 
BRANCH  32  33
ATOM     33  C   UNL     1      54.457   3.570  19.862  0.00  0.00    +0.000 C 
ATOM     34  F   UNL     1      54.197   4.878  20.033  0.00  0.00    +0.000 F 
ATOM     35  F   UNL     1      53.783   2.905  20.837  0.00  0.00    +0.000 F 
ATOM     36  F   UNL     1      55.775   3.378  20.098  0.00  0.00    +0.000 F 
ENDBRANCH  32  33
ENDBRANCH  24  32
ENDBRANCH  23  24
ENDBRANCH   4  23
TORSDOF 8
ENDMDL
MODEL 4
REMARK VINA RESULT:    -6.994      1.817      2.050
REMARK INTER + INTRA:         -10.588
REMARK INTER:                  -9.975
REMARK INTRA:                  -0.613
REMARK UNBOUND:                -0.323
REMARK  Name = 
REMARK  8 active torsions:
REMARK  status: ('A' for Active; 'I' for Inactive)
REMARK    1  A    between atoms: C_2  and  C_25
REMARK    2  A    between atoms: N_3  and  C_4
REMARK    3  A    between atoms: C_4  and  C_5
REMARK    4  A    between atoms: C_8  and  C_9
REMARK    5  A    between atoms: C_9  and  N_10
REMARK    6  A    between atoms: N_10  and  C_11
REMARK    7  A    between atoms: C_11  and  C_12
REMARK    8  A    between atoms: C_16  and  C_18
REMARK                            x       y       z     vdW  Elec       q    Type
REMARK                         _______ _______ _______ _____ _____    ______ ____
ROOT
ATOM      1  C   UNL     1      47.781   7.592  14.250  0.00  0.00    +0.000 A 
ATOM      2  C   UNL     1      46.895   8.493  13.650  0.00  0.00    +0.000 A 
ATOM      3  C   UNL     1      46.083   8.098  12.579  0.00  0.00    +0.000 A 
ATOM      4  C   UNL     1      46.111   6.785  12.085  0.00  0.00    +0.000 A 
ATOM      5  C   UNL     1      47.053   5.905  12.635  0.00  0.00    +0.000 A 
ATOM      6  C   UNL     1      47.873   6.302  13.708  0.00  0.00    +0.000 A 
ENDROOT
BRANCH   1   7
ATOM      7  C   UNL     1      48.621   8.024  15.428  0.00  0.00    +0.000 C 
BRANCH   7  10
ATOM      8  O   UNL     1      48.933   6.931  17.900  0.00  0.00    +0.000 OA
ATOM      9  C   UNL     1      49.730   6.568  17.035  0.00  0.00    +0.000 C 
ATOM     10  N   UNL     1      49.697   7.109  15.765  0.00  0.00    +0.000 N 
ATOM     11  H   UNL     1      50.204   6.653  15.012  0.00  0.00    +0.000 HD
BRANCH   9  12
ATOM     12  C   UNL     1      50.758   5.565  17.353  0.00  0.00    +0.000 A 
ATOM     13  C   UNL     1      51.977   5.986  17.872  0.00  0.00    +0.000 A 
ATOM     14  S   UNL     1      53.054   4.715  18.236  0.00  0.00    +0.000 S 
ATOM     15  C   UNL     1      51.915   3.549  17.753  0.00  0.00    +0.000 A 
ATOM     16  N   UNL     1      52.189   2.220  17.868  0.00  0.00    +0.000 NA
ATOM     17  C   UNL     1      51.222   1.448  17.507  0.00  0.00    +0.000 A 
ATOM     18  N   UNL     1      50.011   1.882  17.025  0.00  0.00    +0.000 N 
ATOM     19  C   UNL     1      49.705   3.215  16.853  0.00  0.00    +0.000 A 
ATOM     20  O   UNL     1      48.643   3.574  16.363  0.00  0.00    +0.000 OA
ATOM     21  C   UNL     1      50.748   4.125  17.280  0.00  0.00    +0.000 A 
ATOM     22  H   UNL     1      49.305   1.220  16.745  0.00  0.00    +0.000 HD
ENDBRANCH   9  12
ENDBRANCH   7  10
ENDBRANCH   1   7
BRANCH   4  23
ATOM     23  C   UNL     1      45.058   6.321  11.092  0.00  0.00    +0.000 C 
BRANCH  23  24
ATOM     24  N   UNL     1      45.228   4.963  10.568  0.00  0.00    +0.000 N 
ATOM     25  C   UNL     1      45.859   4.846   9.291  0.00  0.00    +0.000 C 
ATOM     26  O   UNL     1      46.404   5.820   8.770  0.00  0.00    +0.000 OA
BRANCH  25  27
ATOM     27  C   UNL     1      45.842   3.532   8.625  0.00  0.00    +0.000 A 
ATOM     28  N   UNL     1      45.348   2.426   9.156  0.00  0.00    +0.000 NA
ATOM     29  C   UNL     1      45.630   1.348   8.344  0.00  0.00    +0.000 A 
ATOM     30  C   UNL     1      46.296   1.648   7.177  0.00  0.00    +0.000 A 
ATOM     31  S   UNL     1      46.544   3.343   7.069  0.00  0.00    +0.000 S 
ENDBRANCH  25  27
BRANCH  24  32
ATOM     32  C   UNL     1      44.372   3.850  11.052  0.00  0.00    +0.000 C 
BRANCH  32  33
ATOM     33  C   UNL     1      44.406   3.254  12.462  0.00  0.00    +0.000 C 
ATOM     34  F   UNL     1      45.609   2.802  12.857  0.00  0.00    +0.000 F 
ATOM     35  F   UNL     1      44.029   4.202  13.360  0.00  0.00    +0.000 F 
ATOM     36  F   UNL     1      43.525   2.234  12.579  0.00  0.00    +0.000 F 
ENDBRANCH  32  33
ENDBRANCH  24  32
ENDBRANCH  23  24
ENDBRANCH   4  23
TORSDOF 8
ENDMDL
MODEL 5
REMARK VINA RESULT:    -6.931      4.479      9.855
REMARK INTER + INTRA:         -10.495
REMARK INTER:                  -8.886
REMARK INTRA:                  -1.609
REMARK UNBOUND:                -0.323
REMARK  Name = 
REMARK  8 active torsions:
REMARK  status: ('A' for Active; 'I' for Inactive)
REMARK    1  A    between atoms: C_2  and  C_25
REMARK    2  A    between atoms: N_3  and  C_4
REMARK    3  A    between atoms: C_4  and  C_5
REMARK    4  A    between atoms: C_8  and  C_9
REMARK    5  A    between atoms: C_9  and  N_10
REMARK    6  A    between atoms: N_10  and  C_11
REMARK    7  A    between atoms: C_11  and  C_12
REMARK    8  A    between atoms: C_16  and  C_18
REMARK                            x       y       z     vdW  Elec       q    Type
REMARK                         _______ _______ _______ _____ _____    ______ ____
ROOT
ATOM      1  C   UNL     1      48.543   3.545  17.380  0.00  0.00    +0.000 A 
ATOM      2  C   UNL     1      48.680   4.501  18.392  0.00  0.00    +0.000 A 
ATOM      3  C   UNL     1      49.923   4.740  18.992  0.00  0.00    +0.000 A 
ATOM      4  C   UNL     1      51.076   4.050  18.587  0.00  0.00    +0.000 A 
ATOM      5  C   UNL     1      50.924   3.039  17.628  0.00  0.00    +0.000 A 
ATOM      6  C   UNL     1      49.674   2.794  17.028  0.00  0.00    +0.000 A 
ENDROOT
BRANCH   1   7
ATOM      7  C   UNL     1      47.203   3.328  16.718  0.00  0.00    +0.000 C 
BRANCH   7  10
ATOM      8  O   UNL     1      47.299   3.196  14.002  0.00  0.00    +0.000 OA
ATOM      9  C   UNL     1      46.817   4.221  14.485  0.00  0.00    +0.000 C 
ATOM     10  N   UNL     1      46.780   4.413  15.852  0.00  0.00    +0.000 N 
ATOM     11  H   UNL     1      46.192   5.146  16.239  0.00  0.00    +0.000 HD
BRANCH   9  12
ATOM     12  C   UNL     1      46.297   5.278  13.604  0.00  0.00    +0.000 A 
ATOM     13  C   UNL     1      47.115   6.354  13.280  0.00  0.00    +0.000 A 
ATOM     14  S   UNL     1      46.399   7.477  12.217  0.00  0.00    +0.000 S 
ATOM     15  C   UNL     1      44.980   6.546  12.113  0.00  0.00    +0.000 A 
ATOM     16  N   UNL     1      43.958   6.925  11.298  0.00  0.00    +0.000 NA
ATOM     17  C   UNL     1      42.963   6.106  11.283  0.00  0.00    +0.000 A 
ATOM     18  N   UNL     1      42.888   4.950  12.021  0.00  0.00    +0.000 N 
ATOM     19  C   UNL     1      43.881   4.548  12.890  0.00  0.00    +0.000 A 
ATOM     20  O   UNL     1      43.763   3.547  13.583  0.00  0.00    +0.000 OA
ATOM     21  C   UNL     1      45.038   5.418  12.915  0.00  0.00    +0.000 A 
ATOM     22  H   UNL     1      42.070   4.364  11.972  0.00  0.00    +0.000 HD
ENDBRANCH   9  12
ENDBRANCH   7  10
ENDBRANCH   1   7
BRANCH   4  23
ATOM     23  C   UNL     1      52.444   4.493  19.080  0.00  0.00    +0.000 C 
BRANCH  23  24
ATOM     24  N   UNL     1      53.122   5.502  18.262  0.00  0.00    +0.000 N 
ATOM     25  C   UNL     1      53.916   6.462  18.962  0.00  0.00    +0.000 C 
ATOM     26  O   UNL     1      54.169   6.313  20.159  0.00  0.00    +0.000 OA
BRANCH  25  27
ATOM     27  C   UNL     1      54.424   7.624  18.212  0.00  0.00    +0.000 A 
ATOM     28  N   UNL     1      53.909   8.841  18.272  0.00  0.00    +0.000 NA
ATOM     29  C   UNL     1      54.513   9.653  17.336  0.00  0.00    +0.000 A 
ATOM     30  C   UNL     1      55.516   9.062  16.602  0.00  0.00    +0.000 A 
ATOM     31  S   UNL     1      55.743   7.443  17.127  0.00  0.00    +0.000 S 
ENDBRANCH  25  27
BRANCH  24  32
ATOM     32  C   UNL     1      52.629   5.832  16.901  0.00  0.00    +0.000 C 
BRANCH  32  33
ATOM     33  C   UNL     1      51.525   6.843  16.578  0.00  0.00    +0.000 C 
ATOM     34  F   UNL     1      51.041   7.511  17.639  0.00  0.00    +0.000 F 
ATOM     35  F   UNL     1      52.010   7.776  15.716  0.00  0.00    +0.000 F 
ATOM     36  F   UNL     1      50.484   6.243  15.957  0.00  0.00    +0.000 F 
ENDBRANCH  32  33
ENDBRANCH  24  32
ENDBRANCH  23  24
ENDBRANCH   4  23
TORSDOF 8
ENDMDL
MODEL 6
REMARK VINA RESULT:    -6.871      6.046      8.637
REMARK INTER + INTRA:         -10.408
REMARK INTER:                  -9.212
REMARK INTRA:                  -1.195
REMARK UNBOUND:                -0.323
REMARK  Name = 
REMARK  8 active torsions:
REMARK  status: ('A' for Active; 'I' for Inactive)
REMARK    1  A    between atoms: C_2  and  C_25
REMARK    2  A    between atoms: N_3  and  C_4
REMARK    3  A    between atoms: C_4  and  C_5
REMARK    4  A    between atoms: C_8  and  C_9
REMARK    5  A    between atoms: C_9  and  N_10
REMARK    6  A    between atoms: N_10  and  C_11
REMARK    7  A    between atoms: C_11  and  C_12
REMARK    8  A    between atoms: C_16  and  C_18
REMARK                            x       y       z     vdW  Elec       q    Type
REMARK                         _______ _______ _______ _____ _____    ______ ____
ROOT
ATOM      1  C   UNL     1      48.092   8.679  12.150  0.00  0.00    +0.000 A 
ATOM      2  C   UNL     1      48.995   7.614  12.226  0.00  0.00    +0.000 A 
ATOM      3  C   UNL     1      50.321   7.762  11.800  0.00  0.00    +0.000 A 
ATOM      4  C   UNL     1      50.798   8.985  11.305  0.00  0.00    +0.000 A 
ATOM      5  C   UNL     1      49.874  10.029  11.156  0.00  0.00    +0.000 A 
ATOM      6  C   UNL     1      48.540   9.880  11.580  0.00  0.00    +0.000 A 
ENDROOT
BRANCH   1   7
ATOM      7  C   UNL     1      46.677   8.513  12.650  0.00  0.00    +0.000 C 
BRANCH   7  10
ATOM      8  O   UNL     1      44.599   7.756  11.065  0.00  0.00    +0.000 OA
ATOM      9  C   UNL     1      45.152   6.864  11.707  0.00  0.00    +0.000 C 
ATOM     10  N   UNL     1      46.175   7.152  12.588  0.00  0.00    +0.000 N 
ATOM     11  H   UNL     1      46.760   6.399  12.940  0.00  0.00    +0.000 HD
BRANCH   9  12
ATOM     12  C   UNL     1      44.706   5.469  11.568  0.00  0.00    +0.000 A 
ATOM     13  C   UNL     1      43.970   4.887  12.594  0.00  0.00    +0.000 A 
ATOM     14  S   UNL     1      43.482   3.285  12.277  0.00  0.00    +0.000 S 
ATOM     15  C   UNL     1      44.199   3.321  10.736  0.00  0.00    +0.000 A 
ATOM     16  N   UNL     1      44.095   2.255   9.896  0.00  0.00    +0.000 NA
ATOM     17  C   UNL     1      44.646   2.434   8.744  0.00  0.00    +0.000 A 
ATOM     18  N   UNL     1      45.308   3.575   8.361  0.00  0.00    +0.000 N 
ATOM     19  C   UNL     1      45.475   4.662   9.194  0.00  0.00    +0.000 A 
ATOM     20  O   UNL     1      46.122   5.642   8.851  0.00  0.00    +0.000 OA
ATOM     21  C   UNL     1      44.839   4.524  10.487  0.00  0.00    +0.000 A 
ATOM     22  H   UNL     1      45.731   3.639   7.449  0.00  0.00    +0.000 HD
ENDBRANCH   9  12
ENDBRANCH   7  10
ENDBRANCH   1   7
BRANCH   4  23
ATOM     23  C   UNL     1      52.286   9.188  11.077  0.00  0.00    +0.000 C 
BRANCH  23  24
ATOM     24  N   UNL     1      52.791   8.790   9.760  0.00  0.00    +0.000 N 
ATOM     25  C   UNL     1      53.042   9.844   8.828  0.00  0.00    +0.000 C 
ATOM     26  O   UNL     1      53.024  11.021   9.192  0.00  0.00    +0.000 OA
BRANCH  25  27
ATOM     27  C   UNL     1      53.326   9.481   7.428  0.00  0.00    +0.000 A 
ATOM     28  N   UNL     1      52.404   9.299   6.496  0.00  0.00    +0.000 NA
ATOM     29  C   UNL     1      52.989   8.817   5.345  0.00  0.00    +0.000 A 
ATOM     30  C   UNL     1      54.358   8.679   5.393  0.00  0.00    +0.000 A 
ATOM     31  S   UNL     1      54.943   9.209   6.917  0.00  0.00    +0.000 S 
ENDBRANCH  25  27
BRANCH  24  32
ATOM     32  C   UNL     1      52.574   7.413   9.248  0.00  0.00    +0.000 C 
BRANCH  32  33
ATOM     33  C   UNL     1      53.655   6.339   9.106  0.00  0.00    +0.000 C 
ATOM     34  F   UNL     1      54.892   6.730   9.457  0.00  0.00    +0.000 F 
ATOM     35  F   UNL     1      53.340   5.278   9.896  0.00  0.00    +0.000 F 
ATOM     36  F   UNL     1      53.714   5.874   7.837  0.00  0.00    +0.000 F 
ENDBRANCH  32  33
ENDBRANCH  24  32
ENDBRANCH  23  24
ENDBRANCH   4  23
TORSDOF 8
ENDMDL
MODEL 7
REMARK VINA RESULT:    -6.849      3.607      8.143
REMARK INTER + INTRA:         -10.375
REMARK INTER:                  -9.343
REMARK INTRA:                  -1.032
REMARK UNBOUND:                -0.323
REMARK  Name = 
REMARK  8 active torsions:
REMARK  status: ('A' for Active; 'I' for Inactive)
REMARK    1  A    between atoms: C_2  and  C_25
REMARK    2  A    between atoms: N_3  and  C_4
REMARK    3  A    between atoms: C_4  and  C_5
REMARK    4  A    between atoms: C_8  and  C_9
REMARK    5  A    between atoms: C_9  and  N_10
REMARK    6  A    between atoms: N_10  and  C_11
REMARK    7  A    between atoms: C_11  and  C_12
REMARK    8  A    between atoms: C_16  and  C_18
REMARK                            x       y       z     vdW  Elec       q    Type
REMARK                         _______ _______ _______ _____ _____    ______ ____
ROOT
ATOM      1  C   UNL     1      48.781   8.923  16.347  0.00  0.00    +0.000 A 
ATOM      2  C   UNL     1      50.054   8.348  16.288  0.00  0.00    +0.000 A 
ATOM      3  C   UNL     1      50.589   7.670  17.391  0.00  0.00    +0.000 A 
ATOM      4  C   UNL     1      49.862   7.522  18.582  0.00  0.00    +0.000 A 
ATOM      5  C   UNL     1      48.618   8.164  18.667  0.00  0.00    +0.000 A 
ATOM      6  C   UNL     1      48.082   8.850  17.561  0.00  0.00    +0.000 A 
ENDROOT
BRANCH   1   7
ATOM      7  C   UNL     1      48.205   9.617  15.135  0.00  0.00    +0.000 C 
BRANCH   7  10
ATOM      8  O   UNL     1      48.587   7.914  13.048  0.00  0.00    +0.000 OA
ATOM      9  C   UNL     1      47.435   8.011  13.473  0.00  0.00    +0.000 C 
ATOM     10  N   UNL     1      47.125   8.894  14.488  0.00  0.00    +0.000 N 
ATOM     11  H   UNL     1      46.234   8.809  14.971  0.00  0.00    +0.000 HD
BRANCH   9  12
ATOM     12  C   UNL     1      46.359   7.203  12.880  0.00  0.00    +0.000 A 
ATOM     13  C   UNL     1      45.400   7.827  12.089  0.00  0.00    +0.000 A 
ATOM     14  S   UNL     1      44.242   6.763  11.432  0.00  0.00    +0.000 S 
ATOM     15  C   UNL     1      45.002   5.419  12.143  0.00  0.00    +0.000 A 
ATOM     16  N   UNL     1      44.537   4.159  11.922  0.00  0.00    +0.000 NA
ATOM     17  C   UNL     1      45.233   3.232  12.486  0.00  0.00    +0.000 A 
ATOM     18  N   UNL     1      46.343   3.451  13.265  0.00  0.00    +0.000 N 
ATOM     19  C   UNL     1      46.825   4.711  13.550  0.00  0.00    +0.000 A 
ATOM     20  O   UNL     1      47.779   4.881  14.297  0.00  0.00    +0.000 OA
ATOM     21  C   UNL     1      46.098   5.786  12.908  0.00  0.00    +0.000 A 
ATOM     22  H   UNL     1      46.830   2.677  13.690  0.00  0.00    +0.000 HD
ENDBRANCH   9  12
ENDBRANCH   7  10
ENDBRANCH   1   7
BRANCH   4  23
ATOM     23  C   UNL     1      50.360   6.585  19.669  0.00  0.00    +0.000 C 
BRANCH  23  24
ATOM     24  N   UNL     1      50.442   5.168  19.304  0.00  0.00    +0.000 N 
ATOM     25  C   UNL     1      51.616   4.759  18.599  0.00  0.00    +0.000 C 
ATOM     26  O   UNL     1      52.581   5.518  18.493  0.00  0.00    +0.000 OA
BRANCH  25  27
ATOM     27  C   UNL     1      51.639   3.407  18.012  0.00  0.00    +0.000 A 
ATOM     28  N   UNL     1      50.699   2.915  17.222  0.00  0.00    +0.000 NA
ATOM     29  C   UNL     1      50.943   1.581  16.977  0.00  0.00    +0.000 A 
ATOM     30  C   UNL     1      52.092   1.077  17.544  0.00  0.00    +0.000 A 
ATOM     31  S   UNL     1      52.922   2.326  18.381  0.00  0.00    +0.000 S 
ENDBRANCH  25  27
BRANCH  24  32
ATOM     32  C   UNL     1      49.216   4.338  19.201  0.00  0.00    +0.000 C 
BRANCH  32  33
ATOM     33  C   UNL     1      48.085   4.548  18.190  0.00  0.00    +0.000 C 
ATOM     34  F   UNL     1      47.470   3.423  17.787  0.00  0.00    +0.000 F 
ATOM     35  F   UNL     1      47.130   5.341  18.744  0.00  0.00    +0.000 F 
ATOM     36  F   UNL     1      48.533   5.191  17.087  0.00  0.00    +0.000 F 
ENDBRANCH  32  33
ENDBRANCH  24  32
ENDBRANCH  23  24
ENDBRANCH   4  23
TORSDOF 8
ENDMDL
MODEL 8
REMARK VINA RESULT:    -6.757      5.614      7.923
REMARK INTER + INTRA:         -10.241
REMARK INTER:                  -9.180
REMARK INTRA:                  -1.061
REMARK UNBOUND:                -0.323
REMARK  Name = 
REMARK  8 active torsions:
REMARK  status: ('A' for Active; 'I' for Inactive)
REMARK    1  A    between atoms: C_2  and  C_25
REMARK    2  A    between atoms: N_3  and  C_4
REMARK    3  A    between atoms: C_4  and  C_5
REMARK    4  A    between atoms: C_8  and  C_9
REMARK    5  A    between atoms: C_9  and  N_10
REMARK    6  A    between atoms: N_10  and  C_11
REMARK    7  A    between atoms: C_11  and  C_12
REMARK    8  A    between atoms: C_16  and  C_18
REMARK                            x       y       z     vdW  Elec       q    Type
REMARK                         _______ _______ _______ _____ _____    ______ ____
ROOT
ATOM      1  C   UNL     1      50.731   8.910  12.080  0.00  0.00    +0.000 A 
ATOM      2  C   UNL     1      50.217   7.732  11.530  0.00  0.00    +0.000 A 
ATOM      3  C   UNL     1      49.367   6.902  12.273  0.00  0.00    +0.000 A 
ATOM      4  C   UNL     1      48.983   7.233  13.582  0.00  0.00    +0.000 A 
ATOM      5  C   UNL     1      49.559   8.373  14.159  0.00  0.00    +0.000 A 
ATOM      6  C   UNL     1      50.417   9.205  13.415  0.00  0.00    +0.000 A 
ENDROOT
BRANCH   1   7
ATOM      7  C   UNL     1      51.615   9.812  11.251  0.00  0.00    +0.000 C 
BRANCH   7  10
ATOM      8  O   UNL     1      53.988   8.768  10.425  0.00  0.00    +0.000 OA
ATOM      9  C   UNL     1      53.075   8.777   9.599  0.00  0.00    +0.000 C 
ATOM     10  N   UNL     1      51.851   9.342   9.898  0.00  0.00    +0.000 N 
ATOM     11  H   UNL     1      51.051   9.150   9.300  0.00  0.00    +0.000 HD
BRANCH   9  12
ATOM     12  C   UNL     1      53.287   8.209   8.259  0.00  0.00    +0.000 A 
ATOM     13  C   UNL     1      53.339   9.061   7.162  0.00  0.00    +0.000 A 
ATOM     14  S   UNL     1      53.635   8.270   5.681  0.00  0.00    +0.000 S 
ATOM     15  C   UNL     1      53.749   6.761   6.455  0.00  0.00    +0.000 A 
ATOM     16  N   UNL     1      54.054   5.638   5.748  0.00  0.00    +0.000 NA
ATOM     17  C   UNL     1      54.152   4.572   6.466  0.00  0.00    +0.000 A 
ATOM     18  N   UNL     1      53.956   4.522   7.824  0.00  0.00    +0.000 N 
ATOM     19  C   UNL     1      53.606   5.624   8.574  0.00  0.00    +0.000 A 
ATOM     20  O   UNL     1      53.376   5.541   9.773  0.00  0.00    +0.000 OA
ATOM     21  C   UNL     1      53.520   6.856   7.818  0.00  0.00    +0.000 A 
ATOM     22  H   UNL     1      54.033   3.647   8.320  0.00  0.00    +0.000 HD
ENDBRANCH   9  12
ENDBRANCH   7  10
ENDBRANCH   1   7
BRANCH   4  23
ATOM     23  C   UNL     1      47.880   6.449  14.274  0.00  0.00    +0.000 C 
BRANCH  23  24
ATOM     24  N   UNL     1      46.677   6.198  13.477  0.00  0.00    +0.000 N 
ATOM     25  C   UNL     1      46.071   4.912  13.624  0.00  0.00    +0.000 C 
ATOM     26  O   UNL     1      46.431   4.148  14.521  0.00  0.00    +0.000 OA
BRANCH  25  27
ATOM     27  C   UNL     1      45.006   4.533  12.679  0.00  0.00    +0.000 A 
ATOM     28  N   UNL     1      45.179   3.753  11.624  0.00  0.00    +0.000 NA
ATOM     29  C   UNL     1      44.027   3.727  10.867  0.00  0.00    +0.000 A 
ATOM     30  C   UNL     1      42.971   4.449  11.374  0.00  0.00    +0.000 A 
ATOM     31  S   UNL     1      43.417   5.155  12.874  0.00  0.00    +0.000 S 
ENDBRANCH  25  27
BRANCH  24  32
ATOM     32  C   UNL     1      46.402   6.986  12.249  0.00  0.00    +0.000 C 
BRANCH  32  33
ATOM     33  C   UNL     1      45.969   8.454  12.216  0.00  0.00    +0.000 C 
ATOM     34  F   UNL     1      46.910   9.313  11.789  0.00  0.00    +0.000 F 
ATOM     35  F   UNL     1      44.906   8.590  11.379  0.00  0.00    +0.000 F 
ATOM     36  F   UNL     1      45.558   8.867  13.437  0.00  0.00    +0.000 F 
ENDBRANCH  32  33
ENDBRANCH  24  32
ENDBRANCH  23  24
ENDBRANCH   4  23
TORSDOF 8
ENDMDL
MODEL 9
REMARK VINA RESULT:    -6.722      6.347      7.906
REMARK INTER + INTRA:         -10.188
REMARK INTER:                  -8.678
REMARK INTRA:                  -1.510
REMARK UNBOUND:                -0.323
REMARK  Name = 
REMARK  8 active torsions:
REMARK  status: ('A' for Active; 'I' for Inactive)
REMARK    1  A    between atoms: C_2  and  C_25
REMARK    2  A    between atoms: N_3  and  C_4
REMARK    3  A    between atoms: C_4  and  C_5
REMARK    4  A    between atoms: C_8  and  C_9
REMARK    5  A    between atoms: C_9  and  N_10
REMARK    6  A    between atoms: N_10  and  C_11
REMARK    7  A    between atoms: C_11  and  C_12
REMARK    8  A    between atoms: C_16  and  C_18
REMARK                            x       y       z     vdW  Elec       q    Type
REMARK                         _______ _______ _______ _____ _____    ______ ____
ROOT
ATOM      1  C   UNL     1      51.370   8.245  12.481  0.00  0.00    +0.000 A 
ATOM      2  C   UNL     1      51.049   8.318  11.122  0.00  0.00    +0.000 A 
ATOM      3  C   UNL     1      52.026   8.629  10.168  0.00  0.00    +0.000 A 
ATOM      4  C   UNL     1      53.361   8.855  10.535  0.00  0.00    +0.000 A 
ATOM      5  C   UNL     1      53.667   8.857  11.903  0.00  0.00    +0.000 A 
ATOM      6  C   UNL     1      52.685   8.550  12.863  0.00  0.00    +0.000 A 
ENDROOT
BRANCH   1   7
ATOM      7  C   UNL     1      50.312   7.870  13.492  0.00  0.00    +0.000 C 
BRANCH   7  10
ATOM      8  O   UNL     1      48.531   6.225  14.727  0.00  0.00    +0.000 OA
ATOM      9  C   UNL     1      48.179   6.706  13.650  0.00  0.00    +0.000 C 
ATOM     10  N   UNL     1      49.033   7.503  12.913  0.00  0.00    +0.000 N 
ATOM     11  H   UNL     1      48.662   8.063  12.150  0.00  0.00    +0.000 HD
BRANCH   9  12
ATOM     12  C   UNL     1      46.842   6.411  13.112  0.00  0.00    +0.000 A 
ATOM     13  C   UNL     1      46.064   7.452  12.619  0.00  0.00    +0.000 A 
ATOM     14  S   UNL     1      44.560   6.959  11.987  0.00  0.00    +0.000 S 
ATOM     15  C   UNL     1      44.907   5.326  12.309  0.00  0.00    +0.000 A 
ATOM     16  N   UNL     1      44.034   4.346  11.948  0.00  0.00    +0.000 NA
ATOM     17  C   UNL     1      44.442   3.151  12.212  0.00  0.00    +0.000 A 
ATOM     18  N   UNL     1      45.636   2.848  12.819  0.00  0.00    +0.000 N 
ATOM     19  C   UNL     1      46.532   3.809  13.238  0.00  0.00    +0.000 A 
ATOM     20  O   UNL     1      47.560   3.515  13.832  0.00  0.00    +0.000 OA
ATOM     21  C   UNL     1      46.135   5.167  12.930  0.00  0.00    +0.000 A 
ATOM     22  H   UNL     1      45.884   1.890  13.010  0.00  0.00    +0.000 HD
ENDBRANCH   9  12
ENDBRANCH   7  10
ENDBRANCH   1   7
BRANCH   4  23
ATOM     23  C   UNL     1      54.440   8.952   9.468  0.00  0.00    +0.000 C 
BRANCH  23  24
ATOM     24  N   UNL     1      54.731   7.715   8.740  0.00  0.00    +0.000 N 
ATOM     25  C   UNL     1      54.015   7.510   7.520  0.00  0.00    +0.000 C 
ATOM     26  O   UNL     1      53.350   8.420   7.022  0.00  0.00    +0.000 OA
BRANCH  25  27
ATOM     27  C   UNL     1      54.101   6.186   6.877  0.00  0.00    +0.000 A 
ATOM     28  N   UNL     1      53.174   5.246   6.965  0.00  0.00    +0.000 NA
ATOM     29  C   UNL     1      53.631   4.082   6.386  0.00  0.00    +0.000 A 
ATOM     30  C   UNL     1      54.883   4.156   5.820  0.00  0.00    +0.000 A 
ATOM     31  S   UNL     1      55.499   5.750   5.980  0.00  0.00    +0.000 S 
ENDBRANCH  25  27
BRANCH  24  32
ATOM     32  C   UNL     1      55.312   6.541   9.439  0.00  0.00    +0.000 C 
BRANCH  32  33
ATOM     33  C   UNL     1      54.538   5.569  10.334  0.00  0.00    +0.000 C 
ATOM     34  F   UNL     1      53.207   5.563  10.145  0.00  0.00    +0.000 F 
ATOM     35  F   UNL     1      54.973   4.302  10.103  0.00  0.00    +0.000 F 
ATOM     36  F   UNL     1      54.767   5.827  11.642  0.00  0.00    +0.000 F 
ENDBRANCH  32  33
ENDBRANCH  24  32
ENDBRANCH  23  24
ENDBRANCH   4  23
TORSDOF 8
ENDMDL
