MODEL 1
REMARK VINA RESULT:    -8.333      0.000      0.000
REMARK INTER + INTRA:         -11.552
REMARK INTER:                 -10.769
REMARK INTRA:                  -0.783
REMARK UNBOUND:                -0.783
REMARK  Name = 
REMARK  5 active torsions:
REMARK  status: ('A' for Active; 'I' for Inactive)
REMARK    1  A    between atoms: C_2  and  C_22
REMARK    2  A    between atoms: N_3  and  C_4
REMARK    3  A    between atoms: C_4  and  C_5
REMARK    4  A    between atoms: C_8  and  C_9
REMARK    5  A    between atoms: C_9  and  N_10
REMARK                            x       y       z     vdW  Elec       q    Type
REMARK                         _______ _______ _______ _____ _____    ______ ____
ROOT
ATOM      1  C   UNL     1      46.535   7.742  13.069  0.00  0.00    +0.000 A 
ATOM      2  C   UNL     1      45.676   8.298  12.116  0.00  0.00    +0.000 A 
ATOM      3  C   UNL     1      44.740   7.498  11.438  0.00  0.00    +0.000 A 
ATOM      4  C   UNL     1      44.617   6.117  11.688  0.00  0.00    +0.000 A 
ATOM      5  C   UNL     1      45.499   5.565  12.631  0.00  0.00    +0.000 A 
ATOM      6 CL   UNL     1      45.511   3.887  13.045  0.00  0.00    +0.000 Cl
ATOM      7  C   UNL     1      46.444   6.365  13.297  0.00  0.00    +0.000 A 
ENDROOT
BRANCH   1   8
ATOM      8  C   UNL     1      47.528   8.579  13.840  0.00  0.00    +0.000 C 
BRANCH   8  11
ATOM      9  O   UNL     1      49.808   6.961  14.361  0.00  0.00    +0.000 OA
ATOM     10  C   UNL     1      49.034   7.245  15.281  0.00  0.00    +0.000 C 
ATOM     11  N   UNL     1      47.912   8.001  15.103  0.00  0.00    +0.000 N 
ATOM     12  H   UNL     1      47.496   8.430  15.917  0.00  0.00    +0.000 HD
BRANCH  10  13
ATOM     13  C   UNL     1      49.249   6.759  16.644  0.00  0.00    +0.000 A 
ATOM     14  C   UNL     1      49.861   7.527  17.620  0.00  0.00    +0.000 A 
ATOM     15  S   UNL     1      49.967   6.730  19.133  0.00  0.00    +0.000 S 
ATOM     16  C   UNL     1      49.182   5.346  18.528  0.00  0.00    +0.000 A 
ATOM     17  N   UNL     1      48.922   4.269  19.312  0.00  0.00    +0.000 NA
ATOM     18  C   UNL     1      48.307   3.306  18.710  0.00  0.00    +0.000 A 
ATOM     19  N   UNL     1      47.925   3.311  17.399  0.00  0.00    +0.000 N 
ATOM     20  C   UNL     1      48.224   4.338  16.559  0.00  0.00    +0.000 A 
ATOM     21  O   UNL     1      47.999   4.243  15.346  0.00  0.00    +0.000 OA
ATOM     22  C   UNL     1      48.876   5.476  17.185  0.00  0.00    +0.000 A 
ATOM     23  H   UNL     1      47.490   2.511  16.968  0.00  0.00    +0.000 HD
ENDBRANCH  10  13
ENDBRANCH   8  11
ENDBRANCH   1   8
BRANCH   4  24
ATOM     24  C   UNL     1      43.572   5.332  10.918  0.00  0.00    +0.000 C 
BRANCH  24  25
ATOM     25  N   UNL     1      44.106   4.657   9.751  0.00  0.00    +0.000 N 
ATOM     26  C   UNL     1      44.372   3.317   9.726  0.00  0.00    +0.000 C 
ATOM     27  O   UNL     1      44.197   2.591  10.703  0.00  0.00    +0.000 OA
ATOM     28  N   UNL     1      44.837   2.852   8.502  0.00  0.00    +0.000 N 
ATOM     29  C   UNL     1      45.002   1.416   8.308  0.00  0.00    +0.000 C 
ATOM     30  C   UNL     1      46.472   1.062   8.099  0.00  0.00    +0.000 C 
ATOM     31  C   UNL     1      47.068   1.871   6.949  0.00  0.00    +0.000 C 
ATOM     32  C   UNL     1      46.827   3.370   7.140  0.00  0.00    +0.000 C 
ATOM     33  C   UNL     1      45.355   3.681   7.408  0.00  0.00    +0.000 C 
ATOM     34  H   UNL     1      43.743   4.994   8.872  0.00  0.00    +0.000 HD
ENDBRANCH  24  25
ENDBRANCH   4  24
TORSDOF 5
ENDMDL
MODEL 2
REMARK VINA RESULT:    -7.815      1.756      2.104
REMARK INTER + INTRA:         -10.882
REMARK INTER:                  -9.952
REMARK INTRA:                  -0.930
REMARK UNBOUND:                -0.783
REMARK  Name = 
REMARK  5 active torsions:
REMARK  status: ('A' for Active; 'I' for Inactive)
REMARK    1  A    between atoms: C_2  and  C_22
REMARK    2  A    between atoms: N_3  and  C_4
REMARK    3  A    between atoms: C_4  and  C_5
REMARK    4  A    between atoms: C_8  and  C_9
REMARK    5  A    between atoms: C_9  and  N_10
REMARK                            x       y       z     vdW  Elec       q    Type
REMARK                         _______ _______ _______ _____ _____    ______ ____
ROOT
ATOM      1  C   UNL     1      47.664   7.447  13.455  0.00  0.00    +0.000 A 
ATOM      2  C   UNL     1      47.380   6.080  13.525  0.00  0.00    +0.000 A 
ATOM      3  C   UNL     1      46.210   5.557  12.948  0.00  0.00    +0.000 A 
ATOM      4  C   UNL     1      45.283   6.373  12.269  0.00  0.00    +0.000 A 
ATOM      5  C   UNL     1      45.567   7.747  12.222  0.00  0.00    +0.000 A 
ATOM      6 CL   UNL     1      44.532   8.901  11.457  0.00  0.00    +0.000 Cl
ATOM      7  C   UNL     1      46.730   8.269  12.814  0.00  0.00    +0.000 A 
ENDROOT
BRANCH   1   8
ATOM      8  C   UNL     1      48.927   8.036  14.036  0.00  0.00    +0.000 C 
BRANCH   8  11
ATOM      9  O   UNL     1      50.161   6.289  15.911  0.00  0.00    +0.000 OA
ATOM     10  C   UNL     1      49.535   7.276  16.311  0.00  0.00    +0.000 C 
ATOM     11  N   UNL     1      48.904   8.148  15.472  0.00  0.00    +0.000 N 
ATOM     12  H   UNL     1      48.670   9.063  15.830  0.00  0.00    +0.000 HD
BRANCH  10  13
ATOM     13  C   UNL     1      49.397   7.572  17.738  0.00  0.00    +0.000 A 
ATOM     14  C   UNL     1      50.076   8.612  18.351  0.00  0.00    +0.000 A 
ATOM     15  S   UNL     1      49.717   8.754  20.021  0.00  0.00    +0.000 S 
ATOM     16  C   UNL     1      48.633   7.443  19.963  0.00  0.00    +0.000 A 
ATOM     17  N   UNL     1      47.945   7.032  21.058  0.00  0.00    +0.000 NA
ATOM     18  C   UNL     1      47.152   6.035  20.848  0.00  0.00    +0.000 A 
ATOM     19  N   UNL     1      46.976   5.405  19.649  0.00  0.00    +0.000 N 
ATOM     20  C   UNL     1      47.693   5.737  18.542  0.00  0.00    +0.000 A 
ATOM     21  O   UNL     1      47.621   5.048  17.517  0.00  0.00    +0.000 OA
ATOM     22  C   UNL     1      48.572   6.883  18.698  0.00  0.00    +0.000 A 
ATOM     23  H   UNL     1      46.378   4.600  19.553  0.00  0.00    +0.000 HD
ENDBRANCH  10  13
ENDBRANCH   8  11
ENDBRANCH   1   8
BRANCH   4  24
ATOM     24  C   UNL     1      44.053   5.723  11.664  0.00  0.00    +0.000 C 
BRANCH  24  25
ATOM     25  N   UNL     1      44.322   5.036  10.416  0.00  0.00    +0.000 N 
ATOM     26  C   UNL     1      44.495   3.683  10.336  0.00  0.00    +0.000 C 
ATOM     27  O   UNL     1      44.459   2.954  11.326  0.00  0.00    +0.000 OA
ATOM     28  N   UNL     1      44.700   3.211   9.046  0.00  0.00    +0.000 N 
ATOM     29  C   UNL     1      44.738   1.771   8.818  0.00  0.00    +0.000 C 
ATOM     30  C   UNL     1      46.120   1.333   8.341  0.00  0.00    +0.000 C 
ATOM     31  C   UNL     1      46.544   2.123   7.104  0.00  0.00    +0.000 C 
ATOM     32  C   UNL     1      46.435   3.630   7.343  0.00  0.00    +0.000 C 
ATOM     33  C   UNL     1      45.058   4.025   7.879  0.00  0.00    +0.000 C 
ATOM     34  H   UNL     1      43.825   5.408   9.620  0.00  0.00    +0.000 HD
ENDBRANCH  24  25
ENDBRANCH   4  24
TORSDOF 5
ENDMDL
MODEL 3
REMARK VINA RESULT:    -7.600      4.037      8.746
REMARK INTER + INTRA:         -10.604
REMARK INTER:                  -9.468
REMARK INTRA:                  -1.136
REMARK UNBOUND:                -0.783
REMARK  Name = 
REMARK  5 active torsions:
REMARK  status: ('A' for Active; 'I' for Inactive)
REMARK    1  A    between atoms: C_2  and  C_22
REMARK    2  A    between atoms: N_3  and  C_4
REMARK    3  A    between atoms: C_4  and  C_5
REMARK    4  A    between atoms: C_8  and  C_9
REMARK    5  A    between atoms: C_9  and  N_10
REMARK                            x       y       z     vdW  Elec       q    Type
REMARK                         _______ _______ _______ _____ _____    ______ ____
ROOT
ATOM      1  C   UNL     1      48.760   6.328  15.523  0.00  0.00    +0.000 A 
ATOM      2  C   UNL     1      49.994   6.507  16.155  0.00  0.00    +0.000 A 
ATOM      3  C   UNL     1      50.414   5.635  17.174  0.00  0.00    +0.000 A 
ATOM      4  C   UNL     1      49.626   4.546  17.597  0.00  0.00    +0.000 A 
ATOM      5  C   UNL     1      48.379   4.387  16.971  0.00  0.00    +0.000 A 
ATOM      6 CL   UNL     1      47.269   3.127  17.378  0.00  0.00    +0.000 Cl
ATOM      7  C   UNL     1      47.956   5.271  15.963  0.00  0.00    +0.000 A 
ENDROOT
BRANCH   1   8
ATOM      8  C   UNL     1      48.294   7.226  14.402  0.00  0.00    +0.000 C 
BRANCH   8  11
ATOM      9  O   UNL     1      47.696   7.033  11.628  0.00  0.00    +0.000 OA
ATOM     10  C   UNL     1      46.839   6.726  12.463  0.00  0.00    +0.000 C 
ATOM     11  N   UNL     1      47.048   6.810  13.809  0.00  0.00    +0.000 N 
ATOM     12  H   UNL     1      46.437   6.283  14.416  0.00  0.00    +0.000 HD
BRANCH  10  13
ATOM     13  C   UNL     1      45.506   6.272  12.066  0.00  0.00    +0.000 A 
ATOM     14  C   UNL     1      44.557   7.128  11.533  0.00  0.00    +0.000 A 
ATOM     15  S   UNL     1      43.090   6.338  11.132  0.00  0.00    +0.000 S 
ATOM     16  C   UNL     1      43.692   4.830  11.642  0.00  0.00    +0.000 A 
ATOM     17  N   UNL     1      42.952   3.695  11.555  0.00  0.00    +0.000 NA
ATOM     18  C   UNL     1      43.554   2.631  11.968  0.00  0.00    +0.000 A 
ATOM     19  N   UNL     1      44.826   2.585  12.462  0.00  0.00    +0.000 N 
ATOM     20  C   UNL     1      45.581   3.705  12.633  0.00  0.00    +0.000 A 
ATOM     21  O   UNL     1      46.666   3.647  13.224  0.00  0.00    +0.000 OA
ATOM     22  C   UNL     1      44.978   4.933  12.144  0.00  0.00    +0.000 A 
ATOM     23  H   UNL     1      45.230   1.733  12.816  0.00  0.00    +0.000 HD
ENDBRANCH  10  13
ENDBRANCH   8  11
ENDBRANCH   1   8
BRANCH   4  24
ATOM     24  C   UNL     1      50.162   3.648  18.696  0.00  0.00    +0.000 C 
BRANCH  24  25
ATOM     25  N   UNL     1      51.518   3.196  18.457  0.00  0.00    +0.000 N 
ATOM     26  C   UNL     1      51.808   2.017  17.830  0.00  0.00    +0.000 C 
ATOM     27  O   UNL     1      50.933   1.242  17.447  0.00  0.00    +0.000 OA
ATOM     28  N   UNL     1      53.166   1.783  17.656  0.00  0.00    +0.000 N 
ATOM     29  C   UNL     1      53.589   0.636  16.861  0.00  0.00    +0.000 C 
ATOM     30  C   UNL     1      54.340  -0.375  17.724  0.00  0.00    +0.000 C 
ATOM     31  C   UNL     1      55.511   0.289  18.446  0.00  0.00    +0.000 C 
ATOM     32  C   UNL     1      55.056   1.527  19.221  0.00  0.00    +0.000 C 
ATOM     33  C   UNL     1      54.255   2.488  18.342  0.00  0.00    +0.000 C 
ATOM     34  H   UNL     1      52.165   3.931  18.210  0.00  0.00    +0.000 HD
ENDBRANCH  24  25
ENDBRANCH   4  24
TORSDOF 5
ENDMDL
MODEL 4
REMARK VINA RESULT:    -7.211      3.760      8.974
REMARK INTER + INTRA:         -10.101
REMARK INTER:                  -9.180
REMARK INTRA:                  -0.921
REMARK UNBOUND:                -0.783
REMARK  Name = 
REMARK  5 active torsions:
REMARK  status: ('A' for Active; 'I' for Inactive)
REMARK    1  A    between atoms: C_2  and  C_22
REMARK    2  A    between atoms: N_3  and  C_4
REMARK    3  A    between atoms: C_4  and  C_5
REMARK    4  A    between atoms: C_8  and  C_9
REMARK    5  A    between atoms: C_9  and  N_10
REMARK                            x       y       z     vdW  Elec       q    Type
REMARK                         _______ _______ _______ _____ _____    ______ ____
ROOT
ATOM      1  C   UNL     1      48.637   7.631  13.014  0.00  0.00    +0.000 A 
ATOM      2  C   UNL     1      48.410   6.901  14.185  0.00  0.00    +0.000 A 
ATOM      3  C   UNL     1      49.381   6.845  15.199  0.00  0.00    +0.000 A 
ATOM      4  C   UNL     1      50.612   7.521  15.092  0.00  0.00    +0.000 A 
ATOM      5  C   UNL     1      50.840   8.234  13.903  0.00  0.00    +0.000 A 
ATOM      6 CL   UNL     1      52.302   9.100  13.585  0.00  0.00    +0.000 Cl
ATOM      7  C   UNL     1      49.872   8.275  12.885  0.00  0.00    +0.000 A 
ENDROOT
BRANCH   1   8
ATOM      8  C   UNL     1      47.601   7.738  11.920  0.00  0.00    +0.000 C 
BRANCH   8  11
ATOM      9  O   UNL     1      44.773   7.557  11.672  0.00  0.00    +0.000 OA
ATOM     10  C   UNL     1      45.462   6.532  11.618  0.00  0.00    +0.000 C 
ATOM     11  N   UNL     1      46.820   6.540  11.746  0.00  0.00    +0.000 N 
ATOM     12  H   UNL     1      47.332   5.737  11.409  0.00  0.00    +0.000 HD
BRANCH  10  13
ATOM     13  C   UNL     1      44.860   5.211  11.440  0.00  0.00    +0.000 A 
ATOM     14  C   UNL     1      44.128   4.586  12.437  0.00  0.00    +0.000 A 
ATOM     15  S   UNL     1      43.515   3.058  11.961  0.00  0.00    +0.000 S 
ATOM     16  C   UNL     1      44.196   3.199  10.408  0.00  0.00    +0.000 A 
ATOM     17  N   UNL     1      44.036   2.236   9.465  0.00  0.00    +0.000 NA
ATOM     18  C   UNL     1      44.600   2.498   8.333  0.00  0.00    +0.000 A 
ATOM     19  N   UNL     1      45.312   3.628   8.048  0.00  0.00    +0.000 N 
ATOM     20  C   UNL     1      45.556   4.588   8.981  0.00  0.00    +0.000 A 
ATOM     21  O   UNL     1      46.330   5.520   8.735  0.00  0.00    +0.000 OA
ATOM     22  C   UNL     1      44.910   4.377  10.266  0.00  0.00    +0.000 A 
ATOM     23  H   UNL     1      45.772   3.759   7.162  0.00  0.00    +0.000 HD
ENDBRANCH  10  13
ENDBRANCH   8  11
ENDBRANCH   1   8
BRANCH   4  24
ATOM     24  C   UNL     1      51.599   7.417  16.239  0.00  0.00    +0.000 C 
BRANCH  24  25
ATOM     25  N   UNL     1      51.561   6.133  16.912  0.00  0.00    +0.000 N 
ATOM     26  C   UNL     1      52.677   5.372  17.122  0.00  0.00    +0.000 C 
ATOM     27  O   UNL     1      53.792   5.716  16.732  0.00  0.00    +0.000 OA
ATOM     28  N   UNL     1      52.441   4.196  17.822  0.00  0.00    +0.000 N 
ATOM     29  C   UNL     1      53.576   3.385  18.244  0.00  0.00    +0.000 C 
ATOM     30  C   UNL     1      53.565   2.029  17.542  0.00  0.00    +0.000 C 
ATOM     31  C   UNL     1      52.233   1.314  17.761  0.00  0.00    +0.000 C 
ATOM     32  C   UNL     1      51.052   2.207  17.374  0.00  0.00    +0.000 C 
ATOM     33  C   UNL     1      51.129   3.578  18.047  0.00  0.00    +0.000 C 
ATOM     34  H   UNL     1      50.913   6.085  17.684  0.00  0.00    +0.000 HD
ENDBRANCH  24  25
ENDBRANCH   4  24
TORSDOF 5
ENDMDL
MODEL 5
REMARK VINA RESULT:    -7.209      2.114      2.371
REMARK INTER + INTRA:         -10.099
REMARK INTER:                  -9.180
REMARK INTRA:                  -0.919
REMARK UNBOUND:                -0.783
REMARK  Name = 
REMARK  5 active torsions:
REMARK  status: ('A' for Active; 'I' for Inactive)
REMARK    1  A    between atoms: C_2  and  C_22
REMARK    2  A    between atoms: N_3  and  C_4
REMARK    3  A    between atoms: C_4  and  C_5
REMARK    4  A    between atoms: C_8  and  C_9
REMARK    5  A    between atoms: C_9  and  N_10
REMARK                            x       y       z     vdW  Elec       q    Type
REMARK                         _______ _______ _______ _____ _____    ______ ____
ROOT
ATOM      1  C   UNL     1      48.601   7.989  12.877  0.00  0.00    +0.000 A 
ATOM      2  C   UNL     1      48.395   6.608  12.803  0.00  0.00    +0.000 A 
ATOM      3  C   UNL     1      47.151   6.085  12.412  0.00  0.00    +0.000 A 
ATOM      4  C   UNL     1      46.066   6.917  12.069  0.00  0.00    +0.000 A 
ATOM      5  C   UNL     1      46.276   8.302  12.167  0.00  0.00    +0.000 A 
ATOM      6 CL   UNL     1      45.054   9.472  11.814  0.00  0.00    +0.000 Cl
ATOM      7  C   UNL     1      47.518   8.821  12.574  0.00  0.00    +0.000 A 
ENDROOT
BRANCH   1   8
ATOM      8  C   UNL     1      49.936   8.582  13.261  0.00  0.00    +0.000 C 
BRANCH   8  11
ATOM      9  O   UNL     1      49.540   8.412  16.073  0.00  0.00    +0.000 OA
ATOM     10  C   UNL     1      50.419   7.732  15.534  0.00  0.00    +0.000 C 
ATOM     11  N   UNL     1      50.678   7.775  14.195  0.00  0.00    +0.000 N 
ATOM     12  H   UNL     1      51.190   7.005  13.788  0.00  0.00    +0.000 HD
BRANCH  10  13
ATOM     13  C   UNL     1      51.283   6.840  16.309  0.00  0.00    +0.000 A 
ATOM     14  C   UNL     1      52.625   7.106  16.523  0.00  0.00    +0.000 A 
ATOM     15  S   UNL     1      53.400   5.914  17.481  0.00  0.00    +0.000 S 
ATOM     16  C   UNL     1      51.960   5.023  17.647  0.00  0.00    +0.000 A 
ATOM     17  N   UNL     1      51.904   3.879  18.375  0.00  0.00    +0.000 NA
ATOM     18  C   UNL     1      50.737   3.328  18.418  0.00  0.00    +0.000 A 
ATOM     19  N   UNL     1      49.615   3.807  17.803  0.00  0.00    +0.000 N 
ATOM     20  C   UNL     1      49.637   4.911  17.008  0.00  0.00    +0.000 A 
ATOM     21  O   UNL     1      48.642   5.228  16.346  0.00  0.00    +0.000 OA
ATOM     22  C   UNL     1      50.912   5.606  16.954  0.00  0.00    +0.000 A 
ATOM     23  H   UNL     1      48.740   3.311  17.830  0.00  0.00    +0.000 HD
ENDBRANCH  10  13
ENDBRANCH   8  11
ENDBRANCH   1   8
BRANCH   4  24
ATOM     24  C   UNL     1      44.761   6.269  11.647  0.00  0.00    +0.000 C 
BRANCH  24  25
ATOM     25  N   UNL     1      44.877   5.490  10.429  0.00  0.00    +0.000 N 
ATOM     26  C   UNL     1      44.863   4.123  10.418  0.00  0.00    +0.000 C 
ATOM     27  O   UNL     1      44.775   3.457  11.448  0.00  0.00    +0.000 OA
ATOM     28  N   UNL     1      44.941   3.563   9.150  0.00  0.00    +0.000 N 
ATOM     29  C   UNL     1      44.774   2.122   9.002  0.00  0.00    +0.000 C 
ATOM     30  C   UNL     1      46.062   1.476   8.496  0.00  0.00    +0.000 C 
ATOM     31  C   UNL     1      46.529   2.137   7.201  0.00  0.00    +0.000 C 
ATOM     32  C   UNL     1      46.634   3.655   7.359  0.00  0.00    +0.000 C 
ATOM     33  C   UNL     1      45.350   4.261   7.925  0.00  0.00    +0.000 C 
ATOM     34  H   UNL     1      44.397   5.885   9.634  0.00  0.00    +0.000 HD
ENDBRANCH  24  25
ENDBRANCH   4  24
TORSDOF 5
ENDMDL
MODEL 6
REMARK VINA RESULT:    -7.114      4.378      5.718
REMARK INTER + INTRA:          -9.976
REMARK INTER:                  -8.817
REMARK INTRA:                  -1.158
REMARK UNBOUND:                -0.783
REMARK  Name = 
REMARK  5 active torsions:
REMARK  status: ('A' for Active; 'I' for Inactive)
REMARK    1  A    between atoms: C_2  and  C_22
REMARK    2  A    between atoms: N_3  and  C_4
REMARK    3  A    between atoms: C_4  and  C_5
REMARK    4  A    between atoms: C_8  and  C_9
REMARK    5  A    between atoms: C_9  and  N_10
REMARK                            x       y       z     vdW  Elec       q    Type
REMARK                         _______ _______ _______ _____ _____    ______ ____
ROOT
ATOM      1  C   UNL     1      47.739   9.053  13.017  0.00  0.00    +0.000 A 
ATOM      2  C   UNL     1      48.003   7.786  13.548  0.00  0.00    +0.000 A 
ATOM      3  C   UNL     1      47.095   6.728  13.373  0.00  0.00    +0.000 A 
ATOM      4  C   UNL     1      45.893   6.887  12.654  0.00  0.00    +0.000 A 
ATOM      5  C   UNL     1      45.627   8.167  12.144  0.00  0.00    +0.000 A 
ATOM      6 CL   UNL     1      44.192   8.554  11.261  0.00  0.00    +0.000 Cl
ATOM      7  C   UNL     1      46.531   9.227  12.334  0.00  0.00    +0.000 A 
ENDROOT
BRANCH   1   8
ATOM      8  C   UNL     1      48.709  10.201  13.159  0.00  0.00    +0.000 C 
BRANCH   8  11
ATOM      9  O   UNL     1      49.264  11.120  10.524  0.00  0.00    +0.000 OA
ATOM     10  C   UNL     1      50.131  10.505  11.156  0.00  0.00    +0.000 C 
ATOM     11  N   UNL     1      49.930  10.019  12.415  0.00  0.00    +0.000 N 
ATOM     12  H   UNL     1      50.744   9.795  12.970  0.00  0.00    +0.000 HD
BRANCH  10  13
ATOM     13  C   UNL     1      51.445  10.220  10.579  0.00  0.00    +0.000 A 
ATOM     14  C   UNL     1      52.290  11.218  10.124  0.00  0.00    +0.000 A 
ATOM     15  S   UNL     1      53.775  10.615   9.518  0.00  0.00    +0.000 S 
ATOM     16  C   UNL     1      53.334   9.008   9.864  0.00  0.00    +0.000 A 
ATOM     17  N   UNL     1      54.167   7.966   9.614  0.00  0.00    +0.000 NA
ATOM     18  C   UNL     1      53.694   6.811   9.945  0.00  0.00    +0.000 A 
ATOM     19  N   UNL     1      52.467   6.592  10.504  0.00  0.00    +0.000 N 
ATOM     20  C   UNL     1      51.572   7.596  10.710  0.00  0.00    +0.000 A 
ATOM     21  O   UNL     1      50.418   7.343  11.073  0.00  0.00    +0.000 OA
ATOM     22  C   UNL     1      52.060   8.929  10.400  0.00  0.00    +0.000 A 
ATOM     23  H   UNL     1      52.129   5.663  10.700  0.00  0.00    +0.000 HD
ENDBRANCH  10  13
ENDBRANCH   8  11
ENDBRANCH   1   8
BRANCH   4  24
ATOM     24  C   UNL     1      44.976   5.688  12.503  0.00  0.00    +0.000 C 
BRANCH  24  25
ATOM     25  N   UNL     1      44.965   5.140  11.161  0.00  0.00    +0.000 N 
ATOM     26  C   UNL     1      44.986   3.798  10.907  0.00  0.00    +0.000 C 
ATOM     27  O   UNL     1      45.040   2.958  11.804  0.00  0.00    +0.000 OA
ATOM     28  N   UNL     1      44.926   3.472   9.558  0.00  0.00    +0.000 N 
ATOM     29  C   UNL     1      44.780   2.073   9.175  0.00  0.00    +0.000 C 
ATOM     30  C   UNL     1      46.014   1.587   8.418  0.00  0.00    +0.000 C 
ATOM     31  C   UNL     1      46.305   2.486   7.218  0.00  0.00    +0.000 C 
ATOM     32  C   UNL     1      46.389   3.956   7.632  0.00  0.00    +0.000 C 
ATOM     33  C   UNL     1      45.166   4.392   8.440  0.00  0.00    +0.000 C 
ATOM     34  H   UNL     1      44.383   5.646  10.509  0.00  0.00    +0.000 HD
ENDBRANCH  24  25
ENDBRANCH   4  24
TORSDOF 5
ENDMDL
MODEL 7
REMARK VINA RESULT:    -7.093      3.932      9.139
REMARK INTER + INTRA:          -9.949
REMARK INTER:                  -8.857
REMARK INTRA:                  -1.091
REMARK UNBOUND:                -0.783
REMARK  Name = 
REMARK  5 active torsions:
REMARK  status: ('A' for Active; 'I' for Inactive)
REMARK    1  A    between atoms: C_2  and  C_22
REMARK    2  A    between atoms: N_3  and  C_4
REMARK    3  A    between atoms: C_4  and  C_5
REMARK    4  A    between atoms: C_8  and  C_9
REMARK    5  A    between atoms: C_9  and  N_10
REMARK                            x       y       z     vdW  Elec       q    Type
REMARK                         _______ _______ _______ _____ _____    ______ ____
ROOT
ATOM      1  C   UNL     1      48.598   6.475  14.809  0.00  0.00    +0.000 A 
ATOM      2  C   UNL     1      49.608   6.959  15.646  0.00  0.00    +0.000 A 
ATOM      3  C   UNL     1      49.845   6.374  16.902  0.00  0.00    +0.000 A 
ATOM      4  C   UNL     1      49.093   5.278  17.369  0.00  0.00    +0.000 A 
ATOM      5  C   UNL     1      48.067   4.813  16.530  0.00  0.00    +0.000 A 
ATOM      6 CL   UNL     1      47.026   3.498  16.949  0.00  0.00    +0.000 Cl
ATOM      7  C   UNL     1      47.823   5.411  15.282  0.00  0.00    +0.000 A 
ENDROOT
BRANCH   1   8
ATOM      8  C   UNL     1      48.340   7.060  13.441  0.00  0.00    +0.000 C 
BRANCH   8  11
ATOM      9  O   UNL     1      46.189   7.869  11.766  0.00  0.00    +0.000 OA
ATOM     10  C   UNL     1      46.523   6.680  11.805  0.00  0.00    +0.000 C 
ATOM     11  N   UNL     1      47.532   6.216  12.597  0.00  0.00    +0.000 N 
ATOM     12  H   UNL     1      47.937   5.319  12.370  0.00  0.00    +0.000 HD
BRANCH  10  13
ATOM     13  C   UNL     1      45.829   5.661  11.016  0.00  0.00    +0.000 A 
ATOM     14  C   UNL     1      45.959   5.568   9.641  0.00  0.00    +0.000 A 
ATOM     15  S   UNL     1      45.061   4.273   8.968  0.00  0.00    +0.000 S 
ATOM     16  C   UNL     1      44.490   3.793  10.497  0.00  0.00    +0.000 A 
ATOM     17  N   UNL     1      43.676   2.718  10.654  0.00  0.00    +0.000 NA
ATOM     18  C   UNL     1      43.342   2.475  11.877  0.00  0.00    +0.000 A 
ATOM     19  N   UNL     1      43.741   3.200  12.964  0.00  0.00    +0.000 N 
ATOM     20  C   UNL     1      44.499   4.323  12.850  0.00  0.00    +0.000 A 
ATOM     21  O   UNL     1      44.713   5.040  13.835  0.00  0.00    +0.000 OA
ATOM     22  C   UNL     1      44.949   4.629  11.502  0.00  0.00    +0.000 A 
ATOM     23  H   UNL     1      43.411   2.993  13.893  0.00  0.00    +0.000 HD
ENDBRANCH  10  13
ENDBRANCH   8  11
ENDBRANCH   1   8
BRANCH   4  24
ATOM     24  C   UNL     1      49.424   4.701  18.732  0.00  0.00    +0.000 C 
BRANCH  24  25
ATOM     25  N   UNL     1      50.682   3.981  18.759  0.00  0.00    +0.000 N 
ATOM     26  C   UNL     1      51.797   4.461  19.386  0.00  0.00    +0.000 C 
ATOM     27  O   UNL     1      51.817   5.553  19.953  0.00  0.00    +0.000 OA
ATOM     28  N   UNL     1      52.890   3.605  19.338  0.00  0.00    +0.000 N 
ATOM     29  C   UNL     1      54.083   3.938  20.107  0.00  0.00    +0.000 C 
ATOM     30  C   UNL     1      55.267   4.210  19.181  0.00  0.00    +0.000 C 
ATOM     31  C   UNL     1      55.500   3.033  18.237  0.00  0.00    +0.000 C 
ATOM     32  C   UNL     1      54.220   2.658  17.489  0.00  0.00    +0.000 C 
ATOM     33  C   UNL     1      53.041   2.453  18.441  0.00  0.00    +0.000 C 
ATOM     34  H   UNL     1      50.588   2.981  18.854  0.00  0.00    +0.000 HD
ENDBRANCH  24  25
ENDBRANCH   4  24
TORSDOF 5
ENDMDL
MODEL 8
REMARK VINA RESULT:    -6.808      4.983      8.295
REMARK INTER + INTRA:          -9.581
REMARK INTER:                  -8.628
REMARK INTRA:                  -0.953
REMARK UNBOUND:                -0.783
REMARK  Name = 
REMARK  5 active torsions:
REMARK  status: ('A' for Active; 'I' for Inactive)
REMARK    1  A    between atoms: C_2  and  C_22
REMARK    2  A    between atoms: N_3  and  C_4
REMARK    3  A    between atoms: C_4  and  C_5
REMARK    4  A    between atoms: C_8  and  C_9
REMARK    5  A    between atoms: C_9  and  N_10
REMARK                            x       y       z     vdW  Elec       q    Type
REMARK                         _______ _______ _______ _____ _____    ______ ____
ROOT
ATOM      1  C   UNL     1      47.860   8.365  12.425  0.00  0.00    +0.000 A 
ATOM      2  C   UNL     1      48.747   9.015  11.561  0.00  0.00    +0.000 A 
ATOM      3  C   UNL     1      50.124   9.050  11.835  0.00  0.00    +0.000 A 
ATOM      4  C   UNL     1      50.675   8.431  12.975  0.00  0.00    +0.000 A 
ATOM      5  C   UNL     1      49.775   7.800  13.848  0.00  0.00    +0.000 A 
ATOM      6 CL   UNL     1      50.265   7.014  15.307  0.00  0.00    +0.000 Cl
ATOM      7  C   UNL     1      48.395   7.780  13.578  0.00  0.00    +0.000 A 
ENDROOT
BRANCH   1   8
ATOM      8  C   UNL     1      46.379   8.281  12.142  0.00  0.00    +0.000 C 
BRANCH   8  11
ATOM      9  O   UNL     1      43.780   7.491  11.297  0.00  0.00    +0.000 OA
ATOM     10  C   UNL     1      44.650   6.635  11.489  0.00  0.00    +0.000 C 
ATOM     11  N   UNL     1      45.912   6.937  11.911  0.00  0.00    +0.000 N 
ATOM     12  H   UNL     1      46.636   6.248  11.769  0.00  0.00    +0.000 HD
BRANCH  10  13
ATOM     13  C   UNL     1      44.379   5.209  11.305  0.00  0.00    +0.000 A 
ATOM     14  C   UNL     1      43.613   4.476  12.196  0.00  0.00    +0.000 A 
ATOM     15  S   UNL     1      43.431   2.836  11.734  0.00  0.00    +0.000 S 
ATOM     16  C   UNL     1      44.356   3.067  10.324  0.00  0.00    +0.000 A 
ATOM     17  N   UNL     1      44.582   2.060   9.443  0.00  0.00    +0.000 NA
ATOM     18  C   UNL     1      45.289   2.397   8.416  0.00  0.00    +0.000 A 
ATOM     19  N   UNL     1      45.794   3.644   8.180  0.00  0.00    +0.000 N 
ATOM     20  C   UNL     1      45.651   4.666   9.068  0.00  0.00    +0.000 A 
ATOM     21  O   UNL     1      46.249   5.735   8.897  0.00  0.00    +0.000 OA
ATOM     22  C   UNL     1      44.826   4.365  10.225  0.00  0.00    +0.000 A 
ATOM     23  H   UNL     1      46.380   3.840   7.385  0.00  0.00    +0.000 HD
ENDBRANCH  10  13
ENDBRANCH   8  11
ENDBRANCH   1   8
BRANCH   4  24
ATOM     24  C   UNL     1      52.175   8.507  13.187  0.00  0.00    +0.000 C 
BRANCH  24  25
ATOM     25  N   UNL     1      52.932   7.769  12.196  0.00  0.00    +0.000 N 
ATOM     26  C   UNL     1      53.637   8.378  11.195  0.00  0.00    +0.000 C 
ATOM     27  O   UNL     1      53.658   9.599  11.052  0.00  0.00    +0.000 OA
ATOM     28  N   UNL     1      54.332   7.500  10.373  0.00  0.00    +0.000 N 
ATOM     29  C   UNL     1      55.244   8.042   9.373  0.00  0.00    +0.000 C 
ATOM     30  C   UNL     1      54.757   7.718   7.962  0.00  0.00    +0.000 C 
ATOM     31  C   UNL     1      54.542   6.215   7.793  0.00  0.00    +0.000 C 
ATOM     32  C   UNL     1      53.635   5.656   8.890  0.00  0.00    +0.000 C 
ATOM     33  C   UNL     1      54.118   6.051  10.286  0.00  0.00    +0.000 C 
ATOM     34  H   UNL     1      53.403   6.951  12.554  0.00  0.00    +0.000 HD
ENDBRANCH  24  25
ENDBRANCH   4  24
TORSDOF 5
ENDMDL
MODEL 9
REMARK VINA RESULT:    -6.799      3.689      8.463
REMARK INTER + INTRA:          -9.569
REMARK INTER:                  -8.736
REMARK INTRA:                  -0.832
REMARK UNBOUND:                -0.783
REMARK  Name = 
REMARK  5 active torsions:
REMARK  status: ('A' for Active; 'I' for Inactive)
REMARK    1  A    between atoms: C_2  and  C_22
REMARK    2  A    between atoms: N_3  and  C_4
REMARK    3  A    between atoms: C_4  and  C_5
REMARK    4  A    between atoms: C_8  and  C_9
REMARK    5  A    between atoms: C_9  and  N_10
REMARK                            x       y       z     vdW  Elec       q    Type
REMARK                         _______ _______ _______ _____ _____    ______ ____
ROOT
ATOM      1  C   UNL     1      48.544   7.905  13.312  0.00  0.00    +0.000 A 
ATOM      2  C   UNL     1      48.402   6.671  13.955  0.00  0.00    +0.000 A 
ATOM      3  C   UNL     1      48.765   6.516  15.303  0.00  0.00    +0.000 A 
ATOM      4  C   UNL     1      49.275   7.585  16.067  0.00  0.00    +0.000 A 
ATOM      5  C   UNL     1      49.434   8.814  15.407  0.00  0.00    +0.000 A 
ATOM      6 CL   UNL     1      50.069  10.226  16.175  0.00  0.00    +0.000 Cl
ATOM      7  C   UNL     1      49.084   8.961  14.053  0.00  0.00    +0.000 A 
ENDROOT
BRANCH   1   8
ATOM      8  C   UNL     1      48.132   8.113  11.874  0.00  0.00    +0.000 C 
BRANCH   8  11
ATOM      9  O   UNL     1      45.305   7.802  11.790  0.00  0.00    +0.000 OA
ATOM     10  C   UNL     1      46.034   6.932  11.299  0.00  0.00    +0.000 C 
ATOM     11  N   UNL     1      47.397   7.005  11.319  0.00  0.00    +0.000 N 
ATOM     12  H   UNL     1      47.910   6.431  10.665  0.00  0.00    +0.000 HD
BRANCH  10  13
ATOM     13  C   UNL     1      45.482   5.727  10.681  0.00  0.00    +0.000 A 
ATOM     14  C   UNL     1      45.653   5.435   9.338  0.00  0.00    +0.000 A 
ATOM     15  S   UNL     1      44.927   3.952   8.876  0.00  0.00    +0.000 S 
ATOM     16  C   UNL     1      44.382   3.655  10.461  0.00  0.00    +0.000 A 
ATOM     17  N   UNL     1      43.696   2.529  10.784  0.00  0.00    +0.000 NA
ATOM     18  C   UNL     1      43.366   2.443  12.029  0.00  0.00    +0.000 A 
ATOM     19  N   UNL     1      43.653   3.372  12.988  0.00  0.00    +0.000 N 
ATOM     20  C   UNL     1      44.277   4.546  12.699  0.00  0.00    +0.000 A 
ATOM     21  O   UNL     1      44.384   5.429  13.558  0.00  0.00    +0.000 OA
ATOM     22  C   UNL     1      44.717   4.686  11.321  0.00  0.00    +0.000 A 
ATOM     23  H   UNL     1      43.328   3.276  13.937  0.00  0.00    +0.000 HD
ENDBRANCH  10  13
ENDBRANCH   8  11
ENDBRANCH   1   8
BRANCH   4  24
ATOM     24  C   UNL     1      49.631   7.332  17.520  0.00  0.00    +0.000 C 
BRANCH  24  25
ATOM     25  N   UNL     1      49.851   5.931  17.821  0.00  0.00    +0.000 N 
ATOM     26  C   UNL     1      51.093   5.404  18.038  0.00  0.00    +0.000 C 
ATOM     27  O   UNL     1      52.117   6.082  17.970  0.00  0.00    +0.000 OA
ATOM     28  N   UNL     1      51.090   4.052  18.355  0.00  0.00    +0.000 N 
ATOM     29  C   UNL     1      52.339   3.420  18.764  0.00  0.00    +0.000 C 
ATOM     30  C   UNL     1      52.770   2.364  17.748  0.00  0.00    +0.000 C 
ATOM     31  C   UNL     1      51.657   1.344  17.518  0.00  0.00    +0.000 C 
ATOM     32  C   UNL     1      50.340   2.032  17.154  0.00  0.00    +0.000 C 
ATOM     33  C   UNL     1      49.970   3.125  18.158  0.00  0.00    +0.000 C 
ATOM     34  H   UNL     1      49.148   5.517  18.415  0.00  0.00    +0.000 HD
ENDBRANCH  24  25
ENDBRANCH   4  24
TORSDOF 5
ENDMDL
