MODEL 1
REMARK VINA RESULT:    -6.992      0.000      0.000
REMARK INTER + INTRA:          -8.941
REMARK INTER:                  -8.831
REMARK INTRA:                  -0.110
REMARK UNBOUND:                -0.110
REMARK  Name = 
REMARK  5 active torsions:
REMARK  status: ('A' for Active; 'I' for Inactive)
REMARK    1  A    between atoms: N_1  and  C_2
REMARK    2  A    between atoms: C_2  and  C_3
REMARK    3  A    between atoms: C_7  and  O_8
REMARK    4  A    between atoms: O_8  and  C_9
REMARK    5  A    between atoms: C_9  and  C_10
REMARK                            x       y       z     vdW  Elec       q    Type
REMARK                         _______ _______ _______ _____ _____    ______ ____
ROOT
ATOM      1  C   UNL     1      46.458   1.969   7.739  0.00  0.00    +0.000 A 
ATOM      2  C   UNL     1      46.636   3.249   7.197  0.00  0.00    +0.000 A 
ATOM      3  C   UNL     1      45.954   4.345   7.729  0.00  0.00    +0.000 A 
ATOM      4  C   UNL     1      45.070   4.172   8.796  0.00  0.00    +0.000 A 
ATOM      5  C   UNL     1      44.856   2.899   9.324  0.00  0.00    +0.000 A 
ATOM      6  C   UNL     1      45.571   1.810   8.814  0.00  0.00    +0.000 A 
ENDROOT
BRANCH   1   7
ATOM      7  C   UNL     1      47.160   0.776   7.144  0.00  0.00    +0.000 C 
BRANCH   7   8
ATOM      8  N   UNL     1      46.746  -0.473   7.774  0.00  0.00    +0.000 NA
ATOM      9  H   UNL     1      46.780  -0.360   8.785  0.00  0.00    +0.000 HD
ATOM     10  H   UNL     1      47.431  -1.193   7.544  0.00  0.00    +0.000 HD
ENDBRANCH   7   8
ENDBRANCH   1   7
BRANCH   5  11
ATOM     11  O   UNL     1      43.986   2.600  10.336  0.00  0.00    +0.000 OA
BRANCH  11  12
ATOM     12  C   UNL     1      43.542   3.718  11.115  0.00  0.00    +0.000 C 
BRANCH  12  13
ATOM     13  C   UNL     1      44.641   4.165  12.054  0.00  0.00    +0.000 A 
ATOM     14  N   UNL     1      45.393   3.219  12.658  0.00  0.00    +0.000 NA
ATOM     15  C   UNL     1      46.373   3.658  13.470  0.00  0.00    +0.000 A 
ATOM     16  C   UNL     1      46.637   4.989  13.694  0.00  0.00    +0.000 A 
ATOM     17  C   UNL     1      45.820   5.873  13.036  0.00  0.00    +0.000 A 
ATOM     18  N   UNL     1      44.825   5.495  12.213  0.00  0.00    +0.000 NA
ENDBRANCH  12  13
ENDBRANCH  11  12
ENDBRANCH   5  11
TORSDOF 5
ENDMDL
MODEL 2
REMARK VINA RESULT:    -6.895      1.864      5.404
REMARK INTER + INTRA:          -8.819
REMARK INTER:                  -8.490
REMARK INTRA:                  -0.330
REMARK UNBOUND:                -0.110
REMARK  Name = 
REMARK  5 active torsions:
REMARK  status: ('A' for Active; 'I' for Inactive)
REMARK    1  A    between atoms: N_1  and  C_2
REMARK    2  A    between atoms: C_2  and  C_3
REMARK    3  A    between atoms: C_7  and  O_8
REMARK    4  A    between atoms: O_8  and  C_9
REMARK    5  A    between atoms: C_9  and  C_10
REMARK                            x       y       z     vdW  Elec       q    Type
REMARK                         _______ _______ _______ _____ _____    ______ ____
ROOT
ATOM      1  C   UNL     1      46.400   4.977  13.331  0.00  0.00    +0.000 A 
ATOM      2  C   UNL     1      46.928   6.182  12.847  0.00  0.00    +0.000 A 
ATOM      3  C   UNL     1      46.576   6.653  11.581  0.00  0.00    +0.000 A 
ATOM      4  C   UNL     1      45.707   5.915  10.774  0.00  0.00    +0.000 A 
ATOM      5  C   UNL     1      45.201   4.697  11.228  0.00  0.00    +0.000 A 
ATOM      6  C   UNL     1      45.525   4.249  12.512  0.00  0.00    +0.000 A 
ENDROOT
BRANCH   1   7
ATOM      7  C   UNL     1      46.808   4.444  14.680  0.00  0.00    +0.000 C 
BRANCH   7   8
ATOM      8  N   UNL     1      47.527   3.179  14.574  0.00  0.00    +0.000 NA
ATOM      9  H   UNL     1      46.853   2.425  14.452  0.00  0.00    +0.000 HD
ATOM     10  H   UNL     1      47.998   3.001  15.460  0.00  0.00    +0.000 HD
ENDBRANCH   7   8
ENDBRANCH   1   7
BRANCH   5  11
ATOM     11  O   UNL     1      44.379   3.869  10.513  0.00  0.00    +0.000 OA
BRANCH  11  12
ATOM     12  C   UNL     1      44.333   4.117   9.103  0.00  0.00    +0.000 C 
BRANCH  12  13
ATOM     13  C   UNL     1      45.398   3.304   8.398  0.00  0.00    +0.000 A 
ATOM     14  N   UNL     1      45.481   1.984   8.671  0.00  0.00    +0.000 NA
ATOM     15  C   UNL     1      46.428   1.292   8.008  0.00  0.00    +0.000 A 
ATOM     16  C   UNL     1      47.278   1.857   7.086  0.00  0.00    +0.000 A 
ATOM     17  C   UNL     1      47.115   3.204   6.877  0.00  0.00    +0.000 A 
ATOM     18  N   UNL     1      46.188   3.947   7.509  0.00  0.00    +0.000 NA
ENDBRANCH  12  13
ENDBRANCH  11  12
ENDBRANCH   5  11
TORSDOF 5
ENDMDL
MODEL 3
REMARK VINA RESULT:    -6.868      1.560      2.285
REMARK INTER + INTRA:          -8.785
REMARK INTER:                  -8.471
REMARK INTRA:                  -0.314
REMARK UNBOUND:                -0.110
REMARK  Name = 
REMARK  5 active torsions:
REMARK  status: ('A' for Active; 'I' for Inactive)
REMARK    1  A    between atoms: N_1  and  C_2
REMARK    2  A    between atoms: C_2  and  C_3
REMARK    3  A    between atoms: C_7  and  O_8
REMARK    4  A    between atoms: O_8  and  C_9
REMARK    5  A    between atoms: C_9  and  C_10
REMARK                            x       y       z     vdW  Elec       q    Type
REMARK                         _______ _______ _______ _____ _____    ______ ____
ROOT
ATOM      1  C   UNL     1      46.608   2.557   6.783  0.00  0.00    +0.000 A 
ATOM      2  C   UNL     1      46.585   1.304   7.409  0.00  0.00    +0.000 A 
ATOM      3  C   UNL     1      45.781   1.085   8.529  0.00  0.00    +0.000 A 
ATOM      4  C   UNL     1      45.004   2.123   9.049  0.00  0.00    +0.000 A 
ATOM      5  C   UNL     1      45.043   3.385   8.458  0.00  0.00    +0.000 A 
ATOM      6  C   UNL     1      45.820   3.589   7.313  0.00  0.00    +0.000 A 
ENDROOT
BRANCH   1   7
ATOM      7  C   UNL     1      47.504   2.811   5.599  0.00  0.00    +0.000 C 
BRANCH   7   8
ATOM      8  N   UNL     1      48.549   1.801   5.476  0.00  0.00    +0.000 NA
ATOM      9  H   UNL     1      49.352   2.087   6.033  0.00  0.00    +0.000 HD
ATOM     10  H   UNL     1      48.867   1.781   4.507  0.00  0.00    +0.000 HD
ENDBRANCH   7   8
ENDBRANCH   1   7
BRANCH   5  11
ATOM     11  O   UNL     1      44.363   4.486   8.903  0.00  0.00    +0.000 OA
BRANCH  11  12
ATOM     12  C   UNL     1      43.912   4.423  10.261  0.00  0.00    +0.000 C 
BRANCH  12  13
ATOM     13  C   UNL     1      44.966   4.996  11.185  0.00  0.00    +0.000 A 
ATOM     14  N   UNL     1      45.711   6.032  10.741  0.00  0.00    +0.000 NA
ATOM     15  C   UNL     1      46.623   6.526  11.601  0.00  0.00    +0.000 A 
ATOM     16  C   UNL     1      46.812   6.041  12.873  0.00  0.00    +0.000 A 
ATOM     17  C   UNL     1      46.007   4.989  13.231  0.00  0.00    +0.000 A 
ATOM     18  N   UNL     1      45.079   4.452  12.418  0.00  0.00    +0.000 NA
ENDBRANCH  12  13
ENDBRANCH  11  12
ENDBRANCH   5  11
TORSDOF 5
ENDMDL
MODEL 4
REMARK VINA RESULT:    -6.817      1.680      5.651
REMARK INTER + INTRA:          -8.721
REMARK INTER:                  -8.377
REMARK INTRA:                  -0.344
REMARK UNBOUND:                -0.110
REMARK  Name = 
REMARK  5 active torsions:
REMARK  status: ('A' for Active; 'I' for Inactive)
REMARK    1  A    between atoms: N_1  and  C_2
REMARK    2  A    between atoms: C_2  and  C_3
REMARK    3  A    between atoms: C_7  and  O_8
REMARK    4  A    between atoms: O_8  and  C_9
REMARK    5  A    between atoms: C_9  and  C_10
REMARK                            x       y       z     vdW  Elec       q    Type
REMARK                         _______ _______ _______ _____ _____    ______ ____
ROOT
ATOM      1  C   UNL     1      45.377   4.535  12.889  0.00  0.00    +0.000 A 
ATOM      2  C   UNL     1      44.260   5.265  13.316  0.00  0.00    +0.000 A 
ATOM      3  C   UNL     1      43.066   5.223  12.595  0.00  0.00    +0.000 A 
ATOM      4  C   UNL     1      42.979   4.466  11.425  0.00  0.00    +0.000 A 
ATOM      5  C   UNL     1      44.093   3.761  10.967  0.00  0.00    +0.000 A 
ATOM      6  C   UNL     1      45.274   3.775  11.715  0.00  0.00    +0.000 A 
ENDROOT
BRANCH   1   7
ATOM      7  C   UNL     1      46.680   4.608  13.641  0.00  0.00    +0.000 C 
BRANCH   7   8
ATOM      8  N   UNL     1      47.198   3.285  13.970  0.00  0.00    +0.000 NA
ATOM      9  H   UNL     1      47.451   3.265  14.956  0.00  0.00    +0.000 HD
ATOM     10  H   UNL     1      48.063   3.138  13.451  0.00  0.00    +0.000 HD
ENDBRANCH   7   8
ENDBRANCH   1   7
BRANCH   5  11
ATOM     11  O   UNL     1      44.141   3.022   9.817  0.00  0.00    +0.000 OA
BRANCH  11  12
ATOM     12  C   UNL     1      44.499   3.748   8.635  0.00  0.00    +0.000 C 
BRANCH  12  13
ATOM     13  C   UNL     1      45.599   3.020   7.892  0.00  0.00    +0.000 A 
ATOM     14  N   UNL     1      46.221   3.661   6.879  0.00  0.00    +0.000 NA
ATOM     15  C   UNL     1      47.208   2.986   6.258  0.00  0.00    +0.000 A 
ATOM     16  C   UNL     1      47.600   1.716   6.610  0.00  0.00    +0.000 A 
ATOM     17  C   UNL     1      46.908   1.149   7.651  0.00  0.00    +0.000 A 
ATOM     18  N   UNL     1      45.915   1.773   8.309  0.00  0.00    +0.000 NA
ENDBRANCH  12  13
ENDBRANCH  11  12
ENDBRANCH   5  11
TORSDOF 5
ENDMDL
MODEL 5
REMARK VINA RESULT:    -6.584      1.778      5.858
REMARK INTER + INTRA:          -8.426
REMARK INTER:                  -8.098
REMARK INTRA:                  -0.327
REMARK UNBOUND:                -0.110
REMARK  Name = 
REMARK  5 active torsions:
REMARK  status: ('A' for Active; 'I' for Inactive)
REMARK    1  A    between atoms: N_1  and  C_2
REMARK    2  A    between atoms: C_2  and  C_3
REMARK    3  A    between atoms: C_7  and  O_8
REMARK    4  A    between atoms: O_8  and  C_9
REMARK    5  A    between atoms: C_9  and  C_10
REMARK                            x       y       z     vdW  Elec       q    Type
REMARK                         _______ _______ _______ _____ _____    ______ ____
ROOT
ATOM      1  C   UNL     1      45.845   6.179  12.152  0.00  0.00    +0.000 A 
ATOM      2  C   UNL     1      46.194   5.355  13.230  0.00  0.00    +0.000 A 
ATOM      3  C   UNL     1      45.932   3.985  13.189  0.00  0.00    +0.000 A 
ATOM      4  C   UNL     1      45.298   3.424  12.078  0.00  0.00    +0.000 A 
ATOM      5  C   UNL     1      44.913   4.237  11.012  0.00  0.00    +0.000 A 
ATOM      6  C   UNL     1      45.213   5.602  11.041  0.00  0.00    +0.000 A 
ENDROOT
BRANCH   1   7
ATOM      7  C   UNL     1      46.089   7.665  12.207  0.00  0.00    +0.000 C 
BRANCH   7   8
ATOM      8  N   UNL     1      44.907   8.398  12.646  0.00  0.00    +0.000 NA
ATOM      9  H   UNL     1      44.086   7.809  12.519  0.00  0.00    +0.000 HD
ATOM     10  H   UNL     1      44.779   9.203  12.033  0.00  0.00    +0.000 HD
ENDBRANCH   7   8
ENDBRANCH   1   7
BRANCH   5  11
ATOM     11  O   UNL     1      44.250   3.810   9.893  0.00  0.00    +0.000 OA
BRANCH  11  12
ATOM     12  C   UNL     1      44.479   2.444   9.527  0.00  0.00    +0.000 C 
BRANCH  12  13
ATOM     13  C   UNL     1      45.539   2.367   8.449  0.00  0.00    +0.000 A 
ATOM     14  N   UNL     1      46.223   1.211   8.305  0.00  0.00    +0.000 NA
ATOM     15  C   UNL     1      47.143   1.177   7.321  0.00  0.00    +0.000 A 
ATOM     16  C   UNL     1      47.397   2.234   6.480  0.00  0.00    +0.000 A 
ATOM     17  C   UNL     1      46.652   3.363   6.706  0.00  0.00    +0.000 A 
ATOM     18  N   UNL     1      45.720   3.458   7.671  0.00  0.00    +0.000 NA
ENDBRANCH  12  13
ENDBRANCH  11  12
ENDBRANCH   5  11
TORSDOF 5
ENDMDL
MODEL 6
REMARK VINA RESULT:    -5.916      2.887      4.565
REMARK INTER + INTRA:          -7.582
REMARK INTER:                  -7.326
REMARK INTRA:                  -0.256
REMARK UNBOUND:                -0.110
REMARK  Name = 
REMARK  5 active torsions:
REMARK  status: ('A' for Active; 'I' for Inactive)
REMARK    1  A    between atoms: N_1  and  C_2
REMARK    2  A    between atoms: C_2  and  C_3
REMARK    3  A    between atoms: C_7  and  O_8
REMARK    4  A    between atoms: O_8  and  C_9
REMARK    5  A    between atoms: C_9  and  C_10
REMARK                            x       y       z     vdW  Elec       q    Type
REMARK                         _______ _______ _______ _____ _____    ______ ____
ROOT
ATOM      1  C   UNL     1      44.570   4.497  10.401  0.00  0.00    +0.000 A 
ATOM      2  C   UNL     1      43.320   5.122  10.498  0.00  0.00    +0.000 A 
ATOM      3  C   UNL     1      42.769   5.418  11.746  0.00  0.00    +0.000 A 
ATOM      4  C   UNL     1      43.452   5.073  12.914  0.00  0.00    +0.000 A 
ATOM      5  C   UNL     1      44.682   4.420  12.834  0.00  0.00    +0.000 A 
ATOM      6  C   UNL     1      45.248   4.161  11.582  0.00  0.00    +0.000 A 
ENDROOT
BRANCH   1   7
ATOM      7  C   UNL     1      45.151   4.140   9.058  0.00  0.00    +0.000 C 
BRANCH   7   8
ATOM      8  N   UNL     1      45.911   5.242   8.478  0.00  0.00    +0.000 NA
ATOM      9  H   UNL     1      45.676   5.322   7.491  0.00  0.00    +0.000 HD
ATOM     10  H   UNL     1      46.902   5.007   8.518  0.00  0.00    +0.000 HD
ENDBRANCH   7   8
ENDBRANCH   1   7
BRANCH   5  11
ATOM     11  O   UNL     1      45.421   3.996  13.905  0.00  0.00    +0.000 OA
BRANCH  11  12
ATOM     12  C   UNL     1      46.822   4.291  13.840  0.00  0.00    +0.000 C 
BRANCH  12  13
ATOM     13  C   UNL     1      47.368   4.521  15.233  0.00  0.00    +0.000 A 
ATOM     14  N   UNL     1      48.263   5.517  15.414  0.00  0.00    +0.000 NA
ATOM     15  C   UNL     1      48.709   5.702  16.672  0.00  0.00    +0.000 A 
ATOM     16  C   UNL     1      48.295   4.948  17.745  0.00  0.00    +0.000 A 
ATOM     17  C   UNL     1      47.385   3.961  17.460  0.00  0.00    +0.000 A 
ATOM     18  N   UNL     1      46.903   3.728  16.226  0.00  0.00    +0.000 NA
ENDBRANCH  12  13
ENDBRANCH  11  12
ENDBRANCH   5  11
TORSDOF 5
ENDMDL
MODEL 7
REMARK VINA RESULT:    -5.878      3.796      5.770
REMARK INTER + INTRA:          -7.534
REMARK INTER:                  -7.282
REMARK INTRA:                  -0.252
REMARK UNBOUND:                -0.110
REMARK  Name = 
REMARK  5 active torsions:
REMARK  status: ('A' for Active; 'I' for Inactive)
REMARK    1  A    between atoms: N_1  and  C_2
REMARK    2  A    between atoms: C_2  and  C_3
REMARK    3  A    between atoms: C_7  and  O_8
REMARK    4  A    between atoms: O_8  and  C_9
REMARK    5  A    between atoms: C_9  and  C_10
REMARK                            x       y       z     vdW  Elec       q    Type
REMARK                         _______ _______ _______ _____ _____    ______ ____
ROOT
ATOM      1  C   UNL     1      44.799   4.188  12.140  0.00  0.00    +0.000 A 
ATOM      2  C   UNL     1      44.947   5.581  12.110  0.00  0.00    +0.000 A 
ATOM      3  C   UNL     1      45.982   6.200  12.812  0.00  0.00    +0.000 A 
ATOM      4  C   UNL     1      46.871   5.435  13.571  0.00  0.00    +0.000 A 
ATOM      5  C   UNL     1      46.716   4.051  13.639  0.00  0.00    +0.000 A 
ATOM      6  C   UNL     1      45.702   3.432  12.902  0.00  0.00    +0.000 A 
ENDROOT
BRANCH   1   7
ATOM      7  C   UNL     1      43.660   3.517  11.417  0.00  0.00    +0.000 C 
BRANCH   7   8
ATOM      8  N   UNL     1      43.342   2.212  11.986  0.00  0.00    +0.000 NA
ATOM      9  H   UNL     1      43.051   2.336  12.953  0.00  0.00    +0.000 HD
ATOM     10  H   UNL     1      44.196   1.655  12.013  0.00  0.00    +0.000 HD
ENDBRANCH   7   8
ENDBRANCH   1   7
BRANCH   5  11
ATOM     11  O   UNL     1      47.496   3.205  14.381  0.00  0.00    +0.000 OA
BRANCH  11  12
ATOM     12  C   UNL     1      47.410   3.377  15.800  0.00  0.00    +0.000 C 
BRANCH  12  13
ATOM     13  C   UNL     1      48.769   3.162  16.432  0.00  0.00    +0.000 A 
ATOM     14  N   UNL     1      49.324   1.933  16.356  0.00  0.00    +0.000 NA
ATOM     15  C   UNL     1      50.542   1.789  16.912  0.00  0.00    +0.000 A 
ATOM     16  C   UNL     1      51.226   2.813  17.524  0.00  0.00    +0.000 A 
ATOM     17  C   UNL     1      50.580   4.023  17.550  0.00  0.00    +0.000 A 
ATOM     18  N   UNL     1      49.364   4.229  17.012  0.00  0.00    +0.000 NA
ENDBRANCH  12  13
ENDBRANCH  11  12
ENDBRANCH   5  11
TORSDOF 5
ENDMDL
MODEL 8
REMARK VINA RESULT:    -5.632      3.854      5.617
REMARK INTER + INTRA:          -7.224
REMARK INTER:                  -6.959
REMARK INTRA:                  -0.265
REMARK UNBOUND:                -0.110
REMARK  Name = 
REMARK  5 active torsions:
REMARK  status: ('A' for Active; 'I' for Inactive)
REMARK    1  A    between atoms: N_1  and  C_2
REMARK    2  A    between atoms: C_2  and  C_3
REMARK    3  A    between atoms: C_7  and  O_8
REMARK    4  A    between atoms: O_8  and  C_9
REMARK    5  A    between atoms: C_9  and  C_10
REMARK                            x       y       z     vdW  Elec       q    Type
REMARK                         _______ _______ _______ _____ _____    ______ ____
ROOT
ATOM      1  C   UNL     1      44.738   6.061  11.613  0.00  0.00    +0.000 A 
ATOM      2  C   UNL     1      44.382   5.145  10.615  0.00  0.00    +0.000 A 
ATOM      3  C   UNL     1      44.583   3.776  10.803  0.00  0.00    +0.000 A 
ATOM      4  C   UNL     1      45.164   3.308  11.984  0.00  0.00    +0.000 A 
ATOM      5  C   UNL     1      45.556   4.210  12.972  0.00  0.00    +0.000 A 
ATOM      6  C   UNL     1      45.315   5.576  12.796  0.00  0.00    +0.000 A 
ENDROOT
BRANCH   1   7
ATOM      7  C   UNL     1      44.560   7.542  11.400  0.00  0.00    +0.000 C 
BRANCH   7   8
ATOM      8  N   UNL     1      43.190   7.882  11.034  0.00  0.00    +0.000 NA
ATOM      9  H   UNL     1      42.978   8.816  11.379  0.00  0.00    +0.000 HD
ATOM     10  H   UNL     1      42.558   7.247  11.522  0.00  0.00    +0.000 HD
ENDBRANCH   7   8
ENDBRANCH   1   7
BRANCH   5  11
ATOM     11  O   UNL     1      46.171   3.875  14.148  0.00  0.00    +0.000 OA
BRANCH  11  12
ATOM     12  C   UNL     1      47.068   4.859  14.675  0.00  0.00    +0.000 C 
BRANCH  12  13
ATOM     13  C   UNL     1      47.663   4.373  15.979  0.00  0.00    +0.000 A 
ATOM     14  N   UNL     1      48.791   4.965  16.429  0.00  0.00    +0.000 NA
ATOM     15  C   UNL     1      49.276   4.518  17.603  0.00  0.00    +0.000 A 
ATOM     16  C   UNL     1      48.682   3.522  18.343  0.00  0.00    +0.000 A 
ATOM     17  C   UNL     1      47.541   2.984  17.803  0.00  0.00    +0.000 A 
ATOM     18  N   UNL     1      47.009   3.388  16.636  0.00  0.00    +0.000 NA
ENDBRANCH  12  13
ENDBRANCH  11  12
ENDBRANCH   5  11
TORSDOF 5
ENDMDL
MODEL 9
REMARK VINA RESULT:    -5.346      3.963      7.478
REMARK INTER + INTRA:          -6.863
REMARK INTER:                  -6.625
REMARK INTRA:                  -0.237
REMARK UNBOUND:                -0.110
REMARK  Name = 
REMARK  5 active torsions:
REMARK  status: ('A' for Active; 'I' for Inactive)
REMARK    1  A    between atoms: N_1  and  C_2
REMARK    2  A    between atoms: C_2  and  C_3
REMARK    3  A    between atoms: C_7  and  O_8
REMARK    4  A    between atoms: O_8  and  C_9
REMARK    5  A    between atoms: C_9  and  C_10
REMARK                            x       y       z     vdW  Elec       q    Type
REMARK                         _______ _______ _______ _____ _____    ______ ____
ROOT
ATOM      1  C   UNL     1      49.392   3.248  17.594  0.00  0.00    +0.000 A 
ATOM      2  C   UNL     1      49.294   4.106  18.698  0.00  0.00    +0.000 A 
ATOM      3  C   UNL     1      48.187   4.942  18.851  0.00  0.00    +0.000 A 
ATOM      4  C   UNL     1      47.172   4.946  17.892  0.00  0.00    +0.000 A 
ATOM      5  C   UNL     1      47.271   4.123  16.770  0.00  0.00    +0.000 A 
ATOM      6  C   UNL     1      48.363   3.259  16.641  0.00  0.00    +0.000 A 
ENDROOT
BRANCH   1   7
ATOM      7  C   UNL     1      50.603   2.373  17.402  0.00  0.00    +0.000 C 
BRANCH   7   8
ATOM      8  N   UNL     1      50.488   1.531  16.217  0.00  0.00    +0.000 NA
ATOM      9  H   UNL     1      51.276   1.719  15.600  0.00  0.00    +0.000 HD
ATOM     10  H   UNL     1      49.651   1.807  15.704  0.00  0.00    +0.000 HD
ENDBRANCH   7   8
ENDBRANCH   1   7
BRANCH   5  11
ATOM     11  O   UNL     1      46.364   4.072  15.746  0.00  0.00    +0.000 OA
BRANCH  11  12
ATOM     12  C   UNL     1      46.837   4.553  14.482  0.00  0.00    +0.000 C 
BRANCH  12  13
ATOM     13  C   UNL     1      45.721   4.508  13.460  0.00  0.00    +0.000 A 
ATOM     14  N   UNL     1      45.500   3.348  12.804  0.00  0.00    +0.000 NA
ATOM     15  C   UNL     1      44.485   3.344  11.918  0.00  0.00    +0.000 A 
ATOM     16  C   UNL     1      43.685   4.435  11.672  0.00  0.00    +0.000 A 
ATOM     17  C   UNL     1      43.989   5.566  12.388  0.00  0.00    +0.000 A 
ATOM     18  N   UNL     1      44.989   5.631  13.285  0.00  0.00    +0.000 NA
ENDBRANCH  12  13
ENDBRANCH  11  12
ENDBRANCH   5  11
TORSDOF 5
ENDMDL
