MODEL 1
REMARK VINA RESULT:    -7.996      0.000      0.000
REMARK INTER + INTRA:         -11.225
REMARK INTER:                 -10.333
REMARK INTRA:                  -0.891
REMARK UNBOUND:                -0.891
REMARK  Name = 
REMARK  7 active torsions:
REMARK  status: ('A' for Active; 'I' for Inactive)
REMARK    1  A    between atoms: C_1  and  C_2
REMARK    2  A    between atoms: C_2  and  N_3
REMARK    3  A    between atoms: C_2  and  C_17
REMARK    4  A    between atoms: C_4  and  C_6
REMARK    5  A    between atoms: N_12  and  C_13
REMARK    6  A    between atoms: C_20  and  O_21
REMARK    7  A    between atoms: O_21  and  C_22
REMARK                            x       y       z     vdW  Elec       q    Type
REMARK                         _______ _______ _______ _____ _____    ______ ____
ROOT
ATOM      1  C   UNL     1      45.798   8.081  13.125  0.00  0.00    +0.000 C 
ATOM      2  C   UNL     1      46.643   6.831  12.878  0.00  0.00    +0.000 C 
ENDROOT
BRANCH   2   3
ATOM      3  C   UNL     1      46.016   5.933  11.827  0.00  0.00    +0.000 A 
ATOM      4  C   UNL     1      46.053   6.315  10.481  0.00  0.00    +0.000 A 
ATOM      5  C   UNL     1      45.545   5.475   9.491  0.00  0.00    +0.000 A 
ATOM      6  C   UNL     1      45.062   4.207   9.825  0.00  0.00    +0.000 A 
ATOM      7  C   UNL     1      44.962   3.839  11.165  0.00  0.00    +0.000 A 
ATOM      8  C   UNL     1      45.430   4.698  12.161  0.00  0.00    +0.000 A 
BRANCH   6   9
ATOM      9  O   UNL     1      44.632   3.278   8.903  0.00  0.00    +0.000 OA
BRANCH   9  10
ATOM     10  C   UNL     1      45.555   2.630   8.121  0.00  0.00    +0.000 A 
ATOM     11  C   UNL     1      46.187   3.176   7.004  0.00  0.00    +0.000 A 
ATOM     12  C   UNL     1      47.052   2.388   6.251  0.00  0.00    +0.000 A 
ATOM     13  C   UNL     1      47.307   1.096   6.682  0.00  0.00    +0.000 A 
ATOM     14  N   UNL     1      46.773   0.559   7.800  0.00  0.00    +0.000 NA
ATOM     15  C   UNL     1      45.912   1.341   8.496  0.00  0.00    +0.000 A 
ENDBRANCH   9  10
ENDBRANCH   6   9
ENDBRANCH   2   3
BRANCH   2  16
ATOM     16  N   UNL     1      46.823   6.072  14.097  0.00  0.00    +0.000 N 
ATOM     17  C   UNL     1      48.019   5.912  14.738  0.00  0.00    +0.000 C 
ATOM     18  O   UNL     1      49.084   6.294  14.267  0.00  0.00    +0.000 OA
ATOM     19  H   UNL     1      45.974   5.858  14.606  0.00  0.00    +0.000 HD
BRANCH  17  20
ATOM     20  C   UNL     1      47.952   5.191  16.018  0.00  0.00    +0.000 A 
ATOM     21  C   UNL     1      47.578   3.854  16.047  0.00  0.00    +0.000 A 
ATOM     22  S   UNL     1      47.542   3.192  17.618  0.00  0.00    +0.000 S 
ATOM     23  C   UNL     1      48.066   4.657  18.310  0.00  0.00    +0.000 A 
ATOM     24  N   UNL     1      48.270   4.766  19.647  0.00  0.00    +0.000 NA
ATOM     25  C   UNL     1      48.694   5.925  20.037  0.00  0.00    +0.000 A 
ATOM     26  N   UNL     1      48.927   7.006  19.212  0.00  0.00    +0.000 N 
ATOM     27  C   UNL     1      49.391   8.266  19.758  0.00  0.00    +0.000 C 
ATOM     28  C   UNL     1      48.696   6.940  17.845  0.00  0.00    +0.000 A 
ATOM     29  O   UNL     1      48.829   7.912  17.105  0.00  0.00    +0.000 OA
ATOM     30  C   UNL     1      48.242   5.646  17.362  0.00  0.00    +0.000 A 
ENDBRANCH  17  20
ENDBRANCH   2  16
TORSDOF 5
ENDMDL
MODEL 2
REMARK VINA RESULT:    -7.877      3.150      4.148
REMARK INTER + INTRA:         -11.071
REMARK INTER:                  -9.931
REMARK INTRA:                  -1.140
REMARK UNBOUND:                -0.891
REMARK  Name = 
REMARK  7 active torsions:
REMARK  status: ('A' for Active; 'I' for Inactive)
REMARK    1  A    between atoms: C_1  and  C_2
REMARK    2  A    between atoms: C_2  and  N_3
REMARK    3  A    between atoms: C_2  and  C_17
REMARK    4  A    between atoms: C_4  and  C_6
REMARK    5  A    between atoms: N_12  and  C_13
REMARK    6  A    between atoms: C_20  and  O_21
REMARK    7  A    between atoms: O_21  and  C_22
REMARK                            x       y       z     vdW  Elec       q    Type
REMARK                         _______ _______ _______ _____ _____    ______ ____
ROOT
ATOM      1  C   UNL     1      46.514   4.698  14.454  0.00  0.00    +0.000 C 
ATOM      2  C   UNL     1      46.104   5.698  13.373  0.00  0.00    +0.000 C 
ENDROOT
BRANCH   2   3
ATOM      3  C   UNL     1      45.629   4.994  12.114  0.00  0.00    +0.000 A 
ATOM      4  C   UNL     1      45.654   5.674  10.891  0.00  0.00    +0.000 A 
ATOM      5  C   UNL     1      45.288   5.027   9.712  0.00  0.00    +0.000 A 
ATOM      6  C   UNL     1      44.963   3.668   9.728  0.00  0.00    +0.000 A 
ATOM      7  C   UNL     1      44.875   2.995  10.944  0.00  0.00    +0.000 A 
ATOM      8  C   UNL     1      45.198   3.654  12.131  0.00  0.00    +0.000 A 
BRANCH   6   9
ATOM      9  O   UNL     1      44.685   2.928   8.599  0.00  0.00    +0.000 OA
BRANCH   9  10
ATOM     10  C   UNL     1      45.704   2.601   7.741  0.00  0.00    +0.000 A 
ATOM     11  C   UNL     1      46.114   3.367   6.650  0.00  0.00    +0.000 A 
ATOM     12  C   UNL     1      47.116   2.886   5.811  0.00  0.00    +0.000 A 
ATOM     13  C   UNL     1      47.720   1.682   6.133  0.00  0.00    +0.000 A 
ATOM     14  N   UNL     1      47.403   0.951   7.224  0.00  0.00    +0.000 NA
ATOM     15  C   UNL     1      46.404   1.430   8.004  0.00  0.00    +0.000 A 
ENDBRANCH   9  10
ENDBRANCH   6   9
ENDBRANCH   2   3
BRANCH   2  16
ATOM     16  N   UNL     1      47.201   6.578  13.032  0.00  0.00    +0.000 N 
ATOM     17  C   UNL     1      47.139   7.942  13.076  0.00  0.00    +0.000 C 
ATOM     18  O   UNL     1      46.099   8.555  13.287  0.00  0.00    +0.000 OA
ATOM     19  H   UNL     1      48.114   6.141  12.991  0.00  0.00    +0.000 HD
BRANCH  17  20
ATOM     20  C   UNL     1      48.404   8.637  12.791  0.00  0.00    +0.000 A 
ATOM     21  C   UNL     1      48.456   9.617  11.810  0.00  0.00    +0.000 A 
ATOM     22  S   UNL     1      50.006  10.297  11.611  0.00  0.00    +0.000 S 
ATOM     23  C   UNL     1      50.653   9.335  12.858  0.00  0.00    +0.000 A 
ATOM     24  N   UNL     1      51.955   9.445  13.224  0.00  0.00    +0.000 NA
ATOM     25  C   UNL     1      52.308   8.675  14.203  0.00  0.00    +0.000 A 
ATOM     26  N   UNL     1      51.480   7.786  14.855  0.00  0.00    +0.000 N 
ATOM     27  C   UNL     1      51.984   6.961  15.934  0.00  0.00    +0.000 C 
ATOM     28  C   UNL     1      50.152   7.623  14.484  0.00  0.00    +0.000 A 
ATOM     29  O   UNL     1      49.419   6.786  15.005  0.00  0.00    +0.000 OA
ATOM     30  C   UNL     1      49.708   8.488  13.403  0.00  0.00    +0.000 A 
ENDBRANCH  17  20
ENDBRANCH   2  16
TORSDOF 5
ENDMDL
MODEL 3
REMARK VINA RESULT:    -7.641      1.646      2.093
REMARK INTER + INTRA:         -10.765
REMARK INTER:                  -9.621
REMARK INTRA:                  -1.144
REMARK UNBOUND:                -0.891
REMARK  Name = 
REMARK  7 active torsions:
REMARK  status: ('A' for Active; 'I' for Inactive)
REMARK    1  A    between atoms: C_1  and  C_2
REMARK    2  A    between atoms: C_2  and  N_3
REMARK    3  A    between atoms: C_2  and  C_17
REMARK    4  A    between atoms: C_4  and  C_6
REMARK    5  A    between atoms: N_12  and  C_13
REMARK    6  A    between atoms: C_20  and  O_21
REMARK    7  A    between atoms: O_21  and  C_22
REMARK                            x       y       z     vdW  Elec       q    Type
REMARK                         _______ _______ _______ _____ _____    ______ ____
ROOT
ATOM      1  C   UNL     1      47.631   8.826  13.893  0.00  0.00    +0.000 C 
ATOM      2  C   UNL     1      47.918   7.325  13.867  0.00  0.00    +0.000 C 
ENDROOT
BRANCH   2   3
ATOM      3  C   UNL     1      46.905   6.578  13.017  0.00  0.00    +0.000 A 
ATOM      4  C   UNL     1      46.256   7.245  11.972  0.00  0.00    +0.000 A 
ATOM      5  C   UNL     1      45.374   6.562  11.135  0.00  0.00    +0.000 A 
ATOM      6  C   UNL     1      45.185   5.185  11.286  0.00  0.00    +0.000 A 
ATOM      7  C   UNL     1      45.776   4.523  12.358  0.00  0.00    +0.000 A 
ATOM      8  C   UNL     1      46.625   5.214  13.224  0.00  0.00    +0.000 A 
BRANCH   6   9
ATOM      9  O   UNL     1      44.410   4.417  10.446  0.00  0.00    +0.000 OA
BRANCH   9  10
ATOM     10  C   UNL     1      45.012   3.695   9.446  0.00  0.00    +0.000 A 
ATOM     11  C   UNL     1      45.075   2.303   9.385  0.00  0.00    +0.000 A 
ATOM     12  C   UNL     1      45.782   1.692   8.352  0.00  0.00    +0.000 A 
ATOM     13  C   UNL     1      46.346   2.498   7.378  0.00  0.00    +0.000 A 
ATOM     14  N   UNL     1      46.241   3.844   7.362  0.00  0.00    +0.000 NA
ATOM     15  C   UNL     1      45.573   4.411   8.396  0.00  0.00    +0.000 A 
ENDBRANCH   9  10
ENDBRANCH   6   9
ENDBRANCH   2   3
BRANCH   2  16
ATOM     16  N   UNL     1      47.911   6.767  15.203  0.00  0.00    +0.000 N 
ATOM     17  C   UNL     1      49.033   6.516  15.940  0.00  0.00    +0.000 C 
ATOM     18  O   UNL     1      50.166   6.621  15.486  0.00  0.00    +0.000 OA
ATOM     19  H   UNL     1      47.019   6.795  15.682  0.00  0.00    +0.000 HD
BRANCH  17  20
ATOM     20  C   UNL     1      48.789   6.049  17.313  0.00  0.00    +0.000 A 
ATOM     21  C   UNL     1      49.084   4.740  17.668  0.00  0.00    +0.000 A 
ATOM     22  S   UNL     1      48.720   4.377  19.293  0.00  0.00    +0.000 S 
ATOM     23  C   UNL     1      48.193   5.969  19.592  0.00  0.00    +0.000 A 
ATOM     24  N   UNL     1      47.765   6.346  20.823  0.00  0.00    +0.000 NA
ATOM     25  C   UNL     1      47.420   7.589  20.918  0.00  0.00    +0.000 A 
ATOM     26  N   UNL     1      47.450   8.505  19.887  0.00  0.00    +0.000 N 
ATOM     27  C   UNL     1      47.028   9.875  20.101  0.00  0.00    +0.000 C 
ATOM     28  C   UNL     1      47.849   8.145  18.607  0.00  0.00    +0.000 A 
ATOM     29  O   UNL     1      47.815   8.928  17.660  0.00  0.00    +0.000 OA
ATOM     30  C   UNL     1      48.269   6.761  18.463  0.00  0.00    +0.000 A 
ENDBRANCH  17  20
ENDBRANCH   2  16
TORSDOF 5
ENDMDL
MODEL 4
REMARK VINA RESULT:    -7.249      2.986      3.929
REMARK INTER + INTRA:         -10.259
REMARK INTER:                 -10.049
REMARK INTRA:                  -0.210
REMARK UNBOUND:                -0.891
REMARK  Name = 
REMARK  7 active torsions:
REMARK  status: ('A' for Active; 'I' for Inactive)
REMARK    1  A    between atoms: C_1  and  C_2
REMARK    2  A    between atoms: C_2  and  N_3
REMARK    3  A    between atoms: C_2  and  C_17
REMARK    4  A    between atoms: C_4  and  C_6
REMARK    5  A    between atoms: N_12  and  C_13
REMARK    6  A    between atoms: C_20  and  O_21
REMARK    7  A    between atoms: O_21  and  C_22
REMARK                            x       y       z     vdW  Elec       q    Type
REMARK                         _______ _______ _______ _____ _____    ______ ____
ROOT
ATOM      1  C   UNL     1      46.845   4.435  14.532  0.00  0.00    +0.000 C 
ATOM      2  C   UNL     1      45.993   5.474  13.803  0.00  0.00    +0.000 C 
ENDROOT
BRANCH   2   3
ATOM      3  C   UNL     1      45.530   4.964  12.449  0.00  0.00    +0.000 A 
ATOM      4  C   UNL     1      45.586   5.812  11.337  0.00  0.00    +0.000 A 
ATOM      5  C   UNL     1      45.232   5.345  10.072  0.00  0.00    +0.000 A 
ATOM      6  C   UNL     1      44.888   4.003   9.888  0.00  0.00    +0.000 A 
ATOM      7  C   UNL     1      44.768   3.165  10.994  0.00  0.00    +0.000 A 
ATOM      8  C   UNL     1      45.080   3.643  12.268  0.00  0.00    +0.000 A 
BRANCH   6   9
ATOM      9  O   UNL     1      44.619   3.436   8.661  0.00  0.00    +0.000 OA
BRANCH   9  10
ATOM     10  C   UNL     1      45.627   2.807   7.976  0.00  0.00    +0.000 A 
ATOM     11  C   UNL     1      46.388   3.381   6.957  0.00  0.00    +0.000 A 
ATOM     12  C   UNL     1      47.335   2.610   6.289  0.00  0.00    +0.000 A 
ATOM     13  C   UNL     1      47.534   1.306   6.710  0.00  0.00    +0.000 A 
ATOM     14  N   UNL     1      46.871   0.740   7.742  0.00  0.00    +0.000 NA
ATOM     15  C   UNL     1      45.935   1.506   8.353  0.00  0.00    +0.000 A 
ENDBRANCH   9  10
ENDBRANCH   6   9
ENDBRANCH   2   3
BRANCH   2  16
ATOM     16  N   UNL     1      46.721   6.710  13.614  0.00  0.00    +0.000 N 
ATOM     17  C   UNL     1      48.008   6.786  13.161  0.00  0.00    +0.000 C 
ATOM     18  O   UNL     1      48.714   5.798  12.993  0.00  0.00    +0.000 OA
ATOM     19  H   UNL     1      46.157   7.550  13.596  0.00  0.00    +0.000 HD
BRANCH  17  20
ATOM     20  C   UNL     1      48.516   8.149  12.943  0.00  0.00    +0.000 A 
ATOM     21  C   UNL     1      48.778   8.599  11.657  0.00  0.00    +0.000 A 
ATOM     22  S   UNL     1      49.373  10.195  11.602  0.00  0.00    +0.000 S 
ATOM     23  C   UNL     1      49.262  10.356  13.294  0.00  0.00    +0.000 A 
ATOM     24  N   UNL     1      49.601  11.516  13.911  0.00  0.00    +0.000 NA
ATOM     25  C   UNL     1      49.444  11.511  15.196  0.00  0.00    +0.000 A 
ATOM     26  N   UNL     1      48.985  10.443  15.937  0.00  0.00    +0.000 N 
ATOM     27  C   UNL     1      48.859  10.542  17.378  0.00  0.00    +0.000 C 
ATOM     28  C   UNL     1      48.663   9.230  15.343  0.00  0.00    +0.000 A 
ATOM     29  O   UNL     1      48.322   8.246  15.994  0.00  0.00    +0.000 OA
ATOM     30  C   UNL     1      48.803   9.201  13.896  0.00  0.00    +0.000 A 
ENDBRANCH  17  20
ENDBRANCH   2  16
TORSDOF 5
ENDMDL
MODEL 5
REMARK VINA RESULT:    -7.150      1.968      2.955
REMARK INTER + INTRA:         -10.132
REMARK INTER:                  -8.855
REMARK INTRA:                  -1.276
REMARK UNBOUND:                -0.891
REMARK  Name = 
REMARK  7 active torsions:
REMARK  status: ('A' for Active; 'I' for Inactive)
REMARK    1  A    between atoms: C_1  and  C_2
REMARK    2  A    between atoms: C_2  and  N_3
REMARK    3  A    between atoms: C_2  and  C_17
REMARK    4  A    between atoms: C_4  and  C_6
REMARK    5  A    between atoms: N_12  and  C_13
REMARK    6  A    between atoms: C_20  and  O_21
REMARK    7  A    between atoms: O_21  and  C_22
REMARK                            x       y       z     vdW  Elec       q    Type
REMARK                         _______ _______ _______ _____ _____    ______ ____
ROOT
ATOM      1  C   UNL     1      47.831   9.782  13.263  0.00  0.00    +0.000 C 
ATOM      2  C   UNL     1      48.112   8.284  13.380  0.00  0.00    +0.000 C 
ENDROOT
BRANCH   2   3
ATOM      3  C   UNL     1      46.981   7.457  12.794  0.00  0.00    +0.000 A 
ATOM      4  C   UNL     1      45.967   8.091  12.067  0.00  0.00    +0.000 A 
ATOM      5  C   UNL     1      44.957   7.346  11.461  0.00  0.00    +0.000 A 
ATOM      6  C   UNL     1      44.987   5.950  11.511  0.00  0.00    +0.000 A 
ATOM      7  C   UNL     1      45.954   5.309  12.281  0.00  0.00    +0.000 A 
ATOM      8  C   UNL     1      46.942   6.056  12.925  0.00  0.00    +0.000 A 
BRANCH   6   9
ATOM      9  O   UNL     1      44.086   5.135  10.861  0.00  0.00    +0.000 OA
BRANCH   9  10
ATOM     10  C   UNL     1      44.543   4.231   9.935  0.00  0.00    +0.000 A 
ATOM     11  C   UNL     1      45.324   4.544   8.822  0.00  0.00    +0.000 A 
ATOM     12  C   UNL     1      45.661   3.542   7.916  0.00  0.00    +0.000 A 
ATOM     13  C   UNL     1      45.260   2.246   8.192  0.00  0.00    +0.000 A 
ATOM     14  N   UNL     1      44.569   1.893   9.297  0.00  0.00    +0.000 NA
ATOM     15  C   UNL     1      44.230   2.894  10.145  0.00  0.00    +0.000 A 
ENDBRANCH   9  10
ENDBRANCH   6   9
ENDBRANCH   2   3
BRANCH   2  16
ATOM     16  N   UNL     1      48.311   7.895  14.760  0.00  0.00    +0.000 N 
ATOM     17  C   UNL     1      49.533   7.773  15.359  0.00  0.00    +0.000 C 
ATOM     18  O   UNL     1      50.588   7.859  14.743  0.00  0.00    +0.000 OA
ATOM     19  H   UNL     1      47.491   7.951  15.351  0.00  0.00    +0.000 HD
BRANCH  17  20
ATOM     20  C   UNL     1      49.496   7.470  16.798  0.00  0.00    +0.000 A 
ATOM     21  C   UNL     1      49.934   8.410  17.721  0.00  0.00    +0.000 A 
ATOM     22  S   UNL     1      49.831   7.876  19.336  0.00  0.00    +0.000 S 
ATOM     23  C   UNL     1      49.160   6.385  18.862  0.00  0.00    +0.000 A 
ATOM     24  N   UNL     1      48.805   5.452  19.782  0.00  0.00    +0.000 NA
ATOM     25  C   UNL     1      48.282   4.377  19.287  0.00  0.00    +0.000 A 
ATOM     26  N   UNL     1      48.085   4.132  17.944  0.00  0.00    +0.000 N 
ATOM     27  C   UNL     1      47.500   2.884  17.498  0.00  0.00    +0.000 C 
ATOM     28  C   UNL     1      48.468   5.049  16.975  0.00  0.00    +0.000 A 
ATOM     29  O   UNL     1      48.366   4.819  15.772  0.00  0.00    +0.000 OA
ATOM     30  C   UNL     1      49.038   6.283  17.490  0.00  0.00    +0.000 A 
ENDBRANCH  17  20
ENDBRANCH   2  16
TORSDOF 5
ENDMDL
MODEL 6
REMARK VINA RESULT:    -7.125      2.369      9.357
REMARK INTER + INTRA:         -10.099
REMARK INTER:                  -8.971
REMARK INTRA:                  -1.128
REMARK UNBOUND:                -0.891
REMARK  Name = 
REMARK  7 active torsions:
REMARK  status: ('A' for Active; 'I' for Inactive)
REMARK    1  A    between atoms: C_1  and  C_2
REMARK    2  A    between atoms: C_2  and  N_3
REMARK    3  A    between atoms: C_2  and  C_17
REMARK    4  A    between atoms: C_4  and  C_6
REMARK    5  A    between atoms: N_12  and  C_13
REMARK    6  A    between atoms: C_20  and  O_21
REMARK    7  A    between atoms: O_21  and  C_22
REMARK                            x       y       z     vdW  Elec       q    Type
REMARK                         _______ _______ _______ _____ _____    ______ ____
ROOT
ATOM      1  C   UNL     1      48.672   7.723  11.384  0.00  0.00    +0.000 C 
ATOM      2  C   UNL     1      47.457   7.667  12.309  0.00  0.00    +0.000 C 
ENDROOT
BRANCH   2   3
ATOM      3  C   UNL     1      47.866   7.712  13.770  0.00  0.00    +0.000 A 
ATOM      4  C   UNL     1      48.264   6.534  14.413  0.00  0.00    +0.000 A 
ATOM      5  C   UNL     1      48.709   6.563  15.734  0.00  0.00    +0.000 A 
ATOM      6  C   UNL     1      48.834   7.781  16.407  0.00  0.00    +0.000 A 
ATOM      7  C   UNL     1      48.385   8.952  15.802  0.00  0.00    +0.000 A 
ATOM      8  C   UNL     1      47.897   8.919  14.494  0.00  0.00    +0.000 A 
BRANCH   6   9
ATOM      9  O   UNL     1      49.356   7.912  17.676  0.00  0.00    +0.000 OA
BRANCH   9  10
ATOM     10  C   UNL     1      49.001   7.007  18.645  0.00  0.00    +0.000 A 
ATOM     11  C   UNL     1      47.731   6.889  19.209  0.00  0.00    +0.000 A 
ATOM     12  C   UNL     1      47.520   5.976  20.239  0.00  0.00    +0.000 A 
ATOM     13  C   UNL     1      48.574   5.164  20.623  0.00  0.00    +0.000 A 
ATOM     14  N   UNL     1      49.796   5.197  20.048  0.00  0.00    +0.000 NA
ATOM     15  C   UNL     1      49.979   6.116  19.069  0.00  0.00    +0.000 A 
ENDBRANCH   9  10
ENDBRANCH   6   9
ENDBRANCH   2   3
BRANCH   2  16
ATOM     16  N   UNL     1      46.678   6.469  12.077  0.00  0.00    +0.000 N 
ATOM     17  C   UNL     1      45.348   6.461  11.766  0.00  0.00    +0.000 C 
ATOM     18  O   UNL     1      44.655   7.471  11.779  0.00  0.00    +0.000 OA
ATOM     19  H   UNL     1      47.214   5.626  11.910  0.00  0.00    +0.000 HD
BRANCH  17  20
ATOM     20  C   UNL     1      44.782   5.136  11.468  0.00  0.00    +0.000 A 
ATOM     21  C   UNL     1      43.949   4.511  12.384  0.00  0.00    +0.000 A 
ATOM     22  S   UNL     1      43.404   2.979  11.873  0.00  0.00    +0.000 S 
ATOM     23  C   UNL     1      44.229   3.115  10.390  0.00  0.00    +0.000 A 
ATOM     24  N   UNL     1      44.157   2.134   9.455  0.00  0.00    +0.000 NA
ATOM     25  C   UNL     1      44.809   2.378   8.364  0.00  0.00    +0.000 A 
ATOM     26  N   UNL     1      45.546   3.517   8.115  0.00  0.00    +0.000 N 
ATOM     27  C   UNL     1      46.250   3.682   6.859  0.00  0.00    +0.000 C 
ATOM     28  C   UNL     1      45.671   4.524   9.062  0.00  0.00    +0.000 A 
ATOM     29  O   UNL     1      46.380   5.511   8.887  0.00  0.00    +0.000 OA
ATOM     30  C   UNL     1      44.932   4.300  10.295  0.00  0.00    +0.000 A 
ENDBRANCH  17  20
ENDBRANCH   2  16
TORSDOF 5
ENDMDL
MODEL 7
REMARK VINA RESULT:    -6.649      3.084      4.514
REMARK INTER + INTRA:          -9.483
REMARK INTER:                  -8.336
REMARK INTRA:                  -1.148
REMARK UNBOUND:                -0.891
REMARK  Name = 
REMARK  7 active torsions:
REMARK  status: ('A' for Active; 'I' for Inactive)
REMARK    1  A    between atoms: C_1  and  C_2
REMARK    2  A    between atoms: C_2  and  N_3
REMARK    3  A    between atoms: C_2  and  C_17
REMARK    4  A    between atoms: C_4  and  C_6
REMARK    5  A    between atoms: N_12  and  C_13
REMARK    6  A    between atoms: C_20  and  O_21
REMARK    7  A    between atoms: O_21  and  C_22
REMARK                            x       y       z     vdW  Elec       q    Type
REMARK                         _______ _______ _______ _____ _____    ______ ____
ROOT
ATOM      1  C   UNL     1      47.366   3.713  16.212  0.00  0.00    +0.000 C 
ATOM      2  C   UNL     1      47.164   5.010  15.428  0.00  0.00    +0.000 C 
ENDROOT
BRANCH   2   3
ATOM      3  C   UNL     1      46.548   4.746  14.065  0.00  0.00    +0.000 A 
ATOM      4  C   UNL     1      46.445   3.432  13.597  0.00  0.00    +0.000 A 
ATOM      5  C   UNL     1      45.821   3.160  12.380  0.00  0.00    +0.000 A 
ATOM      6  C   UNL     1      45.225   4.191  11.650  0.00  0.00    +0.000 A 
ATOM      7  C   UNL     1      45.373   5.509  12.073  0.00  0.00    +0.000 A 
ATOM      8  C   UNL     1      46.036   5.788  13.269  0.00  0.00    +0.000 A 
BRANCH   6   9
ATOM      9  O   UNL     1      44.506   4.000  10.490  0.00  0.00    +0.000 OA
BRANCH   9  10
ATOM     10  C   UNL     1      45.142   3.508   9.378  0.00  0.00    +0.000 A 
ATOM     11  C   UNL     1      45.292   2.156   9.070  0.00  0.00    +0.000 A 
ATOM     12  C   UNL     1      46.025   1.786   7.945  0.00  0.00    +0.000 A 
ATOM     13  C   UNL     1      46.525   2.786   7.129  0.00  0.00    +0.000 A 
ATOM     14  N   UNL     1      46.334   4.105   7.354  0.00  0.00    +0.000 NA
ATOM     15  C   UNL     1      45.643   4.433   8.472  0.00  0.00    +0.000 A 
ENDBRANCH   9  10
ENDBRANCH   6   9
ENDBRANCH   2   3
BRANCH   2  16
ATOM     16  N   UNL     1      48.416   5.713  15.248  0.00  0.00    +0.000 N 
ATOM     17  C   UNL     1      49.037   6.445  16.221  0.00  0.00    +0.000 C 
ATOM     18  O   UNL     1      48.522   6.681  17.307  0.00  0.00    +0.000 OA
ATOM     19  H   UNL     1      48.955   5.443  14.435  0.00  0.00    +0.000 HD
BRANCH  17  20
ATOM     20  C   UNL     1      50.354   6.987  15.852  0.00  0.00    +0.000 A 
ATOM     21  C   UNL     1      51.461   6.735  16.650  0.00  0.00    +0.000 A 
ATOM     22  S   UNL     1      52.893   7.456  16.073  0.00  0.00    +0.000 S 
ATOM     23  C   UNL     1      52.093   8.096  14.713  0.00  0.00    +0.000 A 
ATOM     24  N   UNL     1      52.765   8.814  13.778  0.00  0.00    +0.000 NA
ATOM     25  C   UNL     1      52.042   9.218  12.784  0.00  0.00    +0.000 A 
ATOM     26  N   UNL     1      50.692   8.980  12.633  0.00  0.00    +0.000 N 
ATOM     27  C   UNL     1      49.974   9.492  11.482  0.00  0.00    +0.000 C 
ATOM     28  C   UNL     1      49.966   8.280  13.587  0.00  0.00    +0.000 A 
ATOM     29  O   UNL     1      48.750   8.120  13.507  0.00  0.00    +0.000 OA
ATOM     30  C   UNL     1      50.747   7.787  14.710  0.00  0.00    +0.000 A 
ENDBRANCH  17  20
ENDBRANCH   2  16
TORSDOF 5
ENDMDL
MODEL 8
REMARK VINA RESULT:    -6.638      3.016      4.253
REMARK INTER + INTRA:          -9.470
REMARK INTER:                  -8.091
REMARK INTRA:                  -1.379
REMARK UNBOUND:                -0.891
REMARK  Name = 
REMARK  7 active torsions:
REMARK  status: ('A' for Active; 'I' for Inactive)
REMARK    1  A    between atoms: C_1  and  C_2
REMARK    2  A    between atoms: C_2  and  N_3
REMARK    3  A    between atoms: C_2  and  C_17
REMARK    4  A    between atoms: C_4  and  C_6
REMARK    5  A    between atoms: N_12  and  C_13
REMARK    6  A    between atoms: C_20  and  O_21
REMARK    7  A    between atoms: O_21  and  C_22
REMARK                            x       y       z     vdW  Elec       q    Type
REMARK                         _______ _______ _______ _____ _____    ______ ____
ROOT
ATOM      1  C   UNL     1      49.078  10.424  13.909  0.00  0.00    +0.000 C 
ATOM      2  C   UNL     1      49.112   8.905  13.744  0.00  0.00    +0.000 C 
ENDROOT
BRANCH   2   3
ATOM      3  C   UNL     1      47.866   8.393  13.041  0.00  0.00    +0.000 A 
ATOM      4  C   UNL     1      47.848   7.090  12.530  0.00  0.00    +0.000 A 
ATOM      5  C   UNL     1      46.694   6.576  11.942  0.00  0.00    +0.000 A 
ATOM      6  C   UNL     1      45.518   7.330  11.924  0.00  0.00    +0.000 A 
ATOM      7  C   UNL     1      45.538   8.649  12.372  0.00  0.00    +0.000 A 
ATOM      8  C   UNL     1      46.706   9.181  12.921  0.00  0.00    +0.000 A 
BRANCH   6   9
ATOM      9  O   UNL     1      44.310   6.865  11.452  0.00  0.00    +0.000 OA
BRANCH   9  10
ATOM     10  C   UNL     1      43.984   5.543  11.625  0.00  0.00    +0.000 A 
ATOM     11  C   UNL     1      43.694   4.940  12.849  0.00  0.00    +0.000 A 
ATOM     12  C   UNL     1      43.450   3.570  12.899  0.00  0.00    +0.000 A 
ATOM     13  C   UNL     1      43.438   2.862  11.709  0.00  0.00    +0.000 A 
ATOM     14  N   UNL     1      43.638   3.426  10.498  0.00  0.00    +0.000 NA
ATOM     15  C   UNL     1      43.903   4.755  10.485  0.00  0.00    +0.000 A 
ENDBRANCH   9  10
ENDBRANCH   6   9
ENDBRANCH   2   3
BRANCH   2  16
ATOM     16  N   UNL     1      49.233   8.242  15.025  0.00  0.00    +0.000 N 
ATOM     17  C   UNL     1      50.405   7.766  15.540  0.00  0.00    +0.000 C 
ATOM     18  O   UNL     1      51.452   7.743  14.903  0.00  0.00    +0.000 OA
ATOM     19  H   UNL     1      48.446   8.358  15.652  0.00  0.00    +0.000 HD
BRANCH  17  20
ATOM     20  C   UNL     1      50.315   7.223  16.904  0.00  0.00    +0.000 A 
ATOM     21  C   UNL     1      51.020   7.819  17.940  0.00  0.00    +0.000 A 
ATOM     22  S   UNL     1      50.805   7.044  19.443  0.00  0.00    +0.000 S 
ATOM     23  C   UNL     1      49.729   5.909  18.769  0.00  0.00    +0.000 A 
ATOM     24  N   UNL     1      49.145   4.955  19.538  0.00  0.00    +0.000 NA
ATOM     25  C   UNL     1      48.329   4.176  18.905  0.00  0.00    +0.000 A 
ATOM     26  N   UNL     1      48.042   4.248  17.558  0.00  0.00    +0.000 N 
ATOM     27  C   UNL     1      47.118   3.313  16.947  0.00  0.00    +0.000 C 
ATOM     28  C   UNL     1      48.648   5.188  16.736  0.00  0.00    +0.000 A 
ATOM     29  O   UNL     1      48.460   5.222  15.522  0.00  0.00    +0.000 OA
ATOM     30  C   UNL     1      49.555   6.101  17.413  0.00  0.00    +0.000 A 
ENDBRANCH  17  20
ENDBRANCH   2  16
TORSDOF 5
ENDMDL
MODEL 9
REMARK VINA RESULT:    -6.343      2.720      3.985
REMARK INTER + INTRA:          -9.088
REMARK INTER:                  -8.018
REMARK INTRA:                  -1.069
REMARK UNBOUND:                -0.891
REMARK  Name = 
REMARK  7 active torsions:
REMARK  status: ('A' for Active; 'I' for Inactive)
REMARK    1  A    between atoms: C_1  and  C_2
REMARK    2  A    between atoms: C_2  and  N_3
REMARK    3  A    between atoms: C_2  and  C_17
REMARK    4  A    between atoms: C_4  and  C_6
REMARK    5  A    between atoms: N_12  and  C_13
REMARK    6  A    between atoms: C_20  and  O_21
REMARK    7  A    between atoms: O_21  and  C_22
REMARK                            x       y       z     vdW  Elec       q    Type
REMARK                         _______ _______ _______ _____ _____    ______ ____
ROOT
ATOM      1  C   UNL     1      47.946   3.073  15.875  0.00  0.00    +0.000 C 
ATOM      2  C   UNL     1      47.200   4.405  15.786  0.00  0.00    +0.000 C 
ENDROOT
BRANCH   2   3
ATOM      3  C   UNL     1      46.762   4.703  14.363  0.00  0.00    +0.000 A 
ATOM      4  C   UNL     1      45.769   3.916  13.767  0.00  0.00    +0.000 A 
ATOM      5  C   UNL     1      45.302   4.214  12.488  0.00  0.00    +0.000 A 
ATOM      6  C   UNL     1      45.766   5.348  11.815  0.00  0.00    +0.000 A 
ATOM      7  C   UNL     1      46.797   6.103  12.369  0.00  0.00    +0.000 A 
ATOM      8  C   UNL     1      47.297   5.780  13.632  0.00  0.00    +0.000 A 
BRANCH   6   9
ATOM      9  O   UNL     1      45.290   5.769  10.593  0.00  0.00    +0.000 OA
BRANCH   9  10
ATOM     10  C   UNL     1      45.338   4.914   9.521  0.00  0.00    +0.000 A 
ATOM     11  C   UNL     1      44.455   3.858   9.294  0.00  0.00    +0.000 A 
ATOM     12  C   UNL     1      44.657   3.017   8.203  0.00  0.00    +0.000 A 
ATOM     13  C   UNL     1      45.701   3.302   7.339  0.00  0.00    +0.000 A 
ATOM     14  N   UNL     1      46.529   4.359   7.484  0.00  0.00    +0.000 NA
ATOM     15  C   UNL     1      46.325   5.143   8.571  0.00  0.00    +0.000 A 
ENDBRANCH   9  10
ENDBRANCH   6   9
ENDBRANCH   2   3
BRANCH   2  16
ATOM     16  N   UNL     1      48.021   5.497  16.262  0.00  0.00    +0.000 N 
ATOM     17  C   UNL     1      48.088   5.902  17.565  0.00  0.00    +0.000 C 
ATOM     18  O   UNL     1      47.353   5.456  18.439  0.00  0.00    +0.000 OA
ATOM     19  H   UNL     1      48.748   5.805  15.627  0.00  0.00    +0.000 HD
BRANCH  17  20
ATOM     20  C   UNL     1      49.068   6.963  17.842  0.00  0.00    +0.000 A 
ATOM     21  C   UNL     1      48.641   8.216  18.260  0.00  0.00    +0.000 A 
ATOM     22  S   UNL     1      49.916   9.318  18.516  0.00  0.00    +0.000 S 
ATOM     23  C   UNL     1      51.086   8.147  18.119  0.00  0.00    +0.000 A 
ATOM     24  N   UNL     1      52.411   8.437  18.164  0.00  0.00    +0.000 NA
ATOM     25  C   UNL     1      53.191   7.449  17.864  0.00  0.00    +0.000 A 
ATOM     26  N   UNL     1      52.773   6.184  17.508  0.00  0.00    +0.000 N 
ATOM     27  C   UNL     1      53.736   5.152  17.178  0.00  0.00    +0.000 C 
ATOM     28  C   UNL     1      51.425   5.863  17.417  0.00  0.00    +0.000 A 
ATOM     29  O   UNL     1      51.033   4.764  17.032  0.00  0.00    +0.000 OA
ATOM     30  C   UNL     1      50.514   6.940  17.770  0.00  0.00    +0.000 A 
ENDBRANCH  17  20
ENDBRANCH   2  16
TORSDOF 5
ENDMDL
