MODEL 1
REMARK VINA RESULT:    -8.196      0.000      0.000
REMARK INTER + INTRA:         -13.292
REMARK INTER:                 -12.029
REMARK INTRA:                  -1.263
REMARK UNBOUND:                -1.263
REMARK  Name = 
REMARK  9 active torsions:
REMARK  status: ('A' for Active; 'I' for Inactive)
REMARK    1  A    between atoms: C_1  and  O_2
REMARK    2  A    between atoms: O_2  and  C_3
REMARK    3  A    between atoms: C_10  and  C_11
REMARK    4  A    between atoms: N_13  and  C_14
REMARK    5  A    between atoms: C_14  and  C_15
REMARK    6  A    between atoms: C_18  and  C_19
REMARK    7  A    between atoms: C_19  and  O_20
REMARK    8  A    between atoms: O_20  and  C_21
REMARK    9  A    between atoms: C_21  and  C_22
REMARK                            x       y       z     vdW  Elec       q    Type
REMARK                         _______ _______ _______ _____ _____    ______ ____
ROOT
ATOM      1  C   UNL     1      47.879   7.098  13.222  0.00  0.00    +0.000 C 
ENDROOT
BRANCH   1   2
ATOM      2  C   UNL     1      46.797   6.206  12.660  0.00  0.00    +0.000 A 
ATOM      3  C   UNL     1      46.386   6.355  11.339  0.00  0.00    +0.000 A 
ATOM      4  C   UNL     1      45.368   5.540  10.849  0.00  0.00    +0.000 A 
ATOM      5  C   UNL     1      44.779   4.588  11.682  0.00  0.00    +0.000 A 
ATOM      6  C   UNL     1      45.268   4.497  12.982  0.00  0.00    +0.000 A 
ATOM      7  N   UNL     1      46.264   5.267  13.484  0.00  0.00    +0.000 NA
BRANCH   5   8
ATOM      8  C   UNL     1      43.676   3.683  11.210  0.00  0.00    +0.000 C 
BRANCH   8   9
ATOM      9  O   UNL     1      43.839   3.445   9.814  0.00  0.00    +0.000 OA
BRANCH   9  10
ATOM     10  C   UNL     1      44.457   2.185   9.548  0.00  0.00    +0.000 C 
BRANCH  10  11
ATOM     11  C   UNL     1      45.481   2.322   8.445  0.00  0.00    +0.000 A 
ATOM     12  C   UNL     1      45.667   3.536   7.768  0.00  0.00    +0.000 A 
ATOM     13  C   UNL     1      46.649   3.665   6.783  0.00  0.00    +0.000 A 
ATOM     14  C   UNL     1      47.469   2.584   6.472  0.00  0.00    +0.000 A 
ATOM     15  C   UNL     1      47.306   1.374   7.141  0.00  0.00    +0.000 A 
ATOM     16  C   UNL     1      46.321   1.243   8.124  0.00  0.00    +0.000 A 
ENDBRANCH  10  11
ENDBRANCH   9  10
ENDBRANCH   8   9
ENDBRANCH   5   8
ENDBRANCH   1   2
BRANCH   1  19
ATOM     17  C   UNL     1      49.040   7.009  15.403  0.00  0.00    +0.000 C 
ATOM     18  O   UNL     1      50.143   6.921  14.862  0.00  0.00    +0.000 OA
ATOM     19  N   UNL     1      47.893   7.096  14.668  0.00  0.00    +0.000 N 
ATOM     20  H   UNL     1      46.995   6.977  15.119  0.00  0.00    +0.000 HD
BRANCH  17  28
ATOM     21  C   UNL     1      48.878   4.557  17.805  0.00  0.00    +0.000 A 
ATOM     22  N   UNL     1      48.767   3.817  18.927  0.00  0.00    +0.000 NA
ATOM     23  C   UNL     1      48.600   4.456  20.088  0.00  0.00    +0.000 A 
ATOM     24  N   UNL     1      48.532   5.769  20.276  0.00  0.00    +0.000 NA
ATOM     25  C   UNL     1      48.655   6.472  19.134  0.00  0.00    +0.000 A 
ATOM     26  S   UNL     1      48.594   8.167  19.184  0.00  0.00    +0.000 S 
ATOM     27  C   UNL     1      48.793   8.273  17.499  0.00  0.00    +0.000 A 
ATOM     28  C   UNL     1      48.908   7.039  16.868  0.00  0.00    +0.000 A 
ATOM     29  C   UNL     1      48.836   5.962  17.851  0.00  0.00    +0.000 A 
BRANCH  21  31
ATOM     30  C   UNL     1      47.980   3.093  16.227  0.00  0.00    +0.000 C 
ATOM     31  O   UNL     1      49.093   3.893  16.617  0.00  0.00    +0.000 OA
ENDBRANCH  21  31
ENDBRANCH  17  28
ENDBRANCH   1  19
TORSDOF 8
ENDMDL
MODEL 2
REMARK VINA RESULT:    -7.924      1.824      2.530
REMARK INTER + INTRA:         -12.893
REMARK INTER:                 -11.753
REMARK INTRA:                  -1.139
REMARK UNBOUND:                -1.263
REMARK  Name = 
REMARK  9 active torsions:
REMARK  status: ('A' for Active; 'I' for Inactive)
REMARK    1  A    between atoms: C_1  and  O_2
REMARK    2  A    between atoms: O_2  and  C_3
REMARK    3  A    between atoms: C_10  and  C_11
REMARK    4  A    between atoms: N_13  and  C_14
REMARK    5  A    between atoms: C_14  and  C_15
REMARK    6  A    between atoms: C_18  and  C_19
REMARK    7  A    between atoms: C_19  and  O_20
REMARK    8  A    between atoms: O_20  and  C_21
REMARK    9  A    between atoms: C_21  and  C_22
REMARK                            x       y       z     vdW  Elec       q    Type
REMARK                         _______ _______ _______ _____ _____    ______ ____
ROOT
ATOM      1  C   UNL     1      47.522   3.259  14.958  0.00  0.00    +0.000 C 
ENDROOT
BRANCH   1   2
ATOM      2  C   UNL     1      46.823   3.892  13.777  0.00  0.00    +0.000 A 
ATOM      3  C   UNL     1      47.129   5.197  13.403  0.00  0.00    +0.000 A 
ATOM      4  C   UNL     1      46.454   5.770  12.327  0.00  0.00    +0.000 A 
ATOM      5  C   UNL     1      45.488   5.033  11.641  0.00  0.00    +0.000 A 
ATOM      6  C   UNL     1      45.263   3.730  12.073  0.00  0.00    +0.000 A 
ATOM      7  N   UNL     1      45.911   3.140  13.108  0.00  0.00    +0.000 NA
BRANCH   5   8
ATOM      8  C   UNL     1      44.726   5.600  10.475  0.00  0.00    +0.000 C 
BRANCH   8   9
ATOM      9  O   UNL     1      45.329   5.149   9.265  0.00  0.00    +0.000 OA
BRANCH   9  10
ATOM     10  C   UNL     1      44.637   4.035   8.698  0.00  0.00    +0.000 C 
BRANCH  10  11
ATOM     11  C   UNL     1      45.607   3.110   8.001  0.00  0.00    +0.000 A 
ATOM     12  C   UNL     1      46.429   3.564   6.960  0.00  0.00    +0.000 A 
ATOM     13  C   UNL     1      47.356   2.712   6.354  0.00  0.00    +0.000 A 
ATOM     14  C   UNL     1      47.483   1.397   6.792  0.00  0.00    +0.000 A 
ATOM     15  C   UNL     1      46.682   0.931   7.831  0.00  0.00    +0.000 A 
ATOM     16  C   UNL     1      45.752   1.781   8.435  0.00  0.00    +0.000 A 
ENDBRANCH  10  11
ENDBRANCH   9  10
ENDBRANCH   8   9
ENDBRANCH   5   8
ENDBRANCH   1   2
BRANCH   1  19
ATOM     17  C   UNL     1      47.402   4.160  17.256  0.00  0.00    +0.000 C 
ATOM     18  O   UNL     1      46.652   3.255  17.620  0.00  0.00    +0.000 OA
ATOM     19  N   UNL     1      47.864   4.229  15.973  0.00  0.00    +0.000 N 
ATOM     20  H   UNL     1      48.319   5.071  15.645  0.00  0.00    +0.000 HD
BRANCH  17  28
ATOM     21  C   UNL     1      50.491   5.413  18.088  0.00  0.00    +0.000 A 
ATOM     22  N   UNL     1      51.555   6.056  18.612  0.00  0.00    +0.000 NA
ATOM     23  C   UNL     1      51.334   6.968  19.563  0.00  0.00    +0.000 A 
ATOM     24  N   UNL     1      50.159   7.328  20.068  0.00  0.00    +0.000 NA
ATOM     25  C   UNL     1      49.123   6.670  19.514  0.00  0.00    +0.000 A 
ATOM     26  S   UNL     1      47.544   7.005  20.036  0.00  0.00    +0.000 S 
ATOM     27  C   UNL     1      46.893   5.860  18.961  0.00  0.00    +0.000 A 
ATOM     28  C   UNL     1      47.849   5.205  18.192  0.00  0.00    +0.000 A 
ATOM     29  C   UNL     1      49.183   5.700  18.518  0.00  0.00    +0.000 A 
BRANCH  21  31
ATOM     30  C   UNL     1      51.023   3.202  17.569  0.00  0.00    +0.000 C 
ATOM     31  O   UNL     1      50.723   4.506  17.078  0.00  0.00    +0.000 OA
ENDBRANCH  21  31
ENDBRANCH  17  28
ENDBRANCH   1  19
TORSDOF 8
ENDMDL
MODEL 3
REMARK VINA RESULT:    -7.904      1.654      3.117
REMARK INTER + INTRA:         -12.863
REMARK INTER:                 -11.492
REMARK INTRA:                  -1.371
REMARK UNBOUND:                -1.263
REMARK  Name = 
REMARK  9 active torsions:
REMARK  status: ('A' for Active; 'I' for Inactive)
REMARK    1  A    between atoms: C_1  and  O_2
REMARK    2  A    between atoms: O_2  and  C_3
REMARK    3  A    between atoms: C_10  and  C_11
REMARK    4  A    between atoms: N_13  and  C_14
REMARK    5  A    between atoms: C_14  and  C_15
REMARK    6  A    between atoms: C_18  and  C_19
REMARK    7  A    between atoms: C_19  and  O_20
REMARK    8  A    between atoms: O_20  and  C_21
REMARK    9  A    between atoms: C_21  and  C_22
REMARK                            x       y       z     vdW  Elec       q    Type
REMARK                         _______ _______ _______ _____ _____    ______ ____
ROOT
ATOM      1  C   UNL     1      47.423   3.971  14.899  0.00  0.00    +0.000 C 
ENDROOT
BRANCH   1   2
ATOM      2  C   UNL     1      46.460   4.205  13.759  0.00  0.00    +0.000 A 
ATOM      3  C   UNL     1      46.083   5.501  13.418  0.00  0.00    +0.000 A 
ATOM      4  C   UNL     1      45.172   5.692  12.381  0.00  0.00    +0.000 A 
ATOM      5  C   UNL     1      44.656   4.590  11.699  0.00  0.00    +0.000 A 
ATOM      6  C   UNL     1      45.105   3.334  12.096  0.00  0.00    +0.000 A 
ATOM      7  N   UNL     1      45.998   3.116  13.092  0.00  0.00    +0.000 NA
BRANCH   5   8
ATOM      8  C   UNL     1      43.669   4.735  10.573  0.00  0.00    +0.000 C 
BRANCH   8   9
ATOM      9  O   UNL     1      43.986   3.789   9.556  0.00  0.00    +0.000 OA
BRANCH   9  10
ATOM     10  C   UNL     1      44.851   4.334   8.559  0.00  0.00    +0.000 C 
BRANCH  10  11
ATOM     11  C   UNL     1      45.727   3.252   7.971  0.00  0.00    +0.000 A 
ATOM     12  C   UNL     1      45.725   1.949   8.490  0.00  0.00    +0.000 A 
ATOM     13  C   UNL     1      46.503   0.945   7.910  0.00  0.00    +0.000 A 
ATOM     14  C   UNL     1      47.284   1.227   6.792  0.00  0.00    +0.000 A 
ATOM     15  C   UNL     1      47.292   2.513   6.257  0.00  0.00    +0.000 A 
ATOM     16  C   UNL     1      46.516   3.519   6.839  0.00  0.00    +0.000 A 
ENDBRANCH  10  11
ENDBRANCH   9  10
ENDBRANCH   8   9
ENDBRANCH   5   8
ENDBRANCH   1   2
BRANCH   1  19
ATOM     17  C   UNL     1      48.542   5.250  16.694  0.00  0.00    +0.000 C 
ATOM     18  O   UNL     1      49.327   4.330  16.922  0.00  0.00    +0.000 OA
ATOM     19  N   UNL     1      47.586   5.146  15.726  0.00  0.00    +0.000 N 
ATOM     20  H   UNL     1      46.838   5.826  15.680  0.00  0.00    +0.000 HD
BRANCH  17  28
ATOM     21  C   UNL     1      48.655   8.552  15.749  0.00  0.00    +0.000 A 
ATOM     22  N   UNL     1      48.733   9.896  15.662  0.00  0.00    +0.000 NA
ATOM     23  C   UNL     1      48.830  10.595  16.795  0.00  0.00    +0.000 A 
ATOM     24  N   UNL     1      48.859  10.113  18.033  0.00  0.00    +0.000 NA
ATOM     25  C   UNL     1      48.770   8.771  18.078  0.00  0.00    +0.000 A 
ATOM     26  S   UNL     1      48.787   7.981  19.579  0.00  0.00    +0.000 S 
ATOM     27  C   UNL     1      48.663   6.458  18.835  0.00  0.00    +0.000 A 
ATOM     28  C   UNL     1      48.607   6.513  17.447  0.00  0.00    +0.000 A 
ATOM     29  C   UNL     1      48.660   7.901  16.997  0.00  0.00    +0.000 A 
BRANCH  21  31
ATOM     30  C   UNL     1      49.758   7.559  13.950  0.00  0.00    +0.000 C 
ATOM     31  O   UNL     1      48.510   7.840  14.579  0.00  0.00    +0.000 OA
ENDBRANCH  21  31
ENDBRANCH  17  28
ENDBRANCH   1  19
TORSDOF 8
ENDMDL
MODEL 4
REMARK VINA RESULT:    -7.849      1.926      3.550
REMARK INTER + INTRA:         -12.783
REMARK INTER:                 -11.451
REMARK INTRA:                  -1.332
REMARK UNBOUND:                -1.263
REMARK  Name = 
REMARK  9 active torsions:
REMARK  status: ('A' for Active; 'I' for Inactive)
REMARK    1  A    between atoms: C_1  and  O_2
REMARK    2  A    between atoms: O_2  and  C_3
REMARK    3  A    between atoms: C_10  and  C_11
REMARK    4  A    between atoms: N_13  and  C_14
REMARK    5  A    between atoms: C_14  and  C_15
REMARK    6  A    between atoms: C_18  and  C_19
REMARK    7  A    between atoms: C_19  and  O_20
REMARK    8  A    between atoms: O_20  and  C_21
REMARK    9  A    between atoms: C_21  and  C_22
REMARK                            x       y       z     vdW  Elec       q    Type
REMARK                         _______ _______ _______ _____ _____    ______ ____
ROOT
ATOM      1  C   UNL     1      47.269   4.390  14.956  0.00  0.00    +0.000 C 
ENDROOT
BRANCH   1   2
ATOM      2  C   UNL     1      46.326   4.423  13.776  0.00  0.00    +0.000 A 
ATOM      3  C   UNL     1      45.819   5.637  13.322  0.00  0.00    +0.000 A 
ATOM      4  C   UNL     1      44.930   5.642  12.249  0.00  0.00    +0.000 A 
ATOM      5  C   UNL     1      44.563   4.439  11.646  0.00  0.00    +0.000 A 
ATOM      6  C   UNL     1      45.135   3.277  12.155  0.00  0.00    +0.000 A 
ATOM      7  N   UNL     1      46.011   3.240  13.189  0.00  0.00    +0.000 NA
BRANCH   5   8
ATOM      8  C   UNL     1      43.607   4.383  10.488  0.00  0.00    +0.000 C 
BRANCH   8   9
ATOM      9  O   UNL     1      44.106   3.463   9.520  0.00  0.00    +0.000 OA
BRANCH   9  10
ATOM     10  C   UNL     1      44.864   4.112   8.497  0.00  0.00    +0.000 C 
BRANCH  10  11
ATOM     11  C   UNL     1      45.818   3.135   7.848  0.00  0.00    +0.000 A 
ATOM     12  C   UNL     1      45.978   1.833   8.344  0.00  0.00    +0.000 A 
ATOM     13  C   UNL     1      46.827   0.923   7.708  0.00  0.00    +0.000 A 
ATOM     14  C   UNL     1      47.516   1.300   6.558  0.00  0.00    +0.000 A 
ATOM     15  C   UNL     1      47.362   2.586   6.047  0.00  0.00    +0.000 A 
ATOM     16  C   UNL     1      46.515   3.498   6.684  0.00  0.00    +0.000 A 
ENDBRANCH  10  11
ENDBRANCH   9  10
ENDBRANCH   8   9
ENDBRANCH   5   8
ENDBRANCH   1   2
BRANCH   1  19
ATOM     17  C   UNL     1      48.711   5.957  16.211  0.00  0.00    +0.000 C 
ATOM     18  O   UNL     1      49.414   5.041  16.636  0.00  0.00    +0.000 OA
ATOM     19  N   UNL     1      47.647   5.716  15.391  0.00  0.00    +0.000 N 
ATOM     20  H   UNL     1      46.975   6.450  15.207  0.00  0.00    +0.000 HD
BRANCH  17  28
ATOM     21  C   UNL     1      48.795   8.864  14.380  0.00  0.00    +0.000 A 
ATOM     22  N   UNL     1      48.923  10.121  13.909  0.00  0.00    +0.000 NA
ATOM     23  C   UNL     1      49.286  11.080  14.764  0.00  0.00    +0.000 A 
ATOM     24  N   UNL     1      49.543  10.940  16.060  0.00  0.00    +0.000 NA
ATOM     25  C   UNL     1      49.397   9.674  16.493  0.00  0.00    +0.000 A 
ATOM     26  S   UNL     1      49.682   9.309  18.125  0.00  0.00    +0.000 S 
ATOM     27  C   UNL     1      49.330   7.666  17.870  0.00  0.00    +0.000 A 
ATOM     28  C   UNL     1      48.993   7.360  16.557  0.00  0.00    +0.000 A 
ATOM     29  C   UNL     1      49.024   8.567  15.736  0.00  0.00    +0.000 A 
BRANCH  21  31
ATOM     30  C   UNL     1      49.424   7.437  12.644  0.00  0.00    +0.000 C 
ATOM     31  O   UNL     1      48.378   7.888  13.501  0.00  0.00    +0.000 OA
ENDBRANCH  21  31
ENDBRANCH  17  28
ENDBRANCH   1  19
TORSDOF 8
ENDMDL
MODEL 5
REMARK VINA RESULT:    -7.716      1.505      2.230
REMARK INTER + INTRA:         -12.588
REMARK INTER:                 -11.327
REMARK INTRA:                  -1.261
REMARK UNBOUND:                -1.263
REMARK  Name = 
REMARK  9 active torsions:
REMARK  status: ('A' for Active; 'I' for Inactive)
REMARK    1  A    between atoms: C_1  and  O_2
REMARK    2  A    between atoms: O_2  and  C_3
REMARK    3  A    between atoms: C_10  and  C_11
REMARK    4  A    between atoms: N_13  and  C_14
REMARK    5  A    between atoms: C_14  and  C_15
REMARK    6  A    between atoms: C_18  and  C_19
REMARK    7  A    between atoms: C_19  and  O_20
REMARK    8  A    between atoms: O_20  and  C_21
REMARK    9  A    between atoms: C_21  and  C_22
REMARK                            x       y       z     vdW  Elec       q    Type
REMARK                         _______ _______ _______ _____ _____    ______ ____
ROOT
ATOM      1  C   UNL     1      47.613   4.340  14.898  0.00  0.00    +0.000 C 
ENDROOT
BRANCH   1   2
ATOM      2  C   UNL     1      46.579   4.479  13.805  0.00  0.00    +0.000 A 
ATOM      3  C   UNL     1      46.166   5.743  13.392  0.00  0.00    +0.000 A 
ATOM      4  C   UNL     1      45.191   5.848  12.402  0.00  0.00    +0.000 A 
ATOM      5  C   UNL     1      44.647   4.693  11.838  0.00  0.00    +0.000 A 
ATOM      6  C   UNL     1      45.135   3.475  12.299  0.00  0.00    +0.000 A 
ATOM      7  N   UNL     1      46.090   3.339  13.252  0.00  0.00    +0.000 NA
BRANCH   5   8
ATOM      8  C   UNL     1      43.592   4.745  10.769  0.00  0.00    +0.000 C 
BRANCH   8   9
ATOM      9  O   UNL     1      43.926   3.814   9.743  0.00  0.00    +0.000 OA
BRANCH   9  10
ATOM     10  C   UNL     1      44.794   4.380   8.760  0.00  0.00    +0.000 C 
BRANCH  10  11
ATOM     11  C   UNL     1      45.654   3.306   8.134  0.00  0.00    +0.000 A 
ATOM     12  C   UNL     1      45.652   1.991   8.624  0.00  0.00    +0.000 A 
ATOM     13  C   UNL     1      46.414   0.995   8.009  0.00  0.00    +0.000 A 
ATOM     14  C   UNL     1      47.177   1.298   6.885  0.00  0.00    +0.000 A 
ATOM     15  C   UNL     1      47.184   2.595   6.378  0.00  0.00    +0.000 A 
ATOM     16  C   UNL     1      46.425   3.592   6.995  0.00  0.00    +0.000 A 
ENDBRANCH  10  11
ENDBRANCH   9  10
ENDBRANCH   8   9
ENDBRANCH   5   8
ENDBRANCH   1   2
BRANCH   1  19
ATOM     17  C   UNL     1      48.605   6.369  15.901  0.00  0.00    +0.000 C 
ATOM     18  O   UNL     1      49.609   6.283  15.193  0.00  0.00    +0.000 OA
ATOM     19  N   UNL     1      47.593   5.458  15.814  0.00  0.00    +0.000 N 
ATOM     20  H   UNL     1      46.874   5.434  16.525  0.00  0.00    +0.000 HD
BRANCH  17  28
ATOM     21  C   UNL     1      47.801   6.477  19.240  0.00  0.00    +0.000 A 
ATOM     22  N   UNL     1      47.487   6.806  20.510  0.00  0.00    +0.000 NA
ATOM     23  C   UNL     1      47.444   8.102  20.831  0.00  0.00    +0.000 A 
ATOM     24  N   UNL     1      47.682   9.134  20.029  0.00  0.00    +0.000 NA
ATOM     25  C   UNL     1      48.000   8.764  18.775  0.00  0.00    +0.000 A 
ATOM     26  S   UNL     1      48.339   9.952  17.613  0.00  0.00    +0.000 S 
ATOM     27  C   UNL     1      48.604   8.776  16.415  0.00  0.00    +0.000 A 
ATOM     28  C   UNL     1      48.442   7.470  16.865  0.00  0.00    +0.000 A 
ATOM     29  C   UNL     1      48.091   7.466  18.281  0.00  0.00    +0.000 A 
BRANCH  21  31
ATOM     30  C   UNL     1      49.106   4.548  19.370  0.00  0.00    +0.000 C 
ATOM     31  O   UNL     1      47.887   5.139  18.926  0.00  0.00    +0.000 OA
ENDBRANCH  21  31
ENDBRANCH  17  28
ENDBRANCH   1  19
TORSDOF 8
ENDMDL
MODEL 6
REMARK VINA RESULT:    -7.153      2.525      3.118
REMARK INTER + INTRA:         -11.761
REMARK INTER:                 -10.905
REMARK INTRA:                  -0.856
REMARK UNBOUND:                -1.263
REMARK  Name = 
REMARK  9 active torsions:
REMARK  status: ('A' for Active; 'I' for Inactive)
REMARK    1  A    between atoms: C_1  and  O_2
REMARK    2  A    between atoms: O_2  and  C_3
REMARK    3  A    between atoms: C_10  and  C_11
REMARK    4  A    between atoms: N_13  and  C_14
REMARK    5  A    between atoms: C_14  and  C_15
REMARK    6  A    between atoms: C_18  and  C_19
REMARK    7  A    between atoms: C_19  and  O_20
REMARK    8  A    between atoms: O_20  and  C_21
REMARK    9  A    between atoms: C_21  and  C_22
REMARK                            x       y       z     vdW  Elec       q    Type
REMARK                         _______ _______ _______ _____ _____    ______ ____
ROOT
ATOM      1  C   UNL     1      47.134   4.336  15.703  0.00  0.00    +0.000 C 
ENDROOT
BRANCH   1   2
ATOM      2  C   UNL     1      46.697   4.624  14.286  0.00  0.00    +0.000 A 
ATOM      3  C   UNL     1      47.103   5.797  13.655  0.00  0.00    +0.000 A 
ATOM      4  C   UNL     1      46.667   6.056  12.357  0.00  0.00    +0.000 A 
ATOM      5  C   UNL     1      45.835   5.142  11.709  0.00  0.00    +0.000 A 
ATOM      6  C   UNL     1      45.496   3.989  12.410  0.00  0.00    +0.000 A 
ATOM      7  N   UNL     1      45.914   3.703  13.668  0.00  0.00    +0.000 NA
BRANCH   5   8
ATOM      8  C   UNL     1      45.332   5.369  10.311  0.00  0.00    +0.000 C 
BRANCH   8   9
ATOM      9  O   UNL     1      44.706   4.177   9.845  0.00  0.00    +0.000 OA
BRANCH   9  10
ATOM     10  C   UNL     1      44.663   4.109   8.419  0.00  0.00    +0.000 C 
BRANCH  10  11
ATOM     11  C   UNL     1      45.697   3.135   7.905  0.00  0.00    +0.000 A 
ATOM     12  C   UNL     1      45.794   1.834   8.422  0.00  0.00    +0.000 A 
ATOM     13  C   UNL     1      46.722   0.926   7.908  0.00  0.00    +0.000 A 
ATOM     14  C   UNL     1      47.556   1.301   6.858  0.00  0.00    +0.000 A 
ATOM     15  C   UNL     1      47.468   2.585   6.326  0.00  0.00    +0.000 A 
ATOM     16  C   UNL     1      46.542   3.496   6.843  0.00  0.00    +0.000 A 
ENDBRANCH  10  11
ENDBRANCH   9  10
ENDBRANCH   8   9
ENDBRANCH   5   8
ENDBRANCH   1   2
BRANCH   1  19
ATOM     17  C   UNL     1      48.969   4.954  17.239  0.00  0.00    +0.000 C 
ATOM     18  O   UNL     1      48.305   4.644  18.228  0.00  0.00    +0.000 OA
ATOM     19  N   UNL     1      48.463   4.834  15.977  0.00  0.00    +0.000 N 
ATOM     20  H   UNL     1      48.943   5.265  15.198  0.00  0.00    +0.000 HD
BRANCH  17  28
ATOM     21  C   UNL     1      52.009   3.411  17.668  0.00  0.00    +0.000 A 
ATOM     22  N   UNL     1      53.301   3.076  17.860  0.00  0.00    +0.000 NA
ATOM     23  C   UNL     1      54.198   4.060  17.958  0.00  0.00    +0.000 A 
ATOM     24  N   UNL     1      53.964   5.366  17.884  0.00  0.00    +0.000 NA
ATOM     25  C   UNL     1      52.666   5.658  17.684  0.00  0.00    +0.000 A 
ATOM     26  S   UNL     1      52.182   7.280  17.562  0.00  0.00    +0.000 S 
ATOM     27  C   UNL     1      50.556   6.830  17.351  0.00  0.00    +0.000 A 
ATOM     28  C   UNL     1      50.346   5.456  17.369  0.00  0.00    +0.000 A 
ATOM     29  C   UNL     1      51.613   4.756  17.558  0.00  0.00    +0.000 A 
BRANCH  21  31
ATOM     30  C   UNL     1      51.710   1.103  17.496  0.00  0.00    +0.000 C 
ATOM     31  O   UNL     1      51.095   2.389  17.524  0.00  0.00    +0.000 OA
ENDBRANCH  21  31
ENDBRANCH  17  28
ENDBRANCH   1  19
TORSDOF 8
ENDMDL
MODEL 7
REMARK VINA RESULT:    -7.090      3.271      4.812
REMARK INTER + INTRA:         -11.670
REMARK INTER:                 -10.385
REMARK INTRA:                  -1.285
REMARK UNBOUND:                -1.263
REMARK  Name = 
REMARK  9 active torsions:
REMARK  status: ('A' for Active; 'I' for Inactive)
REMARK    1  A    between atoms: C_1  and  O_2
REMARK    2  A    between atoms: O_2  and  C_3
REMARK    3  A    between atoms: C_10  and  C_11
REMARK    4  A    between atoms: N_13  and  C_14
REMARK    5  A    between atoms: C_14  and  C_15
REMARK    6  A    between atoms: C_18  and  C_19
REMARK    7  A    between atoms: C_19  and  O_20
REMARK    8  A    between atoms: O_20  and  C_21
REMARK    9  A    between atoms: C_21  and  C_22
REMARK                            x       y       z     vdW  Elec       q    Type
REMARK                         _______ _______ _______ _____ _____    ______ ____
ROOT
ATOM      1  C   UNL     1      47.705   3.164  17.171  0.00  0.00    +0.000 C 
ENDROOT
BRANCH   1   2
ATOM      2  C   UNL     1      47.549   3.971  15.903  0.00  0.00    +0.000 A 
ATOM      3  C   UNL     1      47.958   5.301  15.868  0.00  0.00    +0.000 A 
ATOM      4  C   UNL     1      47.781   6.035  14.697  0.00  0.00    +0.000 A 
ATOM      5  C   UNL     1      47.201   5.431  13.580  0.00  0.00    +0.000 A 
ATOM      6  C   UNL     1      46.841   4.092  13.702  0.00  0.00    +0.000 A 
ATOM      7  N   UNL     1      47.012   3.349  14.823  0.00  0.00    +0.000 NA
BRANCH   5   8
ATOM      8  C   UNL     1      46.982   6.173  12.292  0.00  0.00    +0.000 C 
BRANCH   8   9
ATOM      9  O   UNL     1      45.582   6.276  12.049  0.00  0.00    +0.000 OA
BRANCH   9  10
ATOM     10  C   UNL     1      45.278   6.366  10.656  0.00  0.00    +0.000 C 
BRANCH  10  11
ATOM     11  C   UNL     1      45.081   4.988  10.068  0.00  0.00    +0.000 A 
ATOM     12  C   UNL     1      45.648   4.632   8.836  0.00  0.00    +0.000 A 
ATOM     13  C   UNL     1      45.499   3.341   8.324  0.00  0.00    +0.000 A 
ATOM     14  C   UNL     1      44.791   2.383   9.046  0.00  0.00    +0.000 A 
ATOM     15  C   UNL     1      44.229   2.716  10.276  0.00  0.00    +0.000 A 
ATOM     16  C   UNL     1      44.375   4.009  10.787  0.00  0.00    +0.000 A 
ENDBRANCH  10  11
ENDBRANCH   9  10
ENDBRANCH   8   9
ENDBRANCH   5   8
ENDBRANCH   1   2
BRANCH   1  19
ATOM     17  C   UNL     1      49.976   2.222  16.915  0.00  0.00    +0.000 C 
ATOM     18  O   UNL     1      49.636   1.549  15.942  0.00  0.00    +0.000 OA
ATOM     19  N   UNL     1      49.089   3.030  17.566  0.00  0.00    +0.000 N 
ATOM     20  H   UNL     1      49.333   3.425  18.465  0.00  0.00    +0.000 HD
BRANCH  17  28
ATOM     21  C   UNL     1      52.271   4.682  17.613  0.00  0.00    +0.000 A 
ATOM     22  N   UNL     1      53.350   5.425  17.934  0.00  0.00    +0.000 NA
ATOM     23  C   UNL     1      54.461   4.789  18.316  0.00  0.00    +0.000 A 
ATOM     24  N   UNL     1      54.634   3.476  18.421  0.00  0.00    +0.000 NA
ATOM     25  C   UNL     1      53.533   2.771  18.101  0.00  0.00    +0.000 A 
ATOM     26  S   UNL     1      53.571   1.077  18.181  0.00  0.00    +0.000 S 
ATOM     27  C   UNL     1      51.958   0.967  17.659  0.00  0.00    +0.000 A 
ATOM     28  C   UNL     1      51.361   2.198  17.414  0.00  0.00    +0.000 A 
ATOM     29  C   UNL     1      52.304   3.278  17.690  0.00  0.00    +0.000 A 
BRANCH  21  31
ATOM     30  C   UNL     1      51.373   6.587  16.608  0.00  0.00    +0.000 C 
ATOM     31  O   UNL     1      51.116   5.346  17.263  0.00  0.00    +0.000 OA
ENDBRANCH  21  31
ENDBRANCH  17  28
ENDBRANCH   1  19
TORSDOF 8
ENDMDL
MODEL 8
REMARK VINA RESULT:    -6.739      2.067      2.956
REMARK INTER + INTRA:         -11.155
REMARK INTER:                 -10.305
REMARK INTRA:                  -0.850
REMARK UNBOUND:                -1.263
REMARK  Name = 
REMARK  9 active torsions:
REMARK  status: ('A' for Active; 'I' for Inactive)
REMARK    1  A    between atoms: C_1  and  O_2
REMARK    2  A    between atoms: O_2  and  C_3
REMARK    3  A    between atoms: C_10  and  C_11
REMARK    4  A    between atoms: N_13  and  C_14
REMARK    5  A    between atoms: C_14  and  C_15
REMARK    6  A    between atoms: C_18  and  C_19
REMARK    7  A    between atoms: C_19  and  O_20
REMARK    8  A    between atoms: O_20  and  C_21
REMARK    9  A    between atoms: C_21  and  C_22
REMARK                            x       y       z     vdW  Elec       q    Type
REMARK                         _______ _______ _______ _____ _____    ______ ____
ROOT
ATOM      1  C   UNL     1      47.710   4.558  15.913  0.00  0.00    +0.000 C 
ENDROOT
BRANCH   1   2
ATOM      2  C   UNL     1      47.103   4.804  14.552  0.00  0.00    +0.000 A 
ATOM      3  C   UNL     1      47.432   5.954  13.839  0.00  0.00    +0.000 A 
ATOM      4  C   UNL     1      46.840   6.174  12.596  0.00  0.00    +0.000 A 
ATOM      5  C   UNL     1      45.934   5.245  12.085  0.00  0.00    +0.000 A 
ATOM      6  C   UNL     1      45.681   4.117  12.859  0.00  0.00    +0.000 A 
ATOM      7  N   UNL     1      46.248   3.868  14.065  0.00  0.00    +0.000 NA
BRANCH   5   8
ATOM      8  C   UNL     1      45.263   5.431  10.752  0.00  0.00    +0.000 C 
BRANCH   8   9
ATOM      9  O   UNL     1      44.686   4.193  10.348  0.00  0.00    +0.000 OA
BRANCH   9  10
ATOM     10  C   UNL     1      44.477   4.128   8.936  0.00  0.00    +0.000 C 
BRANCH  10  11
ATOM     11  C   UNL     1      45.506   3.229   8.291  0.00  0.00    +0.000 A 
ATOM     12  C   UNL     1      45.600   1.869   8.624  0.00  0.00    +0.000 A 
ATOM     13  C   UNL     1      46.524   1.037   7.988  0.00  0.00    +0.000 A 
ATOM     14  C   UNL     1      47.357   1.550   6.997  0.00  0.00    +0.000 A 
ATOM     15  C   UNL     1      47.271   2.895   6.646  0.00  0.00    +0.000 A 
ATOM     16  C   UNL     1      46.350   3.729   7.285  0.00  0.00    +0.000 A 
ENDBRANCH  10  11
ENDBRANCH   9  10
ENDBRANCH   8   9
ENDBRANCH   5   8
ENDBRANCH   1   2
BRANCH   1  19
ATOM     17  C   UNL     1      48.005   6.098  17.824  0.00  0.00    +0.000 C 
ATOM     18  O   UNL     1      47.363   5.363  18.574  0.00  0.00    +0.000 OA
ATOM     19  N   UNL     1      48.212   5.773  16.515  0.00  0.00    +0.000 N 
ATOM     20  H   UNL     1      48.573   6.468  15.874  0.00  0.00    +0.000 HD
BRANCH  17  28
ATOM     21  C   UNL     1      50.764   6.827  19.738  0.00  0.00    +0.000 A 
ATOM     22  N   UNL     1      51.748   7.385  20.473  0.00  0.00    +0.000 NA
ATOM     23  C   UNL     1      51.747   8.712  20.622  0.00  0.00    +0.000 A 
ATOM     24  N   UNL     1      50.870   9.573  20.117  0.00  0.00    +0.000 NA
ATOM     25  C   UNL     1      49.910   8.979  19.384  0.00  0.00    +0.000 A 
ATOM     26  S   UNL     1      48.704   9.926  18.659  0.00  0.00    +0.000 S 
ATOM     27  C   UNL     1      47.953   8.552  17.998  0.00  0.00    +0.000 A 
ATOM     28  C   UNL     1      48.593   7.357  18.309  0.00  0.00    +0.000 A 
ATOM     29  C   UNL     1      49.771   7.617  19.131  0.00  0.00    +0.000 A 
BRANCH  21  31
ATOM     30  C   UNL     1      51.824   4.830  20.312  0.00  0.00    +0.000 C 
ATOM     31  O   UNL     1      50.797   5.463  19.552  0.00  0.00    +0.000 OA
ENDBRANCH  21  31
ENDBRANCH  17  28
ENDBRANCH   1  19
TORSDOF 8
ENDMDL
MODEL 9
REMARK VINA RESULT:    -6.629      4.498      9.340
REMARK INTER + INTRA:         -10.993
REMARK INTER:                 -10.004
REMARK INTRA:                  -0.989
REMARK UNBOUND:                -1.263
REMARK  Name = 
REMARK  9 active torsions:
REMARK  status: ('A' for Active; 'I' for Inactive)
REMARK    1  A    between atoms: C_1  and  O_2
REMARK    2  A    between atoms: O_2  and  C_3
REMARK    3  A    between atoms: C_10  and  C_11
REMARK    4  A    between atoms: N_13  and  C_14
REMARK    5  A    between atoms: C_14  and  C_15
REMARK    6  A    between atoms: C_18  and  C_19
REMARK    7  A    between atoms: C_19  and  O_20
REMARK    8  A    between atoms: O_20  and  C_21
REMARK    9  A    between atoms: C_21  and  C_22
REMARK                            x       y       z     vdW  Elec       q    Type
REMARK                         _______ _______ _______ _____ _____    ______ ____
ROOT
ATOM      1  C   UNL     1      47.484   3.245  16.806  0.00  0.00    +0.000 C 
ENDROOT
BRANCH   1   2
ATOM      2  C   UNL     1      48.952   3.266  17.162  0.00  0.00    +0.000 A 
ATOM      3  C   UNL     1      49.729   2.124  16.987  0.00  0.00    +0.000 A 
ATOM      4  C   UNL     1      51.075   2.158  17.347  0.00  0.00    +0.000 A 
ATOM      5  C   UNL     1      51.624   3.328  17.873  0.00  0.00    +0.000 A 
ATOM      6  C   UNL     1      50.776   4.424  17.994  0.00  0.00    +0.000 A 
ATOM      7  N   UNL     1      49.467   4.427  17.642  0.00  0.00    +0.000 NA
BRANCH   5   8
ATOM      8  C   UNL     1      53.068   3.421  18.281  0.00  0.00    +0.000 C 
BRANCH   8   9
ATOM      9  O   UNL     1      53.345   2.402  19.237  0.00  0.00    +0.000 OA
BRANCH   9  10
ATOM     10  C   UNL     1      54.683   1.912  19.135  0.00  0.00    +0.000 C 
BRANCH  10  11
ATOM     11  C   UNL     1      54.718   0.636  18.326  0.00  0.00    +0.000 A 
ATOM     12  C   UNL     1      54.583   0.652  16.930  0.00  0.00    +0.000 A 
ATOM     13  C   UNL     1      54.664  -0.529  16.188  0.00  0.00    +0.000 A 
ATOM     14  C   UNL     1      54.895  -1.741  16.832  0.00  0.00    +0.000 A 
ATOM     15  C   UNL     1      55.040  -1.776  18.216  0.00  0.00    +0.000 A 
ATOM     16  C   UNL     1      54.956  -0.595  18.960  0.00  0.00    +0.000 A 
ENDBRANCH  10  11
ENDBRANCH   9  10
ENDBRANCH   8   9
ENDBRANCH   5   8
ENDBRANCH   1   2
BRANCH   1  19
ATOM     17  C   UNL     1      47.020   4.172  14.562  0.00  0.00    +0.000 C 
ATOM     18  O   UNL     1      47.239   3.088  14.020  0.00  0.00    +0.000 OA
ATOM     19  N   UNL     1      47.123   4.324  15.914  0.00  0.00    +0.000 N 
ATOM     20  H   UNL     1      47.126   5.252  16.318  0.00  0.00    +0.000 HD
BRANCH  17  28
ATOM     21  C   UNL     1      44.283   4.893  12.614  0.00  0.00    +0.000 A 
ATOM     22  N   UNL     1      43.355   5.419  11.788  0.00  0.00    +0.000 NA
ATOM     23  C   UNL     1      43.574   6.638  11.290  0.00  0.00    +0.000 A 
ATOM     24  N   UNL     1      44.626   7.417  11.516  0.00  0.00    +0.000 NA
ATOM     25  C   UNL     1      45.524   6.861  12.350  0.00  0.00    +0.000 A 
ATOM     26  S   UNL     1      46.932   7.717  12.756  0.00  0.00    +0.000 S 
ATOM     27  C   UNL     1      47.484   6.443  13.736  0.00  0.00    +0.000 A 
ATOM     28  C   UNL     1      46.623   5.352  13.777  0.00  0.00    +0.000 A 
ATOM     29  C   UNL     1      45.445   5.609  12.954  0.00  0.00    +0.000 A 
BRANCH  21  31
ATOM     30  C   UNL     1      43.496   2.735  12.208  0.00  0.00    +0.000 C 
ATOM     31  O   UNL     1      44.029   3.654  13.159  0.00  0.00    +0.000 OA
ENDBRANCH  21  31
ENDBRANCH  17  28
ENDBRANCH   1  19
TORSDOF 8
ENDMDL
