MODEL 1
REMARK VINA RESULT:    -8.409      0.000      0.000
REMARK INTER + INTRA:         -11.235
REMARK INTER:                 -11.358
REMARK INTRA:                   0.123
REMARK UNBOUND:                 0.123
REMARK  Name = 
REMARK  8 active torsions:
REMARK  status: ('A' for Active; 'I' for Inactive)
REMARK    1  A    between atoms: C_1  and  C_2
REMARK    2  A    between atoms: C_2  and  C_3
REMARK    3  A    between atoms: C_2  and  C_25
REMARK    4  A    between atoms: C_3  and  N_4
REMARK    5  A    between atoms: C_7  and  C_8
REMARK    6  A    between atoms: C_8  and  C_9
REMARK    7  A    between atoms: C_8  and  N_10
REMARK    8  A    between atoms: C_11  and  C_13
REMARK                            x       y       z     vdW  Elec       q    Type
REMARK                         _______ _______ _______ _____ _____    ______ ____
ROOT
ATOM      1  C   UNL     1      45.936   6.716  12.684  0.00  0.00    +0.000 C 
ATOM      2  C   UNL     1      45.456   8.037  12.084  0.00  0.00    +0.000 C 
ENDROOT
BRANCH   1   6
ATOM      3  N   UNL     1      44.028   3.895  11.140  0.00  0.00    +0.000 NA
ATOM      4  C   UNL     1      45.287   3.772  11.887  0.00  0.00    +0.000 C 
ATOM      5  C   UNL     1      45.126   4.360  13.290  0.00  0.00    +0.000 C 
ATOM      6  C   UNL     1      44.766   5.854  13.236  0.00  0.00    +0.000 C 
ATOM      7  C   UNL     1      43.476   5.968  12.405  0.00  0.00    +0.000 C 
ATOM      8  C   UNL     1      43.606   5.302  11.026  0.00  0.00    +0.000 C 
BRANCH   3   9
ATOM      9  C   UNL     1      44.095   3.250   9.807  0.00  0.00    +0.000 C 
BRANCH   9  11
ATOM     10  C   UNL     1      45.664   5.235   9.333  0.00  0.00    +0.000 C 
ATOM     11  C   UNL     1      44.929   4.022   8.744  0.00  0.00    +0.000 C 
BRANCH  11  12
ATOM     12  C   UNL     1      45.900   3.120   7.987  0.00  0.00    +0.000 A 
ATOM     13  C   UNL     1      46.874   3.687   7.148  0.00  0.00    +0.000 A 
ATOM     14  C   UNL     1      47.779   2.883   6.452  0.00  0.00    +0.000 A 
ATOM     15  C   UNL     1      47.728   1.497   6.584  0.00  0.00    +0.000 A 
ATOM     16  C   UNL     1      46.775   0.922   7.420  0.00  0.00    +0.000 A 
ATOM     17 CL   UNL     1      46.714  -0.789   7.592  0.00  0.00    +0.000 Cl
ATOM     18  C   UNL     1      45.867   1.722   8.120  0.00  0.00    +0.000 A 
ENDBRANCH  11  12
ENDBRANCH   9  11
ENDBRANCH   3   9
ENDBRANCH   1   6
BRANCH   1  19
ATOM     19  N   UNL     1      46.910   6.996  13.741  0.00  0.00    +0.000 N 
ATOM     20  C   UNL     1      48.249   6.688  13.625  0.00  0.00    +0.000 C 
ATOM     21  O   UNL     1      48.715   6.168  12.616  0.00  0.00    +0.000 OA
ATOM     22  H   UNL     1      46.548   7.303  14.641  0.00  0.00    +0.000 HD
BRANCH  20  23
ATOM     23  C   UNL     1      49.113   7.061  14.756  0.00  0.00    +0.000 A 
ATOM     24  C   UNL     1      50.055   8.062  14.589  0.00  0.00    +0.000 A 
ATOM     25  S   UNL     1      50.956   8.399  15.993  0.00  0.00    +0.000 S 
ATOM     26  C   UNL     1      50.154   7.179  16.864  0.00  0.00    +0.000 A 
ATOM     27  N   UNL     1      50.473   6.919  18.160  0.00  0.00    +0.000 NA
ATOM     28  C   UNL     1      49.814   5.939  18.685  0.00  0.00    +0.000 A 
ATOM     29  N   UNL     1      48.860   5.199  18.034  0.00  0.00    +0.000 N 
ATOM     30  C   UNL     1      48.471   5.458  16.742  0.00  0.00    +0.000 A 
ATOM     31  O   UNL     1      47.556   4.835  16.219  0.00  0.00    +0.000 OA
ATOM     32  C   UNL     1      49.199   6.533  16.093  0.00  0.00    +0.000 A 
ATOM     33  H   UNL     1      48.373   4.457  18.511  0.00  0.00    +0.000 HD
ENDBRANCH  20  23
ENDBRANCH   1  19
TORSDOF 6
ENDMDL
MODEL 2
REMARK VINA RESULT:    -8.343      3.973      9.040
REMARK INTER + INTRA:         -11.146
REMARK INTER:                  -9.829
REMARK INTRA:                  -1.317
REMARK UNBOUND:                 0.123
REMARK  Name = 
REMARK  8 active torsions:
REMARK  status: ('A' for Active; 'I' for Inactive)
REMARK    1  A    between atoms: C_1  and  C_2
REMARK    2  A    between atoms: C_2  and  C_3
REMARK    3  A    between atoms: C_2  and  C_25
REMARK    4  A    between atoms: C_3  and  N_4
REMARK    5  A    between atoms: C_7  and  C_8
REMARK    6  A    between atoms: C_8  and  C_9
REMARK    7  A    between atoms: C_8  and  N_10
REMARK    8  A    between atoms: C_11  and  C_13
REMARK                            x       y       z     vdW  Elec       q    Type
REMARK                         _______ _______ _______ _____ _____    ______ ____
ROOT
ATOM      1  C   UNL     1      47.899   4.709  16.549  0.00  0.00    +0.000 C 
ATOM      2  C   UNL     1      47.570   3.313  17.078  0.00  0.00    +0.000 C 
ENDROOT
BRANCH   1   6
ATOM      3  N   UNL     1      50.295   5.820  19.196  0.00  0.00    +0.000 NA
ATOM      4  C   UNL     1      50.246   6.322  17.817  0.00  0.00    +0.000 C 
ATOM      5  C   UNL     1      48.858   6.885  17.510  0.00  0.00    +0.000 C 
ATOM      6  C   UNL     1      47.772   5.804  17.644  0.00  0.00    +0.000 C 
ATOM      7  C   UNL     1      47.873   5.253  19.078  0.00  0.00    +0.000 C 
ATOM      8  C   UNL     1      49.289   4.767  19.420  0.00  0.00    +0.000 C 
BRANCH   3   9
ATOM      9  C   UNL     1      51.648   5.355  19.583  0.00  0.00    +0.000 C 
BRANCH   9  11
ATOM     10  C   UNL     1      53.993   5.487  18.529  0.00  0.00    +0.000 C 
ATOM     11  C   UNL     1      52.565   4.939  18.396  0.00  0.00    +0.000 C 
BRANCH  11  12
ATOM     12  C   UNL     1      52.586   3.430  18.169  0.00  0.00    +0.000 A 
ATOM     13  C   UNL     1      51.473   2.793  17.594  0.00  0.00    +0.000 A 
ATOM     14  C   UNL     1      51.471   1.414  17.368  0.00  0.00    +0.000 A 
ATOM     15  C   UNL     1      52.583   0.649  17.712  0.00  0.00    +0.000 A 
ATOM     16  C   UNL     1      53.696   1.268  18.273  0.00  0.00    +0.000 A 
ATOM     17 CL   UNL     1      55.075   0.327  18.691  0.00  0.00    +0.000 Cl
ATOM     18  C   UNL     1      53.704   2.647  18.501  0.00  0.00    +0.000 A 
ENDBRANCH  11  12
ENDBRANCH   9  11
ENDBRANCH   3   9
ENDBRANCH   1   6
BRANCH   1  19
ATOM     19  N   UNL     1      47.021   5.010  15.417  0.00  0.00    +0.000 N 
ATOM     20  C   UNL     1      47.454   5.681  14.293  0.00  0.00    +0.000 C 
ATOM     21  O   UNL     1      48.614   6.059  14.163  0.00  0.00    +0.000 OA
ATOM     22  H   UNL     1      46.026   4.835  15.537  0.00  0.00    +0.000 HD
BRANCH  20  23
ATOM     23  C   UNL     1      46.465   5.882  13.222  0.00  0.00    +0.000 A 
ATOM     24  C   UNL     1      46.163   7.170  12.811  0.00  0.00    +0.000 A 
ATOM     25  S   UNL     1      45.025   7.238  11.547  0.00  0.00    +0.000 S 
ATOM     26  C   UNL     1      44.854   5.547  11.539  0.00  0.00    +0.000 A 
ATOM     27  N   UNL     1      43.992   4.935  10.685  0.00  0.00    +0.000 NA
ATOM     28  C   UNL     1      43.932   3.650  10.816  0.00  0.00    +0.000 A 
ATOM     29  N   UNL     1      44.662   2.921  11.721  0.00  0.00    +0.000 N 
ATOM     30  C   UNL     1      45.581   3.492  12.567  0.00  0.00    +0.000 A 
ATOM     31  O   UNL     1      46.278   2.804  13.302  0.00  0.00    +0.000 OA
ATOM     32  C   UNL     1      45.669   4.937  12.482  0.00  0.00    +0.000 A 
ATOM     33  H   UNL     1      44.577   1.918  11.757  0.00  0.00    +0.000 HD
ENDBRANCH  20  23
ENDBRANCH   1  19
TORSDOF 6
ENDMDL
MODEL 3
REMARK VINA RESULT:    -8.196      1.686      2.475
REMARK INTER + INTRA:         -10.947
REMARK INTER:                  -9.568
REMARK INTRA:                  -1.380
REMARK UNBOUND:                 0.123
REMARK  Name = 
REMARK  8 active torsions:
REMARK  status: ('A' for Active; 'I' for Inactive)
REMARK    1  A    between atoms: C_1  and  C_2
REMARK    2  A    between atoms: C_2  and  C_3
REMARK    3  A    between atoms: C_2  and  C_25
REMARK    4  A    between atoms: C_3  and  N_4
REMARK    5  A    between atoms: C_7  and  C_8
REMARK    6  A    between atoms: C_8  and  C_9
REMARK    7  A    between atoms: C_8  and  N_10
REMARK    8  A    between atoms: C_11  and  C_13
REMARK                            x       y       z     vdW  Elec       q    Type
REMARK                         _______ _______ _______ _____ _____    ______ ____
ROOT
ATOM      1  C   UNL     1      47.281   6.583  12.926  0.00  0.00    +0.000 C 
ATOM      2  C   UNL     1      48.381   7.327  12.169  0.00  0.00    +0.000 C 
ENDROOT
BRANCH   1   6
ATOM      3  N   UNL     1      44.123   5.789  11.088  0.00  0.00    +0.000 NA
ATOM      4  C   UNL     1      44.496   5.280  12.415  0.00  0.00    +0.000 C 
ATOM      5  C   UNL     1      44.760   6.444  13.371  0.00  0.00    +0.000 C 
ATOM      6  C   UNL     1      45.917   7.327  12.875  0.00  0.00    +0.000 C 
ATOM      7  C   UNL     1      45.533   7.807  11.464  0.00  0.00    +0.000 C 
ATOM      8  C   UNL     1      45.183   6.644  10.524  0.00  0.00    +0.000 C 
BRANCH   3   9
ATOM      9  C   UNL     1      43.756   4.705  10.147  0.00  0.00    +0.000 C 
BRANCH   9  11
ATOM     10  C   UNL     1      43.661   2.220  10.813  0.00  0.00    +0.000 C 
ATOM     11  C   UNL     1      44.548   3.378  10.332  0.00  0.00    +0.000 C 
BRANCH  11  12
ATOM     12  C   UNL     1      45.326   2.976   9.082  0.00  0.00    +0.000 A 
ATOM     13  C   UNL     1      45.736   3.961   8.167  0.00  0.00    +0.000 A 
ATOM     14  C   UNL     1      46.457   3.619   7.020  0.00  0.00    +0.000 A 
ATOM     15  C   UNL     1      46.782   2.288   6.769  0.00  0.00    +0.000 A 
ATOM     16  C   UNL     1      46.392   1.305   7.673  0.00  0.00    +0.000 A 
ATOM     17 CL   UNL     1      46.799  -0.340   7.371  0.00  0.00    +0.000 Cl
ATOM     18  C   UNL     1      45.671   1.640   8.822  0.00  0.00    +0.000 A 
ENDBRANCH  11  12
ENDBRANCH   9  11
ENDBRANCH   3   9
ENDBRANCH   1   6
BRANCH   1  19
ATOM     19  N   UNL     1      47.706   6.384  14.313  0.00  0.00    +0.000 N 
ATOM     20  C   UNL     1      47.702   5.149  14.927  0.00  0.00    +0.000 C 
ATOM     21  O   UNL     1      47.353   4.130  14.341  0.00  0.00    +0.000 OA
ATOM     22  H   UNL     1      47.876   7.216  14.874  0.00  0.00    +0.000 HD
BRANCH  20  23
ATOM     23  C   UNL     1      48.188   5.100  16.314  0.00  0.00    +0.000 A 
ATOM     24  C   UNL     1      47.467   4.392  17.261  0.00  0.00    +0.000 A 
ATOM     25  S   UNL     1      48.169   4.403  18.811  0.00  0.00    +0.000 S 
ATOM     26  C   UNL     1      49.440   5.403  18.285  0.00  0.00    +0.000 A 
ATOM     27  N   UNL     1      50.405   5.819  19.146  0.00  0.00    +0.000 NA
ATOM     28  C   UNL     1      51.285   6.608  18.621  0.00  0.00    +0.000 A 
ATOM     29  N   UNL     1      51.289   7.014  17.311  0.00  0.00    +0.000 N 
ATOM     30  C   UNL     1      50.363   6.579  16.394  0.00  0.00    +0.000 A 
ATOM     31  O   UNL     1      50.446   6.891  15.213  0.00  0.00    +0.000 OA
ATOM     32  C   UNL     1      49.334   5.711  16.936  0.00  0.00    +0.000 A 
ATOM     33  H   UNL     1      52.017   7.618  16.964  0.00  0.00    +0.000 HD
ENDBRANCH  20  23
ENDBRANCH   1  19
TORSDOF 6
ENDMDL
MODEL 4
REMARK VINA RESULT:    -8.055      3.447      8.541
REMARK INTER + INTRA:         -10.757
REMARK INTER:                  -9.322
REMARK INTRA:                  -1.435
REMARK UNBOUND:                 0.123
REMARK  Name = 
REMARK  8 active torsions:
REMARK  status: ('A' for Active; 'I' for Inactive)
REMARK    1  A    between atoms: C_1  and  C_2
REMARK    2  A    between atoms: C_2  and  C_3
REMARK    3  A    between atoms: C_2  and  C_25
REMARK    4  A    between atoms: C_3  and  N_4
REMARK    5  A    between atoms: C_7  and  C_8
REMARK    6  A    between atoms: C_8  and  C_9
REMARK    7  A    between atoms: C_8  and  N_10
REMARK    8  A    between atoms: C_11  and  C_13
REMARK                            x       y       z     vdW  Elec       q    Type
REMARK                         _______ _______ _______ _____ _____    ______ ____
ROOT
ATOM      1  C   UNL     1      46.172   8.142  12.600  0.00  0.00    +0.000 C 
ATOM      2  C   UNL     1      45.155   9.277  12.491  0.00  0.00    +0.000 C 
ENDROOT
BRANCH   1   6
ATOM      3  N   UNL     1      49.600   8.416  14.071  0.00  0.00    +0.000 NA
ATOM      4  C   UNL     1      48.980   7.186  13.561  0.00  0.00    +0.000 C 
ATOM      5  C   UNL     1      48.566   7.370  12.101  0.00  0.00    +0.000 C 
ATOM      6  C   UNL     1      47.536   8.502  11.947  0.00  0.00    +0.000 C 
ATOM      7  C   UNL     1      48.182   9.769  12.534  0.00  0.00    +0.000 C 
ATOM      8  C   UNL     1      48.678   9.562  13.974  0.00  0.00    +0.000 C 
BRANCH   3   9
ATOM      9  C   UNL     1      50.113   8.262  15.452  0.00  0.00    +0.000 C 
BRANCH   9  11
ATOM     10  C   UNL     1      51.753   6.567  16.485  0.00  0.00    +0.000 C 
ATOM     11  C   UNL     1      50.348   6.792  15.906  0.00  0.00    +0.000 C 
BRANCH  11  12
ATOM     12  C   UNL     1      49.280   6.297  16.878  0.00  0.00    +0.000 A 
ATOM     13  C   UNL     1      48.780   7.161  17.867  0.00  0.00    +0.000 A 
ATOM     14  C   UNL     1      47.796   6.735  18.762  0.00  0.00    +0.000 A 
ATOM     15  C   UNL     1      47.294   5.438  18.684  0.00  0.00    +0.000 A 
ATOM     16  C   UNL     1      47.774   4.575  17.703  0.00  0.00    +0.000 A 
ATOM     17 CL   UNL     1      47.151   2.974  17.597  0.00  0.00    +0.000 Cl
ATOM     18  C   UNL     1      48.758   4.996  16.804  0.00  0.00    +0.000 A 
ENDBRANCH  11  12
ENDBRANCH   9  11
ENDBRANCH   3   9
ENDBRANCH   1   6
BRANCH   1  19
ATOM     19  N   UNL     1      45.612   6.936  11.989  0.00  0.00    +0.000 N 
ATOM     20  C   UNL     1      45.528   5.730  12.652  0.00  0.00    +0.000 C 
ATOM     21  O   UNL     1      45.908   5.594  13.810  0.00  0.00    +0.000 OA
ATOM     22  H   UNL     1      45.408   6.969  10.992  0.00  0.00    +0.000 HD
BRANCH  20  23
ATOM     23  C   UNL     1      44.909   4.615  11.919  0.00  0.00    +0.000 A 
ATOM     24  C   UNL     1      44.137   3.695  12.609  0.00  0.00    +0.000 A 
ATOM     25  S   UNL     1      43.467   2.482  11.622  0.00  0.00    +0.000 S 
ATOM     26  C   UNL     1      44.230   3.113  10.239  0.00  0.00    +0.000 A 
ATOM     27  N   UNL     1      44.085   2.515   9.027  0.00  0.00    +0.000 NA
ATOM     28  C   UNL     1      44.754   3.076   8.073  0.00  0.00    +0.000 A 
ATOM     29  N   UNL     1      45.549   4.184   8.221  0.00  0.00    +0.000 N 
ATOM     30  C   UNL     1      45.684   4.849   9.415  0.00  0.00    +0.000 A 
ATOM     31  O   UNL     1      46.331   5.885   9.494  0.00  0.00    +0.000 OA
ATOM     32  C   UNL     1      44.976   4.246  10.529  0.00  0.00    +0.000 A 
ATOM     33  H   UNL     1      46.029   4.579   7.428  0.00  0.00    +0.000 HD
ENDBRANCH  20  23
ENDBRANCH   1  19
TORSDOF 6
ENDMDL
MODEL 5
REMARK VINA RESULT:    -7.828      2.204      3.072
REMARK INTER + INTRA:         -10.450
REMARK INTER:                 -10.539
REMARK INTRA:                   0.089
REMARK UNBOUND:                 0.123
REMARK  Name = 
REMARK  8 active torsions:
REMARK  status: ('A' for Active; 'I' for Inactive)
REMARK    1  A    between atoms: C_1  and  C_2
REMARK    2  A    between atoms: C_2  and  C_3
REMARK    3  A    between atoms: C_2  and  C_25
REMARK    4  A    between atoms: C_3  and  N_4
REMARK    5  A    between atoms: C_7  and  C_8
REMARK    6  A    between atoms: C_8  and  C_9
REMARK    7  A    between atoms: C_8  and  N_10
REMARK    8  A    between atoms: C_11  and  C_13
REMARK                            x       y       z     vdW  Elec       q    Type
REMARK                         _______ _______ _______ _____ _____    ______ ____
ROOT
ATOM      1  C   UNL     1      46.536   5.119  14.310  0.00  0.00    +0.000 C 
ATOM      2  C   UNL     1      46.640   3.946  13.335  0.00  0.00    +0.000 C 
ENDROOT
BRANCH   1   6
ATOM      3  N   UNL     1      45.314   5.996  10.887  0.00  0.00    +0.000 NA
ATOM      4  C   UNL     1      44.481   5.878  12.092  0.00  0.00    +0.000 C 
ATOM      5  C   UNL     1      44.991   6.824  13.179  0.00  0.00    +0.000 C 
ATOM      6  C   UNL     1      46.436   6.489  13.584  0.00  0.00    +0.000 C 
ATOM      7  C   UNL     1      47.283   6.566  12.300  0.00  0.00    +0.000 C 
ATOM      8  C   UNL     1      46.724   5.682  11.175  0.00  0.00    +0.000 C 
BRANCH   3   9
ATOM      9  C   UNL     1      44.805   5.176   9.763  0.00  0.00    +0.000 C 
BRANCH   9  11
ATOM     10  C   UNL     1      43.740   2.888  10.272  0.00  0.00    +0.000 C 
ATOM     11  C   UNL     1      45.028   3.643   9.914  0.00  0.00    +0.000 C 
BRANCH  11  12
ATOM     12  C   UNL     1      45.695   3.021   8.690  0.00  0.00    +0.000 A 
ATOM     13  C   UNL     1      46.159   3.845   7.651  0.00  0.00    +0.000 A 
ATOM     14  C   UNL     1      46.780   3.301   6.525  0.00  0.00    +0.000 A 
ATOM     15  C   UNL     1      46.949   1.922   6.417  0.00  0.00    +0.000 A 
ATOM     16  C   UNL     1      46.502   1.095   7.443  0.00  0.00    +0.000 A 
ATOM     17 CL   UNL     1      46.717  -0.608   7.319  0.00  0.00    +0.000 Cl
ATOM     18  C   UNL     1      45.881   1.634   8.574  0.00  0.00    +0.000 A 
ENDBRANCH  11  12
ENDBRANCH   9  11
ENDBRANCH   3   9
ENDBRANCH   1   6
BRANCH   1  19
ATOM     19  N   UNL     1      47.691   5.097  15.209  0.00  0.00    +0.000 N 
ATOM     20  C   UNL     1      47.683   4.442  16.423  0.00  0.00    +0.000 C 
ATOM     21  O   UNL     1      46.704   3.820  16.823  0.00  0.00    +0.000 OA
ATOM     22  H   UNL     1      48.473   5.706  14.980  0.00  0.00    +0.000 HD
BRANCH  20  23
ATOM     23  C   UNL     1      48.930   4.480  17.202  0.00  0.00    +0.000 A 
ATOM     24  C   UNL     1      49.247   5.622  17.919  0.00  0.00    +0.000 A 
ATOM     25  S   UNL     1      50.703   5.504  18.791  0.00  0.00    +0.000 S 
ATOM     26  C   UNL     1      50.992   3.937  18.199  0.00  0.00    +0.000 A 
ATOM     27  N   UNL     1      52.113   3.252  18.549  0.00  0.00    +0.000 NA
ATOM     28  C   UNL     1      52.224   2.090  17.993  0.00  0.00    +0.000 A 
ATOM     29  N   UNL     1      51.311   1.548  17.124  0.00  0.00    +0.000 N 
ATOM     30  C   UNL     1      50.142   2.182  16.782  0.00  0.00    +0.000 A 
ATOM     31  O   UNL     1      49.308   1.635  16.072  0.00  0.00    +0.000 OA
ATOM     32  C   UNL     1      49.978   3.505  17.356  0.00  0.00    +0.000 A 
ATOM     33  H   UNL     1      51.454   0.628  16.740  0.00  0.00    +0.000 HD
ENDBRANCH  20  23
ENDBRANCH   1  19
TORSDOF 6
ENDMDL
MODEL 6
REMARK VINA RESULT:    -7.444      3.622      8.297
REMARK INTER + INTRA:          -9.931
REMARK INTER:                  -8.845
REMARK INTRA:                  -1.086
REMARK UNBOUND:                 0.123
REMARK  Name = 
REMARK  8 active torsions:
REMARK  status: ('A' for Active; 'I' for Inactive)
REMARK    1  A    between atoms: C_1  and  C_2
REMARK    2  A    between atoms: C_2  and  C_3
REMARK    3  A    between atoms: C_2  and  C_25
REMARK    4  A    between atoms: C_3  and  N_4
REMARK    5  A    between atoms: C_7  and  C_8
REMARK    6  A    between atoms: C_8  and  C_9
REMARK    7  A    between atoms: C_8  and  N_10
REMARK    8  A    between atoms: C_11  and  C_13
REMARK                            x       y       z     vdW  Elec       q    Type
REMARK                         _______ _______ _______ _____ _____    ______ ____
ROOT
ATOM      1  C   UNL     1      47.857   8.734  12.368  0.00  0.00    +0.000 C 
ATOM      2  C   UNL     1      47.708   9.978  11.493  0.00  0.00    +0.000 C 
ENDROOT
BRANCH   1   6
ATOM      3  N   UNL     1      49.440   7.997  15.675  0.00  0.00    +0.000 NA
ATOM      4  C   UNL     1      48.837   7.008  14.773  0.00  0.00    +0.000 C 
ATOM      5  C   UNL     1      49.510   7.067  13.401  0.00  0.00    +0.000 C 
ATOM      6  C   UNL     1      49.337   8.449  12.749  0.00  0.00    +0.000 C 
ATOM      7  C   UNL     1      49.926   9.477  13.732  0.00  0.00    +0.000 C 
ATOM      8  C   UNL     1      49.314   9.363  15.137  0.00  0.00    +0.000 C 
BRANCH   3   9
ATOM      9  C   UNL     1      48.897   7.916  17.051  0.00  0.00    +0.000 C 
BRANCH   9  11
ATOM     10  C   UNL     1      49.471   7.508  19.528  0.00  0.00    +0.000 C 
ATOM     11  C   UNL     1      49.795   7.154  18.069  0.00  0.00    +0.000 C 
BRANCH  11  12
ATOM     12  C   UNL     1      49.768   5.642  17.863  0.00  0.00    +0.000 A 
ATOM     13  C   UNL     1      50.972   4.938  17.686  0.00  0.00    +0.000 A 
ATOM     14  C   UNL     1      50.974   3.553  17.505  0.00  0.00    +0.000 A 
ATOM     15  C   UNL     1      49.774   2.847  17.498  0.00  0.00    +0.000 A 
ATOM     16  C   UNL     1      48.575   3.530  17.682  0.00  0.00    +0.000 A 
ATOM     17 CL   UNL     1      47.090   2.661  17.683  0.00  0.00    +0.000 Cl
ATOM     18  C   UNL     1      48.566   4.916  17.865  0.00  0.00    +0.000 A 
ENDBRANCH  11  12
ENDBRANCH   9  11
ENDBRANCH   3   9
ENDBRANCH   1   6
BRANCH   1  19
ATOM     19  N   UNL     1      47.276   7.586  11.671  0.00  0.00    +0.000 N 
ATOM     20  C   UNL     1      46.035   7.070  11.982  0.00  0.00    +0.000 C 
ATOM     21  O   UNL     1      45.329   7.553  12.861  0.00  0.00    +0.000 OA
ATOM     22  H   UNL     1      47.878   7.074  11.030  0.00  0.00    +0.000 HD
BRANCH  20  23
ATOM     23  C   UNL     1      45.570   5.934  11.171  0.00  0.00    +0.000 A 
ATOM     24  C   UNL     1      45.840   5.915   9.813  0.00  0.00    +0.000 A 
ATOM     25  S   UNL     1      45.265   4.525   9.017  0.00  0.00    +0.000 S 
ATOM     26  C   UNL     1      44.584   3.921  10.453  0.00  0.00    +0.000 A 
ATOM     27  N   UNL     1      43.905   2.744  10.464  0.00  0.00    +0.000 NA
ATOM     28  C   UNL     1      43.405   2.426  11.614  0.00  0.00    +0.000 A 
ATOM     29  N   UNL     1      43.529   3.178  12.755  0.00  0.00    +0.000 N 
ATOM     30  C   UNL     1      44.247   4.348  12.801  0.00  0.00    +0.000 A 
ATOM     31  O   UNL     1      44.411   4.950  13.855  0.00  0.00    +0.000 OA
ATOM     32  C   UNL     1      44.808   4.767  11.530  0.00  0.00    +0.000 A 
ATOM     33  H   UNL     1      43.126   2.861  13.622  0.00  0.00    +0.000 HD
ENDBRANCH  20  23
ENDBRANCH   1  19
TORSDOF 6
ENDMDL
MODEL 7
REMARK VINA RESULT:    -7.228      3.859      8.943
REMARK INTER + INTRA:          -9.640
REMARK INTER:                  -8.710
REMARK INTRA:                  -0.930
REMARK UNBOUND:                 0.123
REMARK  Name = 
REMARK  8 active torsions:
REMARK  status: ('A' for Active; 'I' for Inactive)
REMARK    1  A    between atoms: C_1  and  C_2
REMARK    2  A    between atoms: C_2  and  C_3
REMARK    3  A    between atoms: C_2  and  C_25
REMARK    4  A    between atoms: C_3  and  N_4
REMARK    5  A    between atoms: C_7  and  C_8
REMARK    6  A    between atoms: C_8  and  C_9
REMARK    7  A    between atoms: C_8  and  N_10
REMARK    8  A    between atoms: C_11  and  C_13
REMARK                            x       y       z     vdW  Elec       q    Type
REMARK                         _______ _______ _______ _____ _____    ______ ____
ROOT
ATOM      1  C   UNL     1      48.560   6.303  15.371  0.00  0.00    +0.000 C 
ATOM      2  C   UNL     1      48.492   5.392  16.596  0.00  0.00    +0.000 C 
ENDROOT
BRANCH   1   6
ATOM      3  N   UNL     1      51.233   8.001  17.359  0.00  0.00    +0.000 NA
ATOM      4  C   UNL     1      51.281   7.723  15.918  0.00  0.00    +0.000 C 
ATOM      5  C   UNL     1      50.081   8.362  15.218  0.00  0.00    +0.000 C 
ATOM      6  C   UNL     1      48.754   7.797  15.751  0.00  0.00    +0.000 C 
ATOM      7  C   UNL     1      48.745   8.050  17.270  0.00  0.00    +0.000 C 
ATOM      8  C   UNL     1      49.993   7.485  17.965  0.00  0.00    +0.000 C 
BRANCH   3   9
ATOM      9  C   UNL     1      52.427   7.493  18.075  0.00  0.00    +0.000 C 
BRANCH   9  11
ATOM     10  C   UNL     1      54.842   6.979  17.346  0.00  0.00    +0.000 C 
ATOM     11  C   UNL     1      53.363   6.582  17.228  0.00  0.00    +0.000 C 
BRANCH  11  12
ATOM     12  C   UNL     1      53.178   5.098  17.535  0.00  0.00    +0.000 A 
ATOM     13  C   UNL     1      54.266   4.338  17.997  0.00  0.00    +0.000 A 
ATOM     14  C   UNL     1      54.120   2.981  18.292  0.00  0.00    +0.000 A 
ATOM     15  C   UNL     1      52.883   2.360  18.132  0.00  0.00    +0.000 A 
ATOM     16  C   UNL     1      51.795   3.104  17.685  0.00  0.00    +0.000 A 
ATOM     17 CL   UNL     1      50.263   2.343  17.494  0.00  0.00    +0.000 Cl
ATOM     18  C   UNL     1      51.935   4.463  17.388  0.00  0.00    +0.000 A 
ENDBRANCH  11  12
ENDBRANCH   9  11
ENDBRANCH   3   9
ENDBRANCH   1   6
BRANCH   1  19
ATOM     19  N   UNL     1      47.343   6.128  14.576  0.00  0.00    +0.000 N 
ATOM     20  C   UNL     1      47.311   6.300  13.209  0.00  0.00    +0.000 C 
ATOM     21  O   UNL     1      48.311   6.600  12.564  0.00  0.00    +0.000 OA
ATOM     22  H   UNL     1      46.468   6.012  15.082  0.00  0.00    +0.000 HD
BRANCH  20  23
ATOM     23  C   UNL     1      46.022   6.057  12.543  0.00  0.00    +0.000 A 
ATOM     24  C   UNL     1      45.326   7.126  12.003  0.00  0.00    +0.000 A 
ATOM     25  S   UNL     1      43.869   6.684  11.242  0.00  0.00    +0.000 S 
ATOM     26  C   UNL     1      44.090   5.049  11.654  0.00  0.00    +0.000 A 
ATOM     27  N   UNL     1      43.168   4.111  11.312  0.00  0.00    +0.000 NA
ATOM     28  C   UNL     1      43.443   2.917  11.724  0.00  0.00    +0.000 A 
ATOM     29  N   UNL     1      44.561   2.575  12.443  0.00  0.00    +0.000 N 
ATOM     30  C   UNL     1      45.542   3.480  12.767  0.00  0.00    +0.000 A 
ATOM     31  O   UNL     1      46.568   3.126  13.333  0.00  0.00    +0.000 OA
ATOM     32  C   UNL     1      45.271   4.844  12.352  0.00  0.00    +0.000 A 
ATOM     33  H   UNL     1      44.720   1.620  12.718  0.00  0.00    +0.000 HD
ENDBRANCH  20  23
ENDBRANCH   1  19
TORSDOF 6
ENDMDL
MODEL 8
REMARK VINA RESULT:    -6.954      2.807      4.817
REMARK INTER + INTRA:          -9.269
REMARK INTER:                  -8.274
REMARK INTRA:                  -0.995
REMARK UNBOUND:                 0.123
REMARK  Name = 
REMARK  8 active torsions:
REMARK  status: ('A' for Active; 'I' for Inactive)
REMARK    1  A    between atoms: C_1  and  C_2
REMARK    2  A    between atoms: C_2  and  C_3
REMARK    3  A    between atoms: C_2  and  C_25
REMARK    4  A    between atoms: C_3  and  N_4
REMARK    5  A    between atoms: C_7  and  C_8
REMARK    6  A    between atoms: C_8  and  C_9
REMARK    7  A    between atoms: C_8  and  N_10
REMARK    8  A    between atoms: C_11  and  C_13
REMARK                            x       y       z     vdW  Elec       q    Type
REMARK                         _______ _______ _______ _____ _____    ______ ____
ROOT
ATOM      1  C   UNL     1      50.880   8.361  14.248  0.00  0.00    +0.000 C 
ATOM      2  C   UNL     1      52.379   8.620  14.101  0.00  0.00    +0.000 C 
ENDROOT
BRANCH   1   6
ATOM      3  N   UNL     1      47.855   7.876  12.105  0.00  0.00    +0.000 NA
ATOM      4  C   UNL     1      47.853   8.074  13.560  0.00  0.00    +0.000 C 
ATOM      5  C   UNL     1      48.553   9.386  13.915  0.00  0.00    +0.000 C 
ATOM      6  C   UNL     1      50.020   9.382  13.453  0.00  0.00    +0.000 C 
ATOM      7  C   UNL     1      50.004   9.122  11.936  0.00  0.00    +0.000 C 
ATOM      8  C   UNL     1      49.227   7.849  11.568  0.00  0.00    +0.000 C 
BRANCH   3   9
ATOM      9  C   UNL     1      47.099   6.669  11.695  0.00  0.00    +0.000 C 
BRANCH   9  11
ATOM     10  C   UNL     1      44.802   7.809  11.471  0.00  0.00    +0.000 C 
ATOM     11  C   UNL     1      45.598   6.661  12.108  0.00  0.00    +0.000 C 
BRANCH  11  12
ATOM     12  C   UNL     1      44.919   5.321  11.839  0.00  0.00    +0.000 A 
ATOM     13  C   UNL     1      44.161   4.705  12.850  0.00  0.00    +0.000 A 
ATOM     14  C   UNL     1      43.523   3.483  12.625  0.00  0.00    +0.000 A 
ATOM     15  C   UNL     1      43.631   2.856  11.386  0.00  0.00    +0.000 A 
ATOM     16  C   UNL     1      44.370   3.460  10.373  0.00  0.00    +0.000 A 
ATOM     17 CL   UNL     1      44.499   2.692   8.838  0.00  0.00    +0.000 Cl
ATOM     18  C   UNL     1      45.010   4.683  10.592  0.00  0.00    +0.000 A 
ENDBRANCH  11  12
ENDBRANCH   9  11
ENDBRANCH   3   9
ENDBRANCH   1   6
BRANCH   1  19
ATOM     19  N   UNL     1      50.527   8.388  15.669  0.00  0.00    +0.000 N 
ATOM     20  C   UNL     1      50.272   7.246  16.398  0.00  0.00    +0.000 C 
ATOM     21  O   UNL     1      50.339   6.126  15.903  0.00  0.00    +0.000 OA
ATOM     22  H   UNL     1      50.331   9.296  16.084  0.00  0.00    +0.000 HD
BRANCH  20  23
ATOM     23  C   UNL     1      49.963   7.429  17.825  0.00  0.00    +0.000 A 
ATOM     24  C   UNL     1      50.727   8.306  18.577  0.00  0.00    +0.000 A 
ATOM     25  S   UNL     1      50.230   8.432  20.200  0.00  0.00    +0.000 S 
ATOM     26  C   UNL     1      49.004   7.276  19.969  0.00  0.00    +0.000 A 
ATOM     27  N   UNL     1      48.199   6.896  20.996  0.00  0.00    +0.000 NA
ATOM     28  C   UNL     1      47.339   5.980  20.689  0.00  0.00    +0.000 A 
ATOM     29  N   UNL     1      47.209   5.415  19.446  0.00  0.00    +0.000 N 
ATOM     30  C   UNL     1      47.966   5.804  18.368  0.00  0.00    +0.000 A 
ATOM     31  O   UNL     1      47.765   5.341  17.253  0.00  0.00    +0.000 OA
ATOM     32  C   UNL     1      48.968   6.811  18.662  0.00  0.00    +0.000 A 
ATOM     33  H   UNL     1      46.504   4.716  19.273  0.00  0.00    +0.000 HD
ENDBRANCH  20  23
ENDBRANCH   1  19
TORSDOF 6
ENDMDL
MODEL 9
REMARK VINA RESULT:    -6.820      4.160      8.237
REMARK INTER + INTRA:          -9.088
REMARK INTER:                  -8.472
REMARK INTRA:                  -0.616
REMARK UNBOUND:                 0.123
REMARK  Name = 
REMARK  8 active torsions:
REMARK  status: ('A' for Active; 'I' for Inactive)
REMARK    1  A    between atoms: C_1  and  C_2
REMARK    2  A    between atoms: C_2  and  C_3
REMARK    3  A    between atoms: C_2  and  C_25
REMARK    4  A    between atoms: C_3  and  N_4
REMARK    5  A    between atoms: C_7  and  C_8
REMARK    6  A    between atoms: C_8  and  C_9
REMARK    7  A    between atoms: C_8  and  N_10
REMARK    8  A    between atoms: C_11  and  C_13
REMARK                            x       y       z     vdW  Elec       q    Type
REMARK                         _______ _______ _______ _____ _____    ______ ____
ROOT
ATOM      1  C   UNL     1      50.168   8.305  14.928  0.00  0.00    +0.000 C 
ATOM      2  C   UNL     1      50.702   7.018  15.555  0.00  0.00    +0.000 C 
ENDROOT
BRANCH   1   6
ATOM      3  N   UNL     1      48.992   8.509  18.472  0.00  0.00    +0.000 NA
ATOM      4  C   UNL     1      50.331   8.092  18.034  0.00  0.00    +0.000 C 
ATOM      5  C   UNL     1      50.977   9.193  17.193  0.00  0.00    +0.000 C 
ATOM      6  C   UNL     1      50.153   9.493  15.930  0.00  0.00    +0.000 C 
ATOM      7  C   UNL     1      48.740   9.876  16.406  0.00  0.00    +0.000 C 
ATOM      8  C   UNL     1      48.121   8.810  17.322  0.00  0.00    +0.000 C 
BRANCH   3   9
ATOM      9  C   UNL     1      48.358   7.521  19.376  0.00  0.00    +0.000 C 
BRANCH   9  11
ATOM     10  C   UNL     1      49.168   5.803  21.114  0.00  0.00    +0.000 C 
ATOM     11  C   UNL     1      49.198   6.238  19.642  0.00  0.00    +0.000 C 
BRANCH  11  12
ATOM     12  C   UNL     1      48.808   5.078  18.730  0.00  0.00    +0.000 A 
ATOM     13  C   UNL     1      47.496   4.989  18.233  0.00  0.00    +0.000 A 
ATOM     14  C   UNL     1      47.116   3.942  17.390  0.00  0.00    +0.000 A 
ATOM     15  C   UNL     1      48.042   2.967  17.027  0.00  0.00    +0.000 A 
ATOM     16  C   UNL     1      49.348   3.049  17.503  0.00  0.00    +0.000 A 
ATOM     17 CL   UNL     1      50.497   1.850  17.049  0.00  0.00    +0.000 Cl
ATOM     18  C   UNL     1      49.733   4.094  18.346  0.00  0.00    +0.000 A 
ENDBRANCH  11  12
ENDBRANCH   9  11
ENDBRANCH   3   9
ENDBRANCH   1   6
BRANCH   1  19
ATOM     19  N   UNL     1      48.824   8.060  14.401  0.00  0.00    +0.000 N 
ATOM     20  C   UNL     1      48.594   7.596  13.124  0.00  0.00    +0.000 C 
ATOM     21  O   UNL     1      49.508   7.344  12.345  0.00  0.00    +0.000 OA
ATOM     22  H   UNL     1      48.037   8.379  14.962  0.00  0.00    +0.000 HD
BRANCH  20  23
ATOM     23  C   UNL     1      47.191   7.365  12.748  0.00  0.00    +0.000 A 
ATOM     24  C   UNL     1      46.479   8.380  12.130  0.00  0.00    +0.000 A 
ATOM     25  S   UNL     1      44.880   7.953  11.731  0.00  0.00    +0.000 S 
ATOM     26  C   UNL     1      45.065   6.409  12.419  0.00  0.00    +0.000 A 
ATOM     27  N   UNL     1      44.035   5.522  12.434  0.00  0.00    +0.000 NA
ATOM     28  C   UNL     1      44.303   4.404  13.025  0.00  0.00    +0.000 A 
ATOM     29  N   UNL     1      45.509   4.091  13.598  0.00  0.00    +0.000 N 
ATOM     30  C   UNL     1      46.591   4.936  13.563  0.00  0.00    +0.000 A 
ATOM     31  O   UNL     1      47.679   4.591  14.007  0.00  0.00    +0.000 OA
ATOM     32  C   UNL     1      46.339   6.219  12.934  0.00  0.00    +0.000 A 
ATOM     33  H   UNL     1      45.653   3.191  14.029  0.00  0.00    +0.000 HD
ENDBRANCH  20  23
ENDBRANCH   1  19
TORSDOF 6
ENDMDL
