MODEL 1
REMARK VINA RESULT:    -7.752      0.000      0.000
REMARK INTER + INTRA:         -10.593
REMARK INTER:                 -10.018
REMARK INTRA:                  -0.576
REMARK UNBOUND:                -0.576
REMARK  Name = 
REMARK  5 active torsions:
REMARK  status: ('A' for Active; 'I' for Inactive)
REMARK    1  A    between atoms: C_4  and  O_5
REMARK    2  A    between atoms: O_5  and  C_6
REMARK    3  A    between atoms: C_6  and  C_7
REMARK    4  A    between atoms: C_7  and  C_8
REMARK    5  A    between atoms: N_13  and  C_14
REMARK                            x       y       z     vdW  Elec       q    Type
REMARK                         _______ _______ _______ _____ _____    ______ ____
ROOT
ATOM      1  C   UNL     1      45.331   4.354  12.376  0.00  0.00    +0.000 A 
ATOM      2  C   UNL     1      45.529   5.539  11.689  0.00  0.00    +0.000 A 
ATOM      3  C   UNL     1      46.363   6.460  12.273  0.00  0.00    +0.000 A 
ATOM      4  N   UNL     1      46.984   6.256  13.443  0.00  0.00    +0.000 NA
ATOM      5  C   UNL     1      46.752   5.084  14.046  0.00  0.00    +0.000 A 
ATOM      6  N   UNL     1      47.443   4.889  15.239  0.00  0.00    +0.000 N 
ATOM      7  N   UNL     1      45.935   4.131  13.565  0.00  0.00    +0.000 NA
ATOM      8  H   UNL     1      47.833   5.790  15.505  0.00  0.00    +0.000 HD
ENDROOT
BRANCH   6   9
ATOM      9  C   UNL     1      46.976   4.062  16.300  0.00  0.00    +0.000 C 
ATOM     10  C   UNL     1      47.224   4.644  17.710  0.00  0.00    +0.000 C 
ATOM     11  N   UNL     1      47.695   3.304  18.146  0.00  0.00    +0.000 NA
ATOM     12  C   UNL     1      48.003   2.990  16.728  0.00  0.00    +0.000 C 
ATOM     13  H   UNL     1      46.942   2.725  18.524  0.00  0.00    +0.000 HD
ENDBRANCH   6   9
BRANCH   1  14
ATOM     14  C   UNL     1      44.449   3.235  11.848  0.00  0.00    +0.000 C 
BRANCH  14  15
ATOM     15  C   UNL     1      44.180   3.324  10.345  0.00  0.00    +0.000 C 
BRANCH  15  16
ATOM     16  O   UNL     1      44.376   2.083   9.659  0.00  0.00    +0.000 OA
BRANCH  16  20
ATOM     17  C   UNL     1      47.324   2.535   6.807  0.00  0.00    +0.000 A 
ATOM     18  C   UNL     1      46.560   3.634   7.188  0.00  0.00    +0.000 A 
ATOM     19  C   UNL     1      45.563   3.481   8.151  0.00  0.00    +0.000 A 
ATOM     20  C   UNL     1      45.372   2.223   8.698  0.00  0.00    +0.000 A 
ATOM     21  N   UNL     1      46.105   1.141   8.341  0.00  0.00    +0.000 NA
ATOM     22  C   UNL     1      47.061   1.318   7.408  0.00  0.00    +0.000 A 
ENDBRANCH  16  20
ENDBRANCH  15  16
ENDBRANCH  14  15
ENDBRANCH   1  14
TORSDOF 5
ENDMDL
MODEL 2
REMARK VINA RESULT:    -7.140      1.935      3.625
REMARK INTER + INTRA:          -9.802
REMARK INTER:                  -9.298
REMARK INTRA:                  -0.504
REMARK UNBOUND:                -0.576
REMARK  Name = 
REMARK  5 active torsions:
REMARK  status: ('A' for Active; 'I' for Inactive)
REMARK    1  A    between atoms: C_4  and  O_5
REMARK    2  A    between atoms: O_5  and  C_6
REMARK    3  A    between atoms: C_6  and  C_7
REMARK    4  A    between atoms: C_7  and  C_8
REMARK    5  A    between atoms: N_13  and  C_14
REMARK                            x       y       z     vdW  Elec       q    Type
REMARK                         _______ _______ _______ _____ _____    ______ ____
ROOT
ATOM      1  C   UNL     1      45.063   4.389  12.102  0.00  0.00    +0.000 A 
ATOM      2  C   UNL     1      45.749   3.363  12.729  0.00  0.00    +0.000 A 
ATOM      3  C   UNL     1      46.811   3.722  13.521  0.00  0.00    +0.000 A 
ATOM      4  N   UNL     1      47.192   4.993  13.714  0.00  0.00    +0.000 NA
ATOM      5  C   UNL     1      46.478   5.933  13.082  0.00  0.00    +0.000 A 
ATOM      6  N   UNL     1      46.875   7.243  13.336  0.00  0.00    +0.000 N 
ATOM      7  N   UNL     1      45.437   5.678  12.269  0.00  0.00    +0.000 NA
ATOM      8  H   UNL     1      47.777   7.193  13.803  0.00  0.00    +0.000 HD
ENDROOT
BRANCH   6   9
ATOM      9  C   UNL     1      46.694   8.318  12.419  0.00  0.00    +0.000 C 
ATOM     10  C   UNL     1      47.439   9.614  12.811  0.00  0.00    +0.000 C 
ATOM     11  N   UNL     1      46.212  10.382  12.481  0.00  0.00    +0.000 NA
ATOM     12  C   UNL     1      45.421   9.145  12.702  0.00  0.00    +0.000 C 
ATOM     13  H   UNL     1      46.191  10.695  11.508  0.00  0.00    +0.000 HD
ENDBRANCH   6   9
BRANCH   1  14
ATOM     14  C   UNL     1      43.858   4.147  11.209  0.00  0.00    +0.000 C 
BRANCH  14  15
ATOM     15  C   UNL     1      44.225   3.774   9.773  0.00  0.00    +0.000 C 
BRANCH  15  16
ATOM     16  O   UNL     1      44.644   2.413   9.629  0.00  0.00    +0.000 OA
BRANCH  16  20
ATOM     17  C   UNL     1      47.351   2.127   6.528  0.00  0.00    +0.000 A 
ATOM     18  C   UNL     1      46.708   3.337   6.771  0.00  0.00    +0.000 A 
ATOM     19  C   UNL     1      45.792   3.434   7.819  0.00  0.00    +0.000 A 
ATOM     20  C   UNL     1      45.558   2.305   8.586  0.00  0.00    +0.000 A 
ATOM     21  N   UNL     1      46.173   1.118   8.364  0.00  0.00    +0.000 NA
ATOM     22  C   UNL     1      47.052   1.054   7.346  0.00  0.00    +0.000 A 
ENDBRANCH  16  20
ENDBRANCH  15  16
ENDBRANCH  14  15
ENDBRANCH   1  14
TORSDOF 5
ENDMDL
MODEL 3
REMARK VINA RESULT:    -6.754      1.761      2.487
REMARK INTER + INTRA:          -9.304
REMARK INTER:                  -9.110
REMARK INTRA:                  -0.193
REMARK UNBOUND:                -0.576
REMARK  Name = 
REMARK  5 active torsions:
REMARK  status: ('A' for Active; 'I' for Inactive)
REMARK    1  A    between atoms: C_4  and  O_5
REMARK    2  A    between atoms: O_5  and  C_6
REMARK    3  A    between atoms: C_6  and  C_7
REMARK    4  A    between atoms: C_7  and  C_8
REMARK    5  A    between atoms: N_13  and  C_14
REMARK                            x       y       z     vdW  Elec       q    Type
REMARK                         _______ _______ _______ _____ _____    ______ ____
ROOT
ATOM      1  C   UNL     1      43.973   4.477  11.500  0.00  0.00    +0.000 A 
ATOM      2  C   UNL     1      43.010   5.422  11.191  0.00  0.00    +0.000 A 
ATOM      3  C   UNL     1      43.386   6.739  11.275  0.00  0.00    +0.000 A 
ATOM      4  N   UNL     1      44.620   7.134  11.624  0.00  0.00    +0.000 NA
ATOM      5  C   UNL     1      45.501   6.165  11.900  0.00  0.00    +0.000 A 
ATOM      6  N   UNL     1      46.781   6.609  12.220  0.00  0.00    +0.000 N 
ATOM      7  N   UNL     1      45.220   4.850  11.868  0.00  0.00    +0.000 NA
ATOM      8  H   UNL     1      46.717   7.611  12.374  0.00  0.00    +0.000 HD
ENDROOT
BRANCH   6   9
ATOM      9  C   UNL     1      47.681   5.894  13.061  0.00  0.00    +0.000 C 
ATOM     10  C   UNL     1      47.023   5.295  14.324  0.00  0.00    +0.000 C 
ATOM     11  N   UNL     1      48.174   5.791  15.121  0.00  0.00    +0.000 NA
ATOM     12  C   UNL     1      48.424   6.804  14.064  0.00  0.00    +0.000 C 
ATOM     13  H   UNL     1      48.928   5.105  15.195  0.00  0.00    +0.000 HD
ENDBRANCH   6   9
BRANCH   1  14
ATOM     14  C   UNL     1      43.708   2.983  11.436  0.00  0.00    +0.000 C 
BRANCH  14  15
ATOM     15  C   UNL     1      44.153   2.336  10.124  0.00  0.00    +0.000 C 
BRANCH  15  16
ATOM     16  O   UNL     1      44.545   3.287   9.128  0.00  0.00    +0.000 OA
BRANCH  16  20
ATOM     17  C   UNL     1      47.377   1.650   6.611  0.00  0.00    +0.000 A 
ATOM     18  C   UNL     1      46.942   2.955   6.401  0.00  0.00    +0.000 A 
ATOM     19  C   UNL     1      45.984   3.509   7.251  0.00  0.00    +0.000 A 
ATOM     20  C   UNL     1      45.499   2.725   8.285  0.00  0.00    +0.000 A 
ATOM     21  N   UNL     1      45.910   1.452   8.505  0.00  0.00    +0.000 NA
ATOM     22  C   UNL     1      46.836   0.944   7.668  0.00  0.00    +0.000 A 
ENDBRANCH  16  20
ENDBRANCH  15  16
ENDBRANCH  14  15
ENDBRANCH   1  14
TORSDOF 5
ENDMDL
MODEL 4
REMARK VINA RESULT:    -6.703      2.134      3.390
REMARK INTER + INTRA:          -9.239
REMARK INTER:                  -8.702
REMARK INTRA:                  -0.536
REMARK UNBOUND:                -0.576
REMARK  Name = 
REMARK  5 active torsions:
REMARK  status: ('A' for Active; 'I' for Inactive)
REMARK    1  A    between atoms: C_4  and  O_5
REMARK    2  A    between atoms: O_5  and  C_6
REMARK    3  A    between atoms: C_6  and  C_7
REMARK    4  A    between atoms: C_7  and  C_8
REMARK    5  A    between atoms: N_13  and  C_14
REMARK                            x       y       z     vdW  Elec       q    Type
REMARK                         _______ _______ _______ _____ _____    ______ ____
ROOT
ATOM      1  C   UNL     1      45.169   4.735  11.746  0.00  0.00    +0.000 A 
ATOM      2  C   UNL     1      45.439   3.449  12.181  0.00  0.00    +0.000 A 
ATOM      3  C   UNL     1      46.388   3.315  13.163  0.00  0.00    +0.000 A 
ATOM      4  N   UNL     1      47.036   4.352  13.711  0.00  0.00    +0.000 NA
ATOM      5  C   UNL     1      46.718   5.567  13.248  0.00  0.00    +0.000 A 
ATOM      6  N   UNL     1      47.381   6.624  13.866  0.00  0.00    +0.000 N 
ATOM      7  N   UNL     1      45.821   5.798  12.273  0.00  0.00    +0.000 NA
ATOM      8  H   UNL     1      48.134   6.220  14.415  0.00  0.00    +0.000 HD
ENDROOT
BRANCH   6   9
ATOM      9  C   UNL     1      47.657   7.868  13.229  0.00  0.00    +0.000 C 
ATOM     10  C   UNL     1      48.564   7.751  11.983  0.00  0.00    +0.000 C 
ATOM     11  N   UNL     1      49.338   8.919  12.475  0.00  0.00    +0.000 NA
ATOM     12  C   UNL     1      48.861   8.610  13.848  0.00  0.00    +0.000 C 
ATOM     13  H   UNL     1      48.979   9.808  12.124  0.00  0.00    +0.000 HD
ENDBRANCH   6   9
BRANCH   1  14
ATOM     14  C   UNL     1      44.135   5.042  10.677  0.00  0.00    +0.000 C 
BRANCH  14  15
ATOM     15  C   UNL     1      44.145   4.052   9.512  0.00  0.00    +0.000 C 
BRANCH  15  16
ATOM     16  O   UNL     1      44.956   4.479   8.412  0.00  0.00    +0.000 OA
BRANCH  16  20
ATOM     17  C   UNL     1      47.269   1.353   7.029  0.00  0.00    +0.000 A 
ATOM     18  C   UNL     1      47.353   2.598   6.412  0.00  0.00    +0.000 A 
ATOM     19  C   UNL     1      46.570   3.654   6.879  0.00  0.00    +0.000 A 
ATOM     20  C   UNL     1      45.730   3.418   7.954  0.00  0.00    +0.000 A 
ATOM     21  N   UNL     1      45.634   2.214   8.568  0.00  0.00    +0.000 NA
ATOM     22  C   UNL     1      46.401   1.212   8.096  0.00  0.00    +0.000 A 
ENDBRANCH  16  20
ENDBRANCH  15  16
ENDBRANCH  14  15
ENDBRANCH   1  14
TORSDOF 5
ENDMDL
MODEL 5
REMARK VINA RESULT:    -6.417      2.249      7.621
REMARK INTER + INTRA:          -8.869
REMARK INTER:                  -8.430
REMARK INTRA:                  -0.438
REMARK UNBOUND:                -0.576
REMARK  Name = 
REMARK  5 active torsions:
REMARK  status: ('A' for Active; 'I' for Inactive)
REMARK    1  A    between atoms: C_4  and  O_5
REMARK    2  A    between atoms: O_5  and  C_6
REMARK    3  A    between atoms: C_6  and  C_7
REMARK    4  A    between atoms: C_7  and  C_8
REMARK    5  A    between atoms: N_13  and  C_14
REMARK                            x       y       z     vdW  Elec       q    Type
REMARK                         _______ _______ _______ _____ _____    ______ ____
ROOT
ATOM      1  C   UNL     1      44.963   5.056  12.609  0.00  0.00    +0.000 A 
ATOM      2  C   UNL     1      43.655   5.442  12.843  0.00  0.00    +0.000 A 
ATOM      3  C   UNL     1      42.701   4.941  11.994  0.00  0.00    +0.000 A 
ATOM      4  N   UNL     1      42.977   4.106  10.981  0.00  0.00    +0.000 NA
ATOM      5  C   UNL     1      44.262   3.770  10.820  0.00  0.00    +0.000 A 
ATOM      6  N   UNL     1      44.510   2.871   9.785  0.00  0.00    +0.000 N 
ATOM      7  N   UNL     1      45.270   4.226  11.585  0.00  0.00    +0.000 NA
ATOM      8  H   UNL     1      43.659   2.818   9.231  0.00  0.00    +0.000 HD
ENDROOT
BRANCH   6   9
ATOM      9  C   UNL     1      45.739   2.805   9.069  0.00  0.00    +0.000 C 
ATOM     10  C   UNL     1      45.674   3.404   7.646  0.00  0.00    +0.000 C 
ATOM     11  N   UNL     1      46.419   2.220   7.147  0.00  0.00    +0.000 NA
ATOM     12  C   UNL     1      45.937   1.463   8.331  0.00  0.00    +0.000 C 
ATOM     13  H   UNL     1      47.431   2.359   7.153  0.00  0.00    +0.000 HD
ENDBRANCH   6   9
BRANCH   1  14
ATOM     14  C   UNL     1      46.124   5.516  13.474  0.00  0.00    +0.000 C 
BRANCH  14  15
ATOM     15  C   UNL     1      46.922   4.367  14.090  0.00  0.00    +0.000 C 
BRANCH  15  16
ATOM     16  O   UNL     1      46.439   3.965  15.376  0.00  0.00    +0.000 OA
BRANCH  16  20
ATOM     17  C   UNL     1      49.467   4.168  18.173  0.00  0.00    +0.000 A 
ATOM     18  C   UNL     1      48.516   3.154  18.259  0.00  0.00    +0.000 A 
ATOM     19  C   UNL     1      47.492   3.086  17.314  0.00  0.00    +0.000 A 
ATOM     20  C   UNL     1      47.464   4.043  16.314  0.00  0.00    +0.000 A 
ATOM     21  N   UNL     1      48.379   5.037  16.213  0.00  0.00    +0.000 NA
ATOM     22  C   UNL     1      49.356   5.079  17.140  0.00  0.00    +0.000 A 
ENDBRANCH  16  20
ENDBRANCH  15  16
ENDBRANCH  14  15
ENDBRANCH   1  14
TORSDOF 5
ENDMDL
MODEL 6
REMARK VINA RESULT:    -6.115      2.375      7.390
REMARK INTER + INTRA:          -8.478
REMARK INTER:                  -7.937
REMARK INTRA:                  -0.541
REMARK UNBOUND:                -0.576
REMARK  Name = 
REMARK  5 active torsions:
REMARK  status: ('A' for Active; 'I' for Inactive)
REMARK    1  A    between atoms: C_4  and  O_5
REMARK    2  A    between atoms: O_5  and  C_6
REMARK    3  A    between atoms: C_6  and  C_7
REMARK    4  A    between atoms: C_7  and  C_8
REMARK    5  A    between atoms: N_13  and  C_14
REMARK                            x       y       z     vdW  Elec       q    Type
REMARK                         _______ _______ _______ _____ _____    ______ ____
ROOT
ATOM      1  C   UNL     1      46.550   6.468  13.092  0.00  0.00    +0.000 A 
ATOM      2  C   UNL     1      46.272   7.823  13.134  0.00  0.00    +0.000 A 
ATOM      3  C   UNL     1      45.408   8.307  12.183  0.00  0.00    +0.000 A 
ATOM      4  N   UNL     1      44.830   7.537  11.250  0.00  0.00    +0.000 NA
ATOM      5  C   UNL     1      45.139   6.235  11.275  0.00  0.00    +0.000 A 
ATOM      6  N   UNL     1      44.491   5.458  10.318  0.00  0.00    +0.000 N 
ATOM      7  N   UNL     1      45.991   5.673  12.151  0.00  0.00    +0.000 NA
ATOM      8  H   UNL     1      44.063   6.100   9.657  0.00  0.00    +0.000 HD
ENDROOT
BRANCH   6   9
ATOM      9  C   UNL     1      45.029   4.255   9.777  0.00  0.00    +0.000 C 
ATOM     10  C   UNL     1      44.583   3.961   8.327  0.00  0.00    +0.000 C 
ATOM     11  N   UNL     1      44.338   2.550   8.722  0.00  0.00    +0.000 NA
ATOM     12  C   UNL     1      44.190   3.007  10.128  0.00  0.00    +0.000 C 
ATOM     13  H   UNL     1      45.157   1.954   8.586  0.00  0.00    +0.000 HD
ENDBRANCH   6   9
BRANCH   1  14
ATOM     14  C   UNL     1      47.473   5.787  14.088  0.00  0.00    +0.000 C 
BRANCH  14  15
ATOM     15  C   UNL     1      47.184   4.297  14.273  0.00  0.00    +0.000 C 
BRANCH  15  16
ATOM     16  O   UNL     1      46.526   3.996  15.508  0.00  0.00    +0.000 OA
BRANCH  16  20
ATOM     17  C   UNL     1      49.287   3.683  18.559  0.00  0.00    +0.000 A 
ATOM     18  C   UNL     1      48.217   4.564  18.687  0.00  0.00    +0.000 A 
ATOM     19  C   UNL     1      47.284   4.671  17.655  0.00  0.00    +0.000 A 
ATOM     20  C   UNL     1      47.463   3.883  16.530  0.00  0.00    +0.000 A 
ATOM     21  N   UNL     1      48.497   3.020  16.387  0.00  0.00    +0.000 NA
ATOM     22  C   UNL     1      49.383   2.938  17.399  0.00  0.00    +0.000 A 
ENDBRANCH  16  20
ENDBRANCH  15  16
ENDBRANCH  14  15
ENDBRANCH   1  14
TORSDOF 5
ENDMDL
MODEL 7
REMARK VINA RESULT:    -5.971      3.031      7.074
REMARK INTER + INTRA:          -8.292
REMARK INTER:                  -8.059
REMARK INTRA:                  -0.233
REMARK UNBOUND:                -0.576
REMARK  Name = 
REMARK  5 active torsions:
REMARK  status: ('A' for Active; 'I' for Inactive)
REMARK    1  A    between atoms: C_4  and  O_5
REMARK    2  A    between atoms: O_5  and  C_6
REMARK    3  A    between atoms: C_6  and  C_7
REMARK    4  A    between atoms: C_7  and  C_8
REMARK    5  A    between atoms: N_13  and  C_14
REMARK                            x       y       z     vdW  Elec       q    Type
REMARK                         _______ _______ _______ _____ _____    ______ ____
ROOT
ATOM      1  C   UNL     1      44.267   5.131  11.371  0.00  0.00    +0.000 A 
ATOM      2  C   UNL     1      43.503   4.344  12.216  0.00  0.00    +0.000 A 
ATOM      3  C   UNL     1      43.274   3.051  11.818  0.00  0.00    +0.000 A 
ATOM      4  N   UNL     1      43.756   2.532  10.680  0.00  0.00    +0.000 NA
ATOM      5  C   UNL     1      44.492   3.348   9.917  0.00  0.00    +0.000 A 
ATOM      6  N   UNL     1      45.010   2.765   8.763  0.00  0.00    +0.000 N 
ATOM      7  N   UNL     1      44.753   4.634  10.210  0.00  0.00    +0.000 NA
ATOM      8  H   UNL     1      44.537   1.874   8.644  0.00  0.00    +0.000 HD
ENDROOT
BRANCH   6   9
ATOM      9  C   UNL     1      45.306   3.490   7.573  0.00  0.00    +0.000 C 
ATOM     10  C   UNL     1      46.218   2.732   6.582  0.00  0.00    +0.000 C 
ATOM     11  N   UNL     1      47.006   3.977   6.401  0.00  0.00    +0.000 NA
ATOM     12  C   UNL     1      46.518   4.436   7.727  0.00  0.00    +0.000 C 
ATOM     13  H   UNL     1      46.661   4.555   5.633  0.00  0.00    +0.000 HD
ENDBRANCH   6   9
BRANCH   1  14
ATOM     14  C   UNL     1      44.618   6.575  11.685  0.00  0.00    +0.000 C 
BRANCH  14  15
ATOM     15  C   UNL     1      45.564   6.731  12.875  0.00  0.00    +0.000 C 
BRANCH  15  16
ATOM     16  O   UNL     1      46.711   5.877  12.804  0.00  0.00    +0.000 OA
BRANCH  16  20
ATOM     17  C   UNL     1      50.152   8.154  12.821  0.00  0.00    +0.000 A 
ATOM     18  C   UNL     1      49.330   8.158  11.699  0.00  0.00    +0.000 A 
ATOM     19  C   UNL     1      48.166   7.388  11.692  0.00  0.00    +0.000 A 
ATOM     20  C   UNL     1      47.874   6.640  12.821  0.00  0.00    +0.000 A 
ATOM     21  N   UNL     1      48.662   6.622  13.923  0.00  0.00    +0.000 NA
ATOM     22  C   UNL     1      49.779   7.375  13.900  0.00  0.00    +0.000 A 
ENDBRANCH  16  20
ENDBRANCH  15  16
ENDBRANCH  14  15
ENDBRANCH   1  14
TORSDOF 5
ENDMDL
MODEL 8
REMARK VINA RESULT:    -5.920      1.845      2.531
REMARK INTER + INTRA:          -8.226
REMARK INTER:                  -7.718
REMARK INTRA:                  -0.508
REMARK UNBOUND:                -0.576
REMARK  Name = 
REMARK  5 active torsions:
REMARK  status: ('A' for Active; 'I' for Inactive)
REMARK    1  A    between atoms: C_4  and  O_5
REMARK    2  A    between atoms: O_5  and  C_6
REMARK    3  A    between atoms: C_6  and  C_7
REMARK    4  A    between atoms: C_7  and  C_8
REMARK    5  A    between atoms: N_13  and  C_14
REMARK                            x       y       z     vdW  Elec       q    Type
REMARK                         _______ _______ _______ _____ _____    ______ ____
ROOT
ATOM      1  C   UNL     1      47.131   5.321  13.820  0.00  0.00    +0.000 A 
ATOM      2  C   UNL     1      47.805   6.331  13.155  0.00  0.00    +0.000 A 
ATOM      3  C   UNL     1      48.814   6.957  13.843  0.00  0.00    +0.000 A 
ATOM      4  N   UNL     1      49.169   6.630  15.094  0.00  0.00    +0.000 NA
ATOM      5  C   UNL     1      48.479   5.640  15.671  0.00  0.00    +0.000 A 
ATOM      6  N   UNL     1      48.899   5.300  16.955  0.00  0.00    +0.000 N 
ATOM      7  N   UNL     1      47.460   4.983  15.088  0.00  0.00    +0.000 NA
ATOM      8  H   UNL     1      49.529   6.035  17.263  0.00  0.00    +0.000 HD
ENDROOT
BRANCH   6   9
ATOM      9  C   UNL     1      48.044   4.739  17.946  0.00  0.00    +0.000 C 
ATOM     10  C   UNL     1      47.374   5.784  18.866  0.00  0.00    +0.000 C 
ATOM     11  N   UNL     1      47.707   4.926  20.032  0.00  0.00    +0.000 NA
ATOM     12  C   UNL     1      48.798   4.318  19.227  0.00  0.00    +0.000 C 
ATOM     13  H   UNL     1      46.966   4.260  20.257  0.00  0.00    +0.000 HD
ENDBRANCH   6   9
BRANCH   1  14
ATOM     14  C   UNL     1      46.003   4.527  13.183  0.00  0.00    +0.000 C 
BRANCH  14  15
ATOM     15  C   UNL     1      45.160   5.341  12.201  0.00  0.00    +0.000 C 
BRANCH  15  16
ATOM     16  O   UNL     1      44.124   4.578  11.574  0.00  0.00    +0.000 OA
BRANCH  16  20
ATOM     17  C   UNL     1      45.528   2.985   8.035  0.00  0.00    +0.000 A 
ATOM     18  C   UNL     1      45.768   4.324   8.331  0.00  0.00    +0.000 A 
ATOM     19  C   UNL     1      45.293   4.863   9.527  0.00  0.00    +0.000 A 
ATOM     20  C   UNL     1      44.592   4.031  10.384  0.00  0.00    +0.000 A 
ATOM     21  N   UNL     1      44.347   2.726  10.113  0.00  0.00    +0.000 NA
ATOM     22  C   UNL     1      44.818   2.233   8.951  0.00  0.00    +0.000 A 
ENDBRANCH  16  20
ENDBRANCH  15  16
ENDBRANCH  14  15
ENDBRANCH   1  14
TORSDOF 5
ENDMDL
MODEL 9
REMARK VINA RESULT:    -5.842      2.304      7.154
REMARK INTER + INTRA:          -8.125
REMARK INTER:                  -7.971
REMARK INTRA:                  -0.154
REMARK UNBOUND:                -0.576
REMARK  Name = 
REMARK  5 active torsions:
REMARK  status: ('A' for Active; 'I' for Inactive)
REMARK    1  A    between atoms: C_4  and  O_5
REMARK    2  A    between atoms: O_5  and  C_6
REMARK    3  A    between atoms: C_6  and  C_7
REMARK    4  A    between atoms: C_7  and  C_8
REMARK    5  A    between atoms: N_13  and  C_14
REMARK                            x       y       z     vdW  Elec       q    Type
REMARK                         _______ _______ _______ _____ _____    ______ ____
ROOT
ATOM      1  C   UNL     1      44.237   5.484  11.594  0.00  0.00    +0.000 A 
ATOM      2  C   UNL     1      43.497   4.783  12.531  0.00  0.00    +0.000 A 
ATOM      3  C   UNL     1      43.238   3.464  12.253  0.00  0.00    +0.000 A 
ATOM      4  N   UNL     1      43.671   2.843  11.147  0.00  0.00    +0.000 NA
ATOM      5  C   UNL     1      44.386   3.581  10.289  0.00  0.00    +0.000 A 
ATOM      6  N   UNL     1      44.853   2.895   9.171  0.00  0.00    +0.000 N 
ATOM      7  N   UNL     1      44.672   4.884  10.462  0.00  0.00    +0.000 NA
ATOM      8  H   UNL     1      44.365   2.004   9.146  0.00  0.00    +0.000 HD
ENDROOT
BRANCH   6   9
ATOM      9  C   UNL     1      45.112   3.513   7.913  0.00  0.00    +0.000 C 
ATOM     10  C   UNL     1      46.144   2.762   7.042  0.00  0.00    +0.000 C 
ATOM     11  N   UNL     1      46.790   4.065   6.740  0.00  0.00    +0.000 NA
ATOM     12  C   UNL     1      46.198   4.608   7.990  0.00  0.00    +0.000 C 
ATOM     13  H   UNL     1      46.412   4.508   5.900  0.00  0.00    +0.000 HD
ENDBRANCH   6   9
BRANCH   1  14
ATOM     14  C   UNL     1      44.616   6.944  11.771  0.00  0.00    +0.000 C 
BRANCH  14  15
ATOM     15  C   UNL     1      45.688   7.175  12.835  0.00  0.00    +0.000 C 
BRANCH  15  16
ATOM     16  O   UNL     1      46.846   6.350  12.663  0.00  0.00    +0.000 OA
BRANCH  16  20
ATOM     17  C   UNL     1      48.157   4.981  16.329  0.00  0.00    +0.000 A 
ATOM     18  C   UNL     1      48.678   6.162  15.809  0.00  0.00    +0.000 A 
ATOM     19  C   UNL     1      48.235   6.625  14.569  0.00  0.00    +0.000 A 
ATOM     20  C   UNL     1      47.281   5.879  13.898  0.00  0.00    +0.000 A 
ATOM     21  N   UNL     1      46.762   4.727  14.387  0.00  0.00    +0.000 NA
ATOM     22  C   UNL     1      47.209   4.304  15.586  0.00  0.00    +0.000 A 
ENDBRANCH  16  20
ENDBRANCH  15  16
ENDBRANCH  14  15
ENDBRANCH   1  14
TORSDOF 5
ENDMDL
