MODEL 1
REMARK VINA RESULT:    -7.470      0.000      0.000
REMARK INTER + INTRA:          -9.082
REMARK INTER:                  -8.780
REMARK INTRA:                  -0.303
REMARK UNBOUND:                -0.303
REMARK  Name = 
REMARK  3 active torsions:
REMARK  status: ('A' for Active; 'I' for Inactive)
REMARK    1  A    between atoms: C_13  and  C_14
REMARK    2  A    between atoms: C_14  and  C_15
REMARK    3  A    between atoms: C_15  and  N_16
REMARK                            x       y       z     vdW  Elec       q    Type
REMARK                         _______ _______ _______ _____ _____    ______ ____
ROOT
ATOM      1 CL   UNL     1      44.140   2.952  12.867  0.00  0.00    +0.000 Cl
ATOM      2  C   UNL     1      45.242   4.272  12.752  0.00  0.00    +0.000 A 
ATOM      3  C   UNL     1      46.144   4.349  13.808  0.00  0.00    +0.000 A 
ATOM      4  C   UNL     1      47.100   5.352  13.837  0.00  0.00    +0.000 A 
ATOM      5  C   UNL     1      47.169   6.278  12.806  0.00  0.00    +0.000 A 
ATOM      6  N   UNL     1      48.146   7.249  12.808  0.00  0.00    +0.000 N 
ATOM      7  C   UNL     1      48.607   7.835  11.557  0.00  0.00    +0.000 C 
ATOM      8  C   UNL     1      50.137   7.724  11.515  0.00  0.00    +0.000 C 
ATOM      9  C   UNL     1      50.796   8.297  12.774  0.00  0.00    +0.000 C 
ATOM     10  C   UNL     1      50.178   7.714  14.047  0.00  0.00    +0.000 C 
ATOM     11  C   UNL     1      48.659   7.861  14.028  0.00  0.00    +0.000 C 
ATOM     12  N   UNL     1      46.300   6.199  11.768  0.00  0.00    +0.000 NA
ATOM     13  C   UNL     1      45.328   5.226  11.731  0.00  0.00    +0.000 A 
ENDROOT
BRANCH  13  14
ATOM     14  C   UNL     1      44.428   5.352  10.505  0.00  0.00    +0.000 C 
BRANCH  14  15
ATOM     15  C   UNL     1      44.148   4.091   9.691  0.00  0.00    +0.000 C 
BRANCH  15  16
ATOM     16  N   UNL     1      44.388   4.233   8.257  0.00  0.00    +0.000 N 
ATOM     17  C   UNL     1      45.359   3.311   7.830  0.00  0.00    +0.000 A 
ATOM     18  N   UNL     1      45.466   2.124   8.452  0.00  0.00    +0.000 NA
ATOM     19  C   UNL     1      46.449   1.296   8.061  0.00  0.00    +0.000 A 
ATOM     20  C   UNL     1      47.324   1.598   7.054  0.00  0.00    +0.000 A 
ATOM     21  C   UNL     1      47.133   2.829   6.469  0.00  0.00    +0.000 A 
ATOM     22  N   UNL     1      46.172   3.700   6.845  0.00  0.00    +0.000 NA
ATOM     23  H   UNL     1      44.727   5.139   7.948  0.00  0.00    +0.000 HD
ENDBRANCH  15  16
ENDBRANCH  14  15
ENDBRANCH  13  14
TORSDOF 3
ENDMDL
MODEL 2
REMARK VINA RESULT:    -7.339      1.480      1.993
REMARK INTER + INTRA:          -8.929
REMARK INTER:                  -8.621
REMARK INTRA:                  -0.308
REMARK UNBOUND:                -0.303
REMARK  Name = 
REMARK  3 active torsions:
REMARK  status: ('A' for Active; 'I' for Inactive)
REMARK    1  A    between atoms: C_13  and  C_14
REMARK    2  A    between atoms: C_14  and  C_15
REMARK    3  A    between atoms: C_15  and  N_16
REMARK                            x       y       z     vdW  Elec       q    Type
REMARK                         _______ _______ _______ _____ _____    ______ ____
ROOT
ATOM      1 CL   UNL     1      42.285   5.809  11.586  0.00  0.00    +0.000 Cl
ATOM      2  C   UNL     1      43.968   6.159  11.713  0.00  0.00    +0.000 A 
ATOM      3  C   UNL     1      44.260   7.518  11.763  0.00  0.00    +0.000 A 
ATOM      4  C   UNL     1      45.573   7.946  11.882  0.00  0.00    +0.000 A 
ATOM      5  C   UNL     1      46.602   7.019  11.966  0.00  0.00    +0.000 A 
ATOM      6  N   UNL     1      47.903   7.438  12.131  0.00  0.00    +0.000 N 
ATOM      7  C   UNL     1      48.883   6.571  12.772  0.00  0.00    +0.000 C 
ATOM      8  C   UNL     1      49.550   7.364  13.905  0.00  0.00    +0.000 C 
ATOM      9  C   UNL     1      50.100   8.711  13.424  0.00  0.00    +0.000 C 
ATOM     10  C   UNL     1      49.042   9.512  12.662  0.00  0.00    +0.000 C 
ATOM     11  C   UNL     1      48.424   8.670  11.549  0.00  0.00    +0.000 C 
ATOM     12  N   UNL     1      46.320   5.692  11.931  0.00  0.00    +0.000 NA
ATOM     13  C   UNL     1      45.027   5.246  11.789  0.00  0.00    +0.000 A 
ENDROOT
BRANCH  13  14
ATOM     14  C   UNL     1      44.942   3.724  11.721  0.00  0.00    +0.000 C 
BRANCH  14  15
ATOM     15  C   UNL     1      44.051   3.105  10.647  0.00  0.00    +0.000 C 
BRANCH  15  16
ATOM     16  N   UNL     1      44.106   3.782   9.354  0.00  0.00    +0.000 N 
ATOM     17  C   UNL     1      45.129   3.235   8.560  0.00  0.00    +0.000 A 
ATOM     18  N   UNL     1      45.451   1.937   8.695  0.00  0.00    +0.000 NA
ATOM     19  C   UNL     1      46.478   1.466   7.968  0.00  0.00    +0.000 A 
ATOM     20  C   UNL     1      47.189   2.238   7.091  0.00  0.00    +0.000 A 
ATOM     21  C   UNL     1      46.782   3.550   7.011  0.00  0.00    +0.000 A 
ATOM     22  N   UNL     1      45.770   4.070   7.738  0.00  0.00    +0.000 NA
ATOM     23  H   UNL     1      44.294   4.780   9.379  0.00  0.00    +0.000 HD
ENDBRANCH  15  16
ENDBRANCH  14  15
ENDBRANCH  13  14
TORSDOF 3
ENDMDL
MODEL 3
REMARK VINA RESULT:    -7.314      1.651      1.837
REMARK INTER + INTRA:          -8.900
REMARK INTER:                  -8.531
REMARK INTRA:                  -0.369
REMARK UNBOUND:                -0.303
REMARK  Name = 
REMARK  3 active torsions:
REMARK  status: ('A' for Active; 'I' for Inactive)
REMARK    1  A    between atoms: C_13  and  C_14
REMARK    2  A    between atoms: C_14  and  C_15
REMARK    3  A    between atoms: C_15  and  N_16
REMARK                            x       y       z     vdW  Elec       q    Type
REMARK                         _______ _______ _______ _____ _____    ______ ____
ROOT
ATOM      1 CL   UNL     1      45.656   2.928  12.703  0.00  0.00    +0.000 Cl
ATOM      2  C   UNL     1      45.933   4.623  12.856  0.00  0.00    +0.000 A 
ATOM      3  C   UNL     1      47.177   4.945  13.389  0.00  0.00    +0.000 A 
ATOM      4  C   UNL     1      47.542   6.272  13.554  0.00  0.00    +0.000 A 
ATOM      5  C   UNL     1      46.673   7.286  13.176  0.00  0.00    +0.000 A 
ATOM      6  N   UNL     1      47.050   8.605  13.295  0.00  0.00    +0.000 N 
ATOM      7  C   UNL     1      46.464   9.621  12.431  0.00  0.00    +0.000 C 
ATOM      8  C   UNL     1      47.610  10.404  11.774  0.00  0.00    +0.000 C 
ATOM      9  C   UNL     1      48.613  10.936  12.804  0.00  0.00    +0.000 C 
ATOM     10  C   UNL     1      49.093   9.829  13.745  0.00  0.00    +0.000 C 
ATOM     11  C   UNL     1      47.908   9.095  14.367  0.00  0.00    +0.000 C 
ATOM     12  N   UNL     1      45.465   6.975  12.643  0.00  0.00    +0.000 NA
ATOM     13  C   UNL     1      45.072   5.665  12.493  0.00  0.00    +0.000 A 
ENDROOT
BRANCH  13  14
ATOM     14  C   UNL     1      43.661   5.543  11.926  0.00  0.00    +0.000 C 
BRANCH  14  15
ATOM     15  C   UNL     1      43.412   4.491  10.848  0.00  0.00    +0.000 C 
BRANCH  15  16
ATOM     16  N   UNL     1      43.791   4.908   9.500  0.00  0.00    +0.000 N 
ATOM     17  C   UNL     1      44.649   3.959   8.917  0.00  0.00    +0.000 A 
ATOM     18  N   UNL     1      44.527   2.663   9.251  0.00  0.00    +0.000 NA
ATOM     19  C   UNL     1      45.408   1.794   8.725  0.00  0.00    +0.000 A 
ATOM     20  C   UNL     1      46.400   2.167   7.861  0.00  0.00    +0.000 A 
ATOM     21  C   UNL     1      46.441   3.511   7.569  0.00  0.00    +0.000 A 
ATOM     22  N   UNL     1      45.590   4.421   8.091  0.00  0.00    +0.000 NA
ATOM     23  H   UNL     1      44.284   5.793   9.428  0.00  0.00    +0.000 HD
ENDBRANCH  15  16
ENDBRANCH  14  15
ENDBRANCH  13  14
TORSDOF 3
ENDMDL
MODEL 4
REMARK VINA RESULT:    -7.017      3.647      7.473
REMARK INTER + INTRA:          -8.550
REMARK INTER:                  -7.789
REMARK INTRA:                  -0.762
REMARK UNBOUND:                -0.303
REMARK  Name = 
REMARK  3 active torsions:
REMARK  status: ('A' for Active; 'I' for Inactive)
REMARK    1  A    between atoms: C_13  and  C_14
REMARK    2  A    between atoms: C_14  and  C_15
REMARK    3  A    between atoms: C_15  and  N_16
REMARK                            x       y       z     vdW  Elec       q    Type
REMARK                         _______ _______ _______ _____ _____    ______ ____
ROOT
ATOM      1 CL   UNL     1      48.263  10.139  13.124  0.00  0.00    +0.000 Cl
ATOM      2  C   UNL     1      47.379   8.659  13.107  0.00  0.00    +0.000 A 
ATOM      3  C   UNL     1      46.078   8.784  12.631  0.00  0.00    +0.000 A 
ATOM      4  C   UNL     1      45.256   7.671  12.546  0.00  0.00    +0.000 A 
ATOM      5  C   UNL     1      45.733   6.423  12.924  0.00  0.00    +0.000 A 
ATOM      6  N   UNL     1      44.936   5.308  12.797  0.00  0.00    +0.000 N 
ATOM      7  C   UNL     1      45.532   3.989  12.630  0.00  0.00    +0.000 C 
ATOM      8  C   UNL     1      44.902   3.336  11.392  0.00  0.00    +0.000 C 
ATOM      9  C   UNL     1      43.371   3.347  11.446  0.00  0.00    +0.000 C 
ATOM     10  C   UNL     1      42.828   4.747  11.739  0.00  0.00    +0.000 C 
ATOM     11  C   UNL     1      43.489   5.336  12.982  0.00  0.00    +0.000 C 
ATOM     12  N   UNL     1      47.005   6.296  13.376  0.00  0.00    +0.000 NA
ATOM     13  C   UNL     1      47.830   7.391  13.491  0.00  0.00    +0.000 A 
ENDROOT
BRANCH  13  14
ATOM     14  C   UNL     1      49.196   7.031  14.068  0.00  0.00    +0.000 C 
BRANCH  14  15
ATOM     15  C   UNL     1      49.358   7.049  15.586  0.00  0.00    +0.000 C 
BRANCH  15  16
ATOM     16  N   UNL     1      48.221   6.498  16.320  0.00  0.00    +0.000 N 
ATOM     17  C   UNL     1      48.497   5.184  16.734  0.00  0.00    +0.000 A 
ATOM     18  N   UNL     1      49.762   4.829  17.017  0.00  0.00    +0.000 NA
ATOM     19  C   UNL     1      49.997   3.547  17.344  0.00  0.00    +0.000 A 
ATOM     20  C   UNL     1      49.011   2.602  17.419  0.00  0.00    +0.000 A 
ATOM     21  C   UNL     1      47.746   3.058  17.124  0.00  0.00    +0.000 A 
ATOM     22  N   UNL     1      47.469   4.332  16.770  0.00  0.00    +0.000 NA
ATOM     23  H   UNL     1      47.345   6.438  15.809  0.00  0.00    +0.000 HD
ENDBRANCH  15  16
ENDBRANCH  14  15
ENDBRANCH  13  14
TORSDOF 3
ENDMDL
MODEL 5
REMARK VINA RESULT:    -6.119      5.295      7.144
REMARK INTER + INTRA:          -7.495
REMARK INTER:                  -7.219
REMARK INTRA:                  -0.277
REMARK UNBOUND:                -0.303
REMARK  Name = 
REMARK  3 active torsions:
REMARK  status: ('A' for Active; 'I' for Inactive)
REMARK    1  A    between atoms: C_13  and  C_14
REMARK    2  A    between atoms: C_14  and  C_15
REMARK    3  A    between atoms: C_15  and  N_16
REMARK                            x       y       z     vdW  Elec       q    Type
REMARK                         _______ _______ _______ _____ _____    ______ ____
ROOT
ATOM      1 CL   UNL     1      47.011   6.203  18.973  0.00  0.00    +0.000 Cl
ATOM      2  C   UNL     1      48.320   5.201  18.469  0.00  0.00    +0.000 A 
ATOM      3  C   UNL     1      49.489   5.390  19.199  0.00  0.00    +0.000 A 
ATOM      4  C   UNL     1      50.618   4.639  18.914  0.00  0.00    +0.000 A 
ATOM      5  C   UNL     1      50.584   3.685  17.906  0.00  0.00    +0.000 A 
ATOM      6  N   UNL     1      51.690   2.905  17.650  0.00  0.00    +0.000 N 
ATOM      7  C   UNL     1      51.539   1.585  17.054  0.00  0.00    +0.000 C 
ATOM      8  C   UNL     1      52.287   0.576  17.937  0.00  0.00    +0.000 C 
ATOM      9  C   UNL     1      53.735   1.000  18.204  0.00  0.00    +0.000 C 
ATOM     10  C   UNL     1      53.814   2.438  18.720  0.00  0.00    +0.000 C 
ATOM     11  C   UNL     1      53.058   3.388  17.796  0.00  0.00    +0.000 C 
ATOM     12  N   UNL     1      49.442   3.489  17.201  0.00  0.00    +0.000 NA
ATOM     13  C   UNL     1      48.317   4.239  17.452  0.00  0.00    +0.000 A 
ENDROOT
BRANCH  13  14
ATOM     14  C   UNL     1      47.166   3.892  16.512  0.00  0.00    +0.000 C 
BRANCH  14  15
ATOM     15  C   UNL     1      47.125   4.578  15.149  0.00  0.00    +0.000 C 
BRANCH  15  16
ATOM     16  N   UNL     1      46.750   3.700  14.043  0.00  0.00    +0.000 N 
ATOM     17  C   UNL     1      45.678   4.253  13.321  0.00  0.00    +0.000 A 
ATOM     18  N   UNL     1      45.552   5.589  13.240  0.00  0.00    +0.000 NA
ATOM     19  C   UNL     1      44.478   6.081  12.600  0.00  0.00    +0.000 A 
ATOM     20  C   UNL     1      43.528   5.288  12.017  0.00  0.00    +0.000 A 
ATOM     21  C   UNL     1      43.745   3.935  12.141  0.00  0.00    +0.000 A 
ATOM     22  N   UNL     1      44.798   3.399  12.794  0.00  0.00    +0.000 NA
ATOM     23  H   UNL     1      46.446   2.765  14.297  0.00  0.00    +0.000 HD
ENDBRANCH  15  16
ENDBRANCH  14  15
ENDBRANCH  13  14
TORSDOF 3
ENDMDL
MODEL 6
REMARK VINA RESULT:    -5.989      3.534      5.949
REMARK INTER + INTRA:          -7.342
REMARK INTER:                  -6.690
REMARK INTRA:                  -0.652
REMARK UNBOUND:                -0.303
REMARK  Name = 
REMARK  3 active torsions:
REMARK  status: ('A' for Active; 'I' for Inactive)
REMARK    1  A    between atoms: C_13  and  C_14
REMARK    2  A    between atoms: C_14  and  C_15
REMARK    3  A    between atoms: C_15  and  N_16
REMARK                            x       y       z     vdW  Elec       q    Type
REMARK                         _______ _______ _______ _____ _____    ______ ____
ROOT
ATOM      1 CL   UNL     1      49.447  10.191  13.889  0.00  0.00    +0.000 Cl
ATOM      2  C   UNL     1      49.275   8.616  14.570  0.00  0.00    +0.000 A 
ATOM      3  C   UNL     1      49.685   8.526  15.896  0.00  0.00    +0.000 A 
ATOM      4  C   UNL     1      49.587   7.323  16.577  0.00  0.00    +0.000 A 
ATOM      5  C   UNL     1      49.068   6.204  15.941  0.00  0.00    +0.000 A 
ATOM      6  N   UNL     1      48.927   5.018  16.627  0.00  0.00    +0.000 N 
ATOM      7  C   UNL     1      47.918   4.048  16.224  0.00  0.00    +0.000 C 
ATOM      8  C   UNL     1      47.079   3.693  17.460  0.00  0.00    +0.000 C 
ATOM      9  C   UNL     1      47.949   3.262  18.646  0.00  0.00    +0.000 C 
ATOM     10  C   UNL     1      49.055   4.279  18.933  0.00  0.00    +0.000 C 
ATOM     11  C   UNL     1      49.852   4.584  17.667  0.00  0.00    +0.000 C 
ATOM     12  N   UNL     1      48.655   6.291  14.652  0.00  0.00    +0.000 NA
ATOM     13  C   UNL     1      48.765   7.469  13.950  0.00  0.00    +0.000 A 
ENDROOT
BRANCH  13  14
ATOM     14  C   UNL     1      48.292   7.331  12.506  0.00  0.00    +0.000 C 
BRANCH  14  15
ATOM     15  C   UNL     1      46.788   7.276  12.249  0.00  0.00    +0.000 C 
BRANCH  15  16
ATOM     16  N   UNL     1      46.034   6.517  13.244  0.00  0.00    +0.000 N 
ATOM     17  C   UNL     1      45.011   5.779  12.623  0.00  0.00    +0.000 A 
ATOM     18  N   UNL     1      45.186   5.327  11.369  0.00  0.00    +0.000 NA
ATOM     19  C   UNL     1      44.161   4.685  10.784  0.00  0.00    +0.000 A 
ATOM     20  C   UNL     1      42.967   4.457  11.410  0.00  0.00    +0.000 A 
ATOM     21  C   UNL     1      42.882   4.946  12.694  0.00  0.00    +0.000 A 
ATOM     22  N   UNL     1      43.879   5.615  13.312  0.00  0.00    +0.000 NA
ATOM     23  H   UNL     1      45.570   7.061  13.965  0.00  0.00    +0.000 HD
ENDBRANCH  15  16
ENDBRANCH  14  15
ENDBRANCH  13  14
TORSDOF 3
ENDMDL
MODEL 7
REMARK VINA RESULT:    -5.909      3.438      5.724
REMARK INTER + INTRA:          -7.248
REMARK INTER:                  -6.660
REMARK INTRA:                  -0.588
REMARK UNBOUND:                -0.303
REMARK  Name = 
REMARK  3 active torsions:
REMARK  status: ('A' for Active; 'I' for Inactive)
REMARK    1  A    between atoms: C_13  and  C_14
REMARK    2  A    between atoms: C_14  and  C_15
REMARK    3  A    between atoms: C_15  and  N_16
REMARK                            x       y       z     vdW  Elec       q    Type
REMARK                         _______ _______ _______ _____ _____    ______ ____
ROOT
ATOM      1 CL   UNL     1      42.962   5.691  11.541  0.00  0.00    +0.000 Cl
ATOM      2  C   UNL     1      44.562   6.285  11.786  0.00  0.00    +0.000 A 
ATOM      3  C   UNL     1      44.680   7.664  11.643  0.00  0.00    +0.000 A 
ATOM      4  C   UNL     1      45.907   8.282  11.829  0.00  0.00    +0.000 A 
ATOM      5  C   UNL     1      47.021   7.528  12.172  0.00  0.00    +0.000 A 
ATOM      6  N   UNL     1      48.232   8.143  12.402  0.00  0.00    +0.000 N 
ATOM      7  C   UNL     1      49.219   7.525  13.276  0.00  0.00    +0.000 C 
ATOM      8  C   UNL     1      49.638   8.561  14.328  0.00  0.00    +0.000 C 
ATOM      9  C   UNL     1      50.079   9.885  13.695  0.00  0.00    +0.000 C 
ATOM     10  C   UNL     1      49.038  10.410  12.704  0.00  0.00    +0.000 C 
ATOM     11  C   UNL     1      48.670   9.334  11.685  0.00  0.00    +0.000 C 
ATOM     12  N   UNL     1      46.907   6.185  12.325  0.00  0.00    +0.000 NA
ATOM     13  C   UNL     1      45.704   5.549  12.122  0.00  0.00    +0.000 A 
ENDROOT
BRANCH  13  14
ATOM     14  C   UNL     1      45.811   4.037  12.296  0.00  0.00    +0.000 C 
BRANCH  14  15
ATOM     15  C   UNL     1      46.346   3.506  13.623  0.00  0.00    +0.000 C 
BRANCH  15  16
ATOM     16  N   UNL     1      46.608   4.538  14.624  0.00  0.00    +0.000 N 
ATOM     17  C   UNL     1      47.292   3.992  15.723  0.00  0.00    +0.000 A 
ATOM     18  N   UNL     1      48.131   2.958  15.535  0.00  0.00    +0.000 NA
ATOM     19  C   UNL     1      48.715   2.418  16.618  0.00  0.00    +0.000 A 
ATOM     20  C   UNL     1      48.509   2.884  17.888  0.00  0.00    +0.000 A 
ATOM     21  C   UNL     1      47.644   3.950  17.983  0.00  0.00    +0.000 A 
ATOM     22  N   UNL     1      47.020   4.509  16.924  0.00  0.00    +0.000 NA
ATOM     23  H   UNL     1      45.791   4.996  15.018  0.00  0.00    +0.000 HD
ENDBRANCH  15  16
ENDBRANCH  14  15
ENDBRANCH  13  14
TORSDOF 3
ENDMDL
MODEL 8
REMARK VINA RESULT:    -5.633      4.129      7.094
REMARK INTER + INTRA:          -6.924
REMARK INTER:                  -6.075
REMARK INTRA:                  -0.848
REMARK UNBOUND:                -0.303
REMARK  Name = 
REMARK  3 active torsions:
REMARK  status: ('A' for Active; 'I' for Inactive)
REMARK    1  A    between atoms: C_13  and  C_14
REMARK    2  A    between atoms: C_14  and  C_15
REMARK    3  A    between atoms: C_15  and  N_16
REMARK                            x       y       z     vdW  Elec       q    Type
REMARK                         _______ _______ _______ _____ _____    ______ ____
ROOT
ATOM      1 CL   UNL     1      49.065   4.552  19.422  0.00  0.00    +0.000 Cl
ATOM      2  C   UNL     1      48.531   4.721  17.791  0.00  0.00    +0.000 A 
ATOM      3  C   UNL     1      47.469   3.888  17.456  0.00  0.00    +0.000 A 
ATOM      4  C   UNL     1      46.926   3.929  16.181  0.00  0.00    +0.000 A 
ATOM      5  C   UNL     1      47.432   4.812  15.237  0.00  0.00    +0.000 A 
ATOM      6  N   UNL     1      46.866   4.889  13.984  0.00  0.00    +0.000 N 
ATOM      7  C   UNL     1      46.959   6.116  13.206  0.00  0.00    +0.000 C 
ATOM      8  C   UNL     1      45.543   6.508  12.763  0.00  0.00    +0.000 C 
ATOM      9  C   UNL     1      44.815   5.355  12.062  0.00  0.00    +0.000 C 
ATOM     10  C   UNL     1      44.860   4.072  12.893  0.00  0.00    +0.000 C 
ATOM     11  C   UNL     1      46.294   3.737  13.295  0.00  0.00    +0.000 C 
ATOM     12  N   UNL     1      48.459   5.635  15.565  0.00  0.00    +0.000 NA
ATOM     13  C   UNL     1      49.029   5.594  16.816  0.00  0.00    +0.000 A 
ENDROOT
BRANCH  13  14
ATOM     14  C   UNL     1      50.199   6.563  16.953  0.00  0.00    +0.000 C 
BRANCH  14  15
ATOM     15  C   UNL     1      50.243   7.767  16.016  0.00  0.00    +0.000 C 
BRANCH  15  16
ATOM     16  N   UNL     1      50.858   7.498  14.718  0.00  0.00    +0.000 N 
ATOM     17  C   UNL     1      50.183   8.198  13.703  0.00  0.00    +0.000 A 
ATOM     18  N   UNL     1      49.606   9.379  13.983  0.00  0.00    +0.000 NA
ATOM     19  C   UNL     1      48.912   9.986  13.005  0.00  0.00    +0.000 A 
ATOM     20  C   UNL     1      48.786   9.469  11.746  0.00  0.00    +0.000 A 
ATOM     21  C   UNL     1      49.419   8.262  11.548  0.00  0.00    +0.000 A 
ATOM     22  N   UNL     1      50.108   7.608  12.508  0.00  0.00    +0.000 NA
ATOM     23  H   UNL     1      50.860   6.528  14.417  0.00  0.00    +0.000 HD
ENDBRANCH  15  16
ENDBRANCH  14  15
ENDBRANCH  13  14
TORSDOF 3
ENDMDL
MODEL 9
REMARK VINA RESULT:    -5.587      3.821      7.183
REMARK INTER + INTRA:          -6.869
REMARK INTER:                  -6.173
REMARK INTRA:                  -0.697
REMARK UNBOUND:                -0.303
REMARK  Name = 
REMARK  3 active torsions:
REMARK  status: ('A' for Active; 'I' for Inactive)
REMARK    1  A    between atoms: C_13  and  C_14
REMARK    2  A    between atoms: C_14  and  C_15
REMARK    3  A    between atoms: C_15  and  N_16
REMARK                            x       y       z     vdW  Elec       q    Type
REMARK                         _______ _______ _______ _____ _____    ______ ____
ROOT
ATOM      1 CL   UNL     1      44.362   3.989  12.812  0.00  0.00    +0.000 Cl
ATOM      2  C   UNL     1      45.804   4.934  12.848  0.00  0.00    +0.000 A 
ATOM      3  C   UNL     1      45.843   5.941  11.890  0.00  0.00    +0.000 A 
ATOM      4  C   UNL     1      46.936   6.790  11.814  0.00  0.00    +0.000 A 
ATOM      5  C   UNL     1      47.992   6.646  12.703  0.00  0.00    +0.000 A 
ATOM      6  N   UNL     1      49.059   7.516  12.660  0.00  0.00    +0.000 N 
ATOM      7  C   UNL     1      49.855   7.766  13.854  0.00  0.00    +0.000 C 
ATOM      8  C   UNL     1      49.926   9.285  14.068  0.00  0.00    +0.000 C 
ATOM      9  C   UNL     1      50.399  10.026  12.813  0.00  0.00    +0.000 C 
ATOM     10  C   UNL     1      49.586   9.622  11.581  0.00  0.00    +0.000 C 
ATOM     11  C   UNL     1      49.560   8.104  11.424  0.00  0.00    +0.000 C 
ATOM     12  N   UNL     1      47.952   5.673  13.647  0.00  0.00    +0.000 NA
ATOM     13  C   UNL     1      46.888   4.805  13.725  0.00  0.00    +0.000 A 
ENDROOT
BRANCH  13  14
ATOM     14  C   UNL     1      47.071   3.760  14.821  0.00  0.00    +0.000 C 
BRANCH  14  15
ATOM     15  C   UNL     1      47.210   4.251  16.260  0.00  0.00    +0.000 C 
BRANCH  15  16
ATOM     16  N   UNL     1      48.488   4.895  16.556  0.00  0.00    +0.000 N 
ATOM     17  C   UNL     1      48.368   5.723  17.685  0.00  0.00    +0.000 A 
ATOM     18  N   UNL     1      47.496   5.399  18.655  0.00  0.00    +0.000 NA
ATOM     19  C   UNL     1      47.359   6.250  19.687  0.00  0.00    +0.000 A 
ATOM     20  C   UNL     1      48.077   7.409  19.800  0.00  0.00    +0.000 A 
ATOM     21  C   UNL     1      48.952   7.653  18.766  0.00  0.00    +0.000 A 
ATOM     22  N   UNL     1      49.104   6.836  17.701  0.00  0.00    +0.000 NA
ATOM     23  H   UNL     1      48.867   5.492  15.827  0.00  0.00    +0.000 HD
ENDBRANCH  15  16
ENDBRANCH  14  15
ENDBRANCH  13  14
TORSDOF 3
ENDMDL
