MODEL 1
REMARK VINA RESULT:    -7.353      0.000      0.000
REMARK INTER + INTRA:         -10.392
REMARK INTER:                  -9.503
REMARK INTRA:                  -0.889
REMARK UNBOUND:                -0.889
REMARK  Name = 
REMARK  8 active torsions:
REMARK  status: ('A' for Active; 'I' for Inactive)
REMARK    1  A    between atoms: C_1  and  C_2
REMARK    2  A    between atoms: C_4  and  C_5
REMARK    3  A    between atoms: N_10  and  C_11
REMARK    4  A    between atoms: C_11  and  C_12
REMARK    5  A    between atoms: C_16  and  N_17
REMARK    6  A    between atoms: N_20  and  S_21
REMARK    7  A    between atoms: S_21  and  C_22
REMARK    8  A    between atoms: C_26  and  C_27
REMARK                            x       y       z     vdW  Elec       q    Type
REMARK                         _______ _______ _______ _____ _____    ______ ____
ROOT
ATOM      1  C   UNL     1      49.878   7.416  14.588  0.00  0.00    +0.000 A 
ATOM      2  C   UNL     1      50.436   8.380  13.747  0.00  0.00    +0.000 A 
ATOM      3  C   UNL     1      49.826   8.670  12.530  0.00  0.00    +0.000 A 
ATOM      4  C   UNL     1      48.663   7.989  12.148  0.00  0.00    +0.000 A 
ATOM      5  C   UNL     1      48.053   7.035  12.973  0.00  0.00    +0.000 A 
ATOM      6  C   UNL     1      48.680   6.783  14.203  0.00  0.00    +0.000 A 
ENDROOT
BRANCH   5   7
ATOM      7  N   UNL     1      46.917   6.337  12.587  0.00  0.00    +0.000 N 
ATOM      8  C   UNL     1      46.458   5.157  13.350  0.00  0.00    +0.000 C 
ATOM      9  C   UNL     1      46.103   3.981  12.417  0.00  0.00    +0.000 C 
ATOM     10  N   UNL     1      45.134   4.394  11.361  0.00  0.00    +0.000 NA
ATOM     11  C   UNL     1      45.688   5.527  10.555  0.00  0.00    +0.000 C 
ATOM     12  C   UNL     1      46.126   6.756  11.404  0.00  0.00    +0.000 C 
ATOM     13  C   UNL     1      44.940   7.646  11.766  0.00  0.00    +0.000 C 
BRANCH  10  14
ATOM     14  S   UNL     1      43.496   4.440  11.787  0.00  0.00    +0.000 S 
ATOM     15  C   UNL     1      43.059   2.722  11.691  0.00  0.00    +0.000 C 
ATOM     16  O   UNL     1      43.378   4.855  13.164  0.00  0.00    +0.000 OA
ATOM     17  O   UNL     1      42.770   5.109  10.727  0.00  0.00    +0.000 OA
ENDBRANCH  10  14
ENDBRANCH   5   7
BRANCH   1  18
ATOM     18  C   UNL     1      50.542   7.039  15.894  0.00  0.00    +0.000 C 
BRANCH  18  25
ATOM     19  C   UNL     1      48.461   4.647  20.927  0.00  0.00    +0.000 C 
ATOM     20  C   UNL     1      48.939   4.553  19.511  0.00  0.00    +0.000 A 
ATOM     21  C   UNL     1      49.208   3.339  18.931  0.00  0.00    +0.000 A 
ATOM     22  C   UNL     1      49.638   3.397  17.624  0.00  0.00    +0.000 A 
ATOM     23  N   UNL     1      49.794   4.544  16.916  0.00  0.00    +0.000 NA
ATOM     24  C   UNL     1      49.490   5.672  17.563  0.00  0.00    +0.000 A 
ATOM     25  N   UNL     1      49.537   6.895  16.920  0.00  0.00    +0.000 N 
ATOM     26  N   UNL     1      49.086   5.715  18.839  0.00  0.00    +0.000 NA
ATOM     27  H   UNL     1      49.537   7.612  17.636  0.00  0.00    +0.000 HD
BRANCH  22  28
ATOM     28  C   UNL     1      49.951   2.122  16.911  0.00  0.00    +0.000 C 
ATOM     29  N   UNL     1      50.918   1.338  17.485  0.00  0.00    +0.000 N 
ATOM     30  O   UNL     1      49.386   1.791  15.873  0.00  0.00    +0.000 OA
ATOM     31  H   UNL     1      51.395   1.661  18.317  0.00  0.00    +0.000 HD
ATOM     32  H   UNL     1      51.198   0.485  17.026  0.00  0.00    +0.000 HD
ENDBRANCH  22  28
ENDBRANCH  18  25
ENDBRANCH   1  18
TORSDOF 5
ENDMDL
MODEL 2
REMARK VINA RESULT:    -6.666      1.728      2.489
REMARK INTER + INTRA:          -9.503
REMARK INTER:                  -8.926
REMARK INTRA:                  -0.577
REMARK UNBOUND:                -0.889
REMARK  Name = 
REMARK  8 active torsions:
REMARK  status: ('A' for Active; 'I' for Inactive)
REMARK    1  A    between atoms: C_1  and  C_2
REMARK    2  A    between atoms: C_4  and  C_5
REMARK    3  A    between atoms: N_10  and  C_11
REMARK    4  A    between atoms: C_11  and  C_12
REMARK    5  A    between atoms: C_16  and  N_17
REMARK    6  A    between atoms: N_20  and  S_21
REMARK    7  A    between atoms: S_21  and  C_22
REMARK    8  A    between atoms: C_26  and  C_27
REMARK                            x       y       z     vdW  Elec       q    Type
REMARK                         _______ _______ _______ _____ _____    ______ ____
ROOT
ATOM      1  C   UNL     1      50.068   7.936  14.654  0.00  0.00    +0.000 A 
ATOM      2  C   UNL     1      50.814   8.405  13.571  0.00  0.00    +0.000 A 
ATOM      3  C   UNL     1      50.370   8.168  12.273  0.00  0.00    +0.000 A 
ATOM      4  C   UNL     1      49.186   7.451  12.057  0.00  0.00    +0.000 A 
ATOM      5  C   UNL     1      48.391   6.987  13.113  0.00  0.00    +0.000 A 
ATOM      6  C   UNL     1      48.854   7.264  14.410  0.00  0.00    +0.000 A 
ENDROOT
BRANCH   5   7
ATOM      7  N   UNL     1      47.232   6.253  12.904  0.00  0.00    +0.000 N 
ATOM      8  C   UNL     1      46.879   5.126  13.792  0.00  0.00    +0.000 C 
ATOM      9  C   UNL     1      46.445   3.884  12.988  0.00  0.00    +0.000 C 
ATOM     10  N   UNL     1      45.360   4.211  12.018  0.00  0.00    +0.000 NA
ATOM     11  C   UNL     1      45.803   5.290  11.080  0.00  0.00    +0.000 C 
ATOM     12  C   UNL     1      46.310   6.580  11.789  0.00  0.00    +0.000 C 
ATOM     13  C   UNL     1      45.155   7.482  12.216  0.00  0.00    +0.000 C 
BRANCH  10  14
ATOM     14  S   UNL     1      43.778   4.272  12.617  0.00  0.00    +0.000 S 
ATOM     15  C   UNL     1      42.880   4.822  11.188  0.00  0.00    +0.000 C 
ATOM     16  O   UNL     1      43.340   2.933  12.932  0.00  0.00    +0.000 OA
ATOM     17  O   UNL     1      43.700   5.344  13.589  0.00  0.00    +0.000 OA
ENDBRANCH  10  14
ENDBRANCH   5   7
BRANCH   1  18
ATOM     18  C   UNL     1      50.546   8.132  16.076  0.00  0.00    +0.000 C 
BRANCH  18  25
ATOM     19  C   UNL     1      50.944   2.341  17.374  0.00  0.00    +0.000 C 
ATOM     20  C   UNL     1      50.389   3.715  17.592  0.00  0.00    +0.000 A 
ATOM     21  C   UNL     1      49.312   3.925  18.414  0.00  0.00    +0.000 A 
ATOM     22  C   UNL     1      48.907   5.236  18.525  0.00  0.00    +0.000 A 
ATOM     23  N   UNL     1      49.500   6.280  17.894  0.00  0.00    +0.000 NA
ATOM     24  C   UNL     1      50.551   5.975  17.130  0.00  0.00    +0.000 A 
ATOM     25  N   UNL     1      51.282   6.966  16.500  0.00  0.00    +0.000 N 
ATOM     26  N   UNL     1      51.003   4.728  16.945  0.00  0.00    +0.000 NA
ATOM     27  H   UNL     1      51.841   6.518  15.783  0.00  0.00    +0.000 HD
BRANCH  22  28
ATOM     28  C   UNL     1      47.741   5.559  19.404  0.00  0.00    +0.000 C 
ATOM     29  N   UNL     1      46.517   5.585  18.787  0.00  0.00    +0.000 N 
ATOM     30  O   UNL     1      47.864   5.792  20.602  0.00  0.00    +0.000 OA
ATOM     31  H   UNL     1      46.457   5.431  17.789  0.00  0.00    +0.000 HD
ATOM     32  H   UNL     1      45.701   5.835  19.323  0.00  0.00    +0.000 HD
ENDBRANCH  22  28
ENDBRANCH  18  25
ENDBRANCH   1  18
TORSDOF 5
ENDMDL
MODEL 3
REMARK VINA RESULT:    -6.499      1.248      1.767
REMARK INTER + INTRA:          -9.287
REMARK INTER:                  -9.153
REMARK INTRA:                  -0.134
REMARK UNBOUND:                -0.889
REMARK  Name = 
REMARK  8 active torsions:
REMARK  status: ('A' for Active; 'I' for Inactive)
REMARK    1  A    between atoms: C_1  and  C_2
REMARK    2  A    between atoms: C_4  and  C_5
REMARK    3  A    between atoms: N_10  and  C_11
REMARK    4  A    between atoms: C_11  and  C_12
REMARK    5  A    between atoms: C_16  and  N_17
REMARK    6  A    between atoms: N_20  and  S_21
REMARK    7  A    between atoms: S_21  and  C_22
REMARK    8  A    between atoms: C_26  and  C_27
REMARK                            x       y       z     vdW  Elec       q    Type
REMARK                         _______ _______ _______ _____ _____    ______ ____
ROOT
ATOM      1  C   UNL     1      49.357   7.938  14.615  0.00  0.00    +0.000 A 
ATOM      2  C   UNL     1      49.839   8.916  13.743  0.00  0.00    +0.000 A 
ATOM      3  C   UNL     1      49.297   9.026  12.465  0.00  0.00    +0.000 A 
ATOM      4  C   UNL     1      48.282   8.153  12.055  0.00  0.00    +0.000 A 
ATOM      5  C   UNL     1      47.749   7.176  12.907  0.00  0.00    +0.000 A 
ATOM      6  C   UNL     1      48.300   7.106  14.197  0.00  0.00    +0.000 A 
ENDROOT
BRANCH   5   7
ATOM      7  N   UNL     1      46.762   6.291  12.497  0.00  0.00    +0.000 N 
ATOM      8  C   UNL     1      46.328   6.243  11.085  0.00  0.00    +0.000 C 
ATOM      9  C   UNL     1      44.791   6.225  10.963  0.00  0.00    +0.000 C 
ATOM     10  N   UNL     1      44.190   5.134  11.786  0.00  0.00    +0.000 NA
ATOM     11  C   UNL     1      44.581   5.285  13.223  0.00  0.00    +0.000 C 
ATOM     12  C   UNL     1      46.118   5.364  13.458  0.00  0.00    +0.000 C 
ATOM     13  C   UNL     1      46.760   3.979  13.471  0.00  0.00    +0.000 C 
BRANCH  10  14
ATOM     14  S   UNL     1      44.177   3.579  11.119  0.00  0.00    +0.000 S 
ATOM     15  C   UNL     1      44.157   3.939   9.382  0.00  0.00    +0.000 C 
ATOM     16  O   UNL     1      45.426   2.923  11.426  0.00  0.00    +0.000 OA
ATOM     17  O   UNL     1      42.902   2.963  11.426  0.00  0.00    +0.000 OA
ENDBRANCH  10  14
ENDBRANCH   5   7
BRANCH   1  18
ATOM     18  C   UNL     1      49.957   7.756  15.993  0.00  0.00    +0.000 C 
BRANCH  18  25
ATOM     19  C   UNL     1      47.768   5.559  21.069  0.00  0.00    +0.000 C 
ATOM     20  C   UNL     1      48.358   5.405  19.702  0.00  0.00    +0.000 A 
ATOM     21  C   UNL     1      48.798   4.187  19.250  0.00  0.00    +0.000 A 
ATOM     22  C   UNL     1      49.317   4.187  17.975  0.00  0.00    +0.000 A 
ATOM     23  N   UNL     1      49.403   5.283  17.180  0.00  0.00    +0.000 NA
ATOM     24  C   UNL     1      48.934   6.418  17.703  0.00  0.00    +0.000 A 
ATOM     25  N   UNL     1      48.898   7.582  16.958  0.00  0.00    +0.000 N 
ATOM     26  N   UNL     1      48.431   6.518  18.941  0.00  0.00    +0.000 NA
ATOM     27  H   UNL     1      48.768   8.351  17.606  0.00  0.00    +0.000 HD
BRANCH  22  28
ATOM     28  C   UNL     1      49.817   2.901  17.399  0.00  0.00    +0.000 C 
ATOM     29  N   UNL     1      50.961   2.399  17.964  0.00  0.00    +0.000 N 
ATOM     30  O   UNL     1      49.248   2.327  16.476  0.00  0.00    +0.000 OA
ATOM     31  H   UNL     1      51.428   2.920  18.695  0.00  0.00    +0.000 HD
ATOM     32  H   UNL     1      51.365   1.555  17.590  0.00  0.00    +0.000 HD
ENDBRANCH  22  28
ENDBRANCH  18  25
ENDBRANCH   1  18
TORSDOF 5
ENDMDL
MODEL 4
REMARK VINA RESULT:    -6.426      2.669      7.685
REMARK INTER + INTRA:          -9.192
REMARK INTER:                  -8.741
REMARK INTRA:                  -0.451
REMARK UNBOUND:                -0.889
REMARK  Name = 
REMARK  8 active torsions:
REMARK  status: ('A' for Active; 'I' for Inactive)
REMARK    1  A    between atoms: C_1  and  C_2
REMARK    2  A    between atoms: C_4  and  C_5
REMARK    3  A    between atoms: N_10  and  C_11
REMARK    4  A    between atoms: C_11  and  C_12
REMARK    5  A    between atoms: C_16  and  N_17
REMARK    6  A    between atoms: N_20  and  S_21
REMARK    7  A    between atoms: S_21  and  C_22
REMARK    8  A    between atoms: C_26  and  C_27
REMARK                            x       y       z     vdW  Elec       q    Type
REMARK                         _______ _______ _______ _____ _____    ______ ____
ROOT
ATOM      1  C   UNL     1      46.704   7.942  12.365  0.00  0.00    +0.000 A 
ATOM      2  C   UNL     1      47.246   9.227  12.291  0.00  0.00    +0.000 A 
ATOM      3  C   UNL     1      48.174   9.639  13.244  0.00  0.00    +0.000 A 
ATOM      4  C   UNL     1      48.552   8.773  14.277  0.00  0.00    +0.000 A 
ATOM      5  C   UNL     1      48.056   7.466  14.373  0.00  0.00    +0.000 A 
ATOM      6  C   UNL     1      47.140   7.072  13.384  0.00  0.00    +0.000 A 
ENDROOT
BRANCH   5   7
ATOM      7  N   UNL     1      48.406   6.613  15.410  0.00  0.00    +0.000 N 
ATOM      8  C   UNL     1      47.975   5.199  15.406  0.00  0.00    +0.000 C 
ATOM      9  C   UNL     1      47.406   4.775  16.775  0.00  0.00    +0.000 C 
ATOM     10  N   UNL     1      48.359   5.081  17.882  0.00  0.00    +0.000 NA
ATOM     11  C   UNL     1      48.687   6.541  17.903  0.00  0.00    +0.000 C 
ATOM     12  C   UNL     1      49.227   7.090  16.550  0.00  0.00    +0.000 C 
ATOM     13  C   UNL     1      50.715   6.799  16.374  0.00  0.00    +0.000 C 
BRANCH  10  14
ATOM     14  S   UNL     1      49.611   3.975  18.154  0.00  0.00    +0.000 S 
ATOM     15  C   UNL     1      50.558   4.814  19.399  0.00  0.00    +0.000 C 
ATOM     16  O   UNL     1      49.063   2.776  18.742  0.00  0.00    +0.000 OA
ATOM     17  O   UNL     1      50.442   3.928  16.968  0.00  0.00    +0.000 OA
ENDBRANCH  10  14
ENDBRANCH   5   7
BRANCH   1  18
ATOM     18  C   UNL     1      45.656   7.478  11.378  0.00  0.00    +0.000 C 
BRANCH  18  25
ATOM     19  C   UNL     1      45.353   3.192   7.263  0.00  0.00    +0.000 C 
ATOM     20  C   UNL     1      45.145   3.718   8.650  0.00  0.00    +0.000 A 
ATOM     21  C   UNL     1      44.410   3.019   9.573  0.00  0.00    +0.000 A 
ATOM     22  C   UNL     1      44.300   3.616  10.808  0.00  0.00    +0.000 A 
ATOM     23  N   UNL     1      44.864   4.804  11.141  0.00  0.00    +0.000 NA
ATOM     24  C   UNL     1      45.574   5.399  10.180  0.00  0.00    +0.000 A 
ATOM     25  N   UNL     1      46.259   6.575  10.427  0.00  0.00    +0.000 N 
ATOM     26  N   UNL     1      45.719   4.905   8.944  0.00  0.00    +0.000 NA
ATOM     27  H   UNL     1      46.495   6.981   9.528  0.00  0.00    +0.000 HD
BRANCH  22  28
ATOM     28  C   UNL     1      43.519   2.923  11.878  0.00  0.00    +0.000 C 
ATOM     29  N   UNL     1      43.538   3.519  13.112  0.00  0.00    +0.000 N 
ATOM     30  O   UNL     1      42.901   1.883  11.674  0.00  0.00    +0.000 OA
ATOM     31  H   UNL     1      44.093   4.353  13.257  0.00  0.00    +0.000 HD
ATOM     32  H   UNL     1      43.061   3.075  13.881  0.00  0.00    +0.000 HD
ENDBRANCH  22  28
ENDBRANCH  18  25
ENDBRANCH   1  18
TORSDOF 5
ENDMDL
MODEL 5
REMARK VINA RESULT:    -6.283      3.003      7.701
REMARK INTER + INTRA:          -9.008
REMARK INTER:                  -8.268
REMARK INTRA:                  -0.740
REMARK UNBOUND:                -0.889
REMARK  Name = 
REMARK  8 active torsions:
REMARK  status: ('A' for Active; 'I' for Inactive)
REMARK    1  A    between atoms: C_1  and  C_2
REMARK    2  A    between atoms: C_4  and  C_5
REMARK    3  A    between atoms: N_10  and  C_11
REMARK    4  A    between atoms: C_11  and  C_12
REMARK    5  A    between atoms: C_16  and  N_17
REMARK    6  A    between atoms: N_20  and  S_21
REMARK    7  A    between atoms: S_21  and  C_22
REMARK    8  A    between atoms: C_26  and  C_27
REMARK                            x       y       z     vdW  Elec       q    Type
REMARK                         _______ _______ _______ _____ _____    ______ ____
ROOT
ATOM      1  C   UNL     1      48.943   7.843  12.433  0.00  0.00    +0.000 A 
ATOM      2  C   UNL     1      49.748   8.963  12.214  0.00  0.00    +0.000 A 
ATOM      3  C   UNL     1      50.597   9.410  13.223  0.00  0.00    +0.000 A 
ATOM      4  C   UNL     1      50.634   8.745  14.455  0.00  0.00    +0.000 A 
ATOM      5  C   UNL     1      49.866   7.601  14.708  0.00  0.00    +0.000 A 
ATOM      6  C   UNL     1      49.038   7.162  13.663  0.00  0.00    +0.000 A 
ENDROOT
BRANCH   5   7
ATOM      7  N   UNL     1      49.879   6.954  15.936  0.00  0.00    +0.000 N 
ATOM      8  C   UNL     1      48.763   6.072  16.339  0.00  0.00    +0.000 C 
ATOM      9  C   UNL     1      48.305   6.359  17.783  0.00  0.00    +0.000 C 
ATOM     10  N   UNL     1      49.449   6.310  18.740  0.00  0.00    +0.000 NA
ATOM     11  C   UNL     1      50.507   7.292  18.342  0.00  0.00    +0.000 C 
ATOM     12  C   UNL     1      51.011   7.124  16.879  0.00  0.00    +0.000 C 
ATOM     13  C   UNL     1      52.053   6.015  16.763  0.00  0.00    +0.000 C 
BRANCH  10  14
ATOM     14  S   UNL     1      49.937   4.785  19.287  0.00  0.00    +0.000 S 
ATOM     15  C   UNL     1      48.739   4.466  20.557  0.00  0.00    +0.000 C 
ATOM     16  O   UNL     1      49.740   3.819  18.233  0.00  0.00    +0.000 OA
ATOM     17  O   UNL     1      51.215   4.929  19.955  0.00  0.00    +0.000 OA
ENDBRANCH  10  14
ENDBRANCH   5   7
BRANCH   1  18
ATOM     18  C   UNL     1      47.972   7.360  11.379  0.00  0.00    +0.000 C 
BRANCH  18  25
ATOM     19  C   UNL     1      43.089   4.440  13.115  0.00  0.00    +0.000 C 
ATOM     20  C   UNL     1      44.082   4.866  12.079  0.00  0.00    +0.000 A 
ATOM     21  C   UNL     1      44.098   4.296  10.832  0.00  0.00    +0.000 A 
ATOM     22  C   UNL     1      45.061   4.783   9.977  0.00  0.00    +0.000 A 
ATOM     23  N   UNL     1      45.949   5.759  10.295  0.00  0.00    +0.000 NA
ATOM     24  C   UNL     1      45.842   6.262  11.527  0.00  0.00    +0.000 A 
ATOM     25  N   UNL     1      46.642   7.314  11.936  0.00  0.00    +0.000 N 
ATOM     26  N   UNL     1      44.952   5.837  12.433  0.00  0.00    +0.000 NA
ATOM     27  H   UNL     1      46.590   7.355  12.948  0.00  0.00    +0.000 HD
BRANCH  22  28
ATOM     28  C   UNL     1      45.149   4.222   8.595  0.00  0.00    +0.000 C 
ATOM     29  N   UNL     1      44.225   3.258   8.282  0.00  0.00    +0.000 N 
ATOM     30  O   UNL     1      45.995   4.590   7.786  0.00  0.00    +0.000 OA
ATOM     31  H   UNL     1      43.570   2.946   8.986  0.00  0.00    +0.000 HD
ATOM     32  H   UNL     1      44.262   2.817   7.376  0.00  0.00    +0.000 HD
ENDBRANCH  22  28
ENDBRANCH  18  25
ENDBRANCH   1  18
TORSDOF 5
ENDMDL
MODEL 6
REMARK VINA RESULT:    -5.941      3.757      5.578
REMARK INTER + INTRA:          -8.566
REMARK INTER:                  -7.689
REMARK INTRA:                  -0.877
REMARK UNBOUND:                -0.889
REMARK  Name = 
REMARK  8 active torsions:
REMARK  status: ('A' for Active; 'I' for Inactive)
REMARK    1  A    between atoms: C_1  and  C_2
REMARK    2  A    between atoms: C_4  and  C_5
REMARK    3  A    between atoms: N_10  and  C_11
REMARK    4  A    between atoms: C_11  and  C_12
REMARK    5  A    between atoms: C_16  and  N_17
REMARK    6  A    between atoms: N_20  and  S_21
REMARK    7  A    between atoms: S_21  and  C_22
REMARK    8  A    between atoms: C_26  and  C_27
REMARK                            x       y       z     vdW  Elec       q    Type
REMARK                         _______ _______ _______ _____ _____    ______ ____
ROOT
ATOM      1  C   UNL     1      46.878   4.951  13.479  0.00  0.00    +0.000 A 
ATOM      2  C   UNL     1      45.837   5.109  12.563  0.00  0.00    +0.000 A 
ATOM      3  C   UNL     1      45.835   6.204  11.704  0.00  0.00    +0.000 A 
ATOM      4  C   UNL     1      46.867   7.149  11.768  0.00  0.00    +0.000 A 
ATOM      5  C   UNL     1      47.946   7.015  12.652  0.00  0.00    +0.000 A 
ATOM      6  C   UNL     1      47.931   5.887  13.488  0.00  0.00    +0.000 A 
ENDROOT
BRANCH   5   7
ATOM      7  N   UNL     1      48.957   7.962  12.738  0.00  0.00    +0.000 N 
ATOM      8  C   UNL     1      49.546   8.553  11.518  0.00  0.00    +0.000 C 
ATOM      9  C   UNL     1      51.087   8.574  11.585  0.00  0.00    +0.000 C 
ATOM     10  N   UNL     1      51.572   9.232  12.833  0.00  0.00    +0.000 NA
ATOM     11  C   UNL     1      51.025   8.535  14.040  0.00  0.00    +0.000 C 
ATOM     12  C   UNL     1      49.473   8.413  14.053  0.00  0.00    +0.000 C 
ATOM     13  C   UNL     1      48.809   9.697  14.544  0.00  0.00    +0.000 C 
BRANCH  10  14
ATOM     14  S   UNL     1      51.633  10.923  12.845  0.00  0.00    +0.000 S 
ATOM     15  C   UNL     1      53.196  11.225  12.061  0.00  0.00    +0.000 C 
ATOM     16  O   UNL     1      50.595  11.439  11.985  0.00  0.00    +0.000 OA
ATOM     17  O   UNL     1      51.770  11.364  14.218  0.00  0.00    +0.000 OA
ENDBRANCH  10  14
ENDBRANCH   5   7
BRANCH   1  18
ATOM     18  C   UNL     1      46.888   3.801  14.462  0.00  0.00    +0.000 C 
BRANCH  18  25
ATOM     19  C   UNL     1      48.839   6.366  19.462  0.00  0.00    +0.000 C 
ATOM     20  C   UNL     1      48.844   5.267  18.444  0.00  0.00    +0.000 A 
ATOM     21  C   UNL     1      49.825   4.309  18.437  0.00  0.00    +0.000 A 
ATOM     22  C   UNL     1      49.708   3.357  17.450  0.00  0.00    +0.000 A 
ATOM     23  N   UNL     1      48.711   3.322  16.531  0.00  0.00    +0.000 NA
ATOM     24  C   UNL     1      47.794   4.288  16.631  0.00  0.00    +0.000 A 
ATOM     25  N   UNL     1      46.690   4.309  15.798  0.00  0.00    +0.000 N 
ATOM     26  N   UNL     1      47.838   5.266  17.544  0.00  0.00    +0.000 NA
ATOM     27  H   UNL     1      46.286   5.236  15.857  0.00  0.00    +0.000 HD
BRANCH  22  28
ATOM     28  C   UNL     1      50.732   2.271  17.369  0.00  0.00    +0.000 C 
ATOM     29  N   UNL     1      51.819   2.414  18.192  0.00  0.00    +0.000 N 
ATOM     30  O   UNL     1      50.618   1.312  16.613  0.00  0.00    +0.000 OA
ATOM     31  H   UNL     1      51.904   3.239  18.771  0.00  0.00    +0.000 HD
ATOM     32  H   UNL     1      52.560   1.731  18.152  0.00  0.00    +0.000 HD
ENDBRANCH  22  28
ENDBRANCH  18  25
ENDBRANCH   1  18
TORSDOF 5
ENDMDL
MODEL 7
REMARK VINA RESULT:    -5.882      2.301      3.257
REMARK INTER + INTRA:          -8.490
REMARK INTER:                  -8.257
REMARK INTRA:                  -0.233
REMARK UNBOUND:                -0.889
REMARK  Name = 
REMARK  8 active torsions:
REMARK  status: ('A' for Active; 'I' for Inactive)
REMARK    1  A    between atoms: C_1  and  C_2
REMARK    2  A    between atoms: C_4  and  C_5
REMARK    3  A    between atoms: N_10  and  C_11
REMARK    4  A    between atoms: C_11  and  C_12
REMARK    5  A    between atoms: C_16  and  N_17
REMARK    6  A    between atoms: N_20  and  S_21
REMARK    7  A    between atoms: S_21  and  C_22
REMARK    8  A    between atoms: C_26  and  C_27
REMARK                            x       y       z     vdW  Elec       q    Type
REMARK                         _______ _______ _______ _____ _____    ______ ____
ROOT
ATOM      1  C   UNL     1      48.857   8.510  14.107  0.00  0.00    +0.000 A 
ATOM      2  C   UNL     1      48.699   9.768  13.522  0.00  0.00    +0.000 A 
ATOM      3  C   UNL     1      47.714   9.961  12.558  0.00  0.00    +0.000 A 
ATOM      4  C   UNL     1      46.893   8.894  12.170  0.00  0.00    +0.000 A 
ATOM      5  C   UNL     1      46.997   7.623  12.750  0.00  0.00    +0.000 A 
ATOM      6  C   UNL     1      47.985   7.468  13.737  0.00  0.00    +0.000 A 
ENDROOT
BRANCH   5   7
ATOM      7  N   UNL     1      46.205   6.556  12.350  0.00  0.00    +0.000 N 
ATOM      8  C   UNL     1      46.214   6.092  10.947  0.00  0.00    +0.000 C 
ATOM      9  C   UNL     1      44.784   5.870  10.413  0.00  0.00    +0.000 C 
ATOM     10  N   UNL     1      43.999   4.973  11.309  0.00  0.00    +0.000 NA
ATOM     11  C   UNL     1      43.938   5.537  12.695  0.00  0.00    +0.000 C 
ATOM     12  C   UNL     1      45.331   5.847  13.316  0.00  0.00    +0.000 C 
ATOM     13  C   UNL     1      45.982   4.595  13.898  0.00  0.00    +0.000 C 
BRANCH  10  14
ATOM     14  S   UNL     1      44.232   3.305  11.134  0.00  0.00    +0.000 S 
ATOM     15  C   UNL     1      44.403   3.156   9.374  0.00  0.00    +0.000 C 
ATOM     16  O   UNL     1      45.491   2.939  11.738  0.00  0.00    +0.000 OA
ATOM     17  O   UNL     1      42.997   2.634  11.487  0.00  0.00    +0.000 OA
ENDBRANCH  10  14
ENDBRANCH   5   7
BRANCH   1  18
ATOM     18  C   UNL     1      49.950   8.251  15.121  0.00  0.00    +0.000 C 
BRANCH  18  25
ATOM     19  C   UNL     1      47.741   3.191  17.336  0.00  0.00    +0.000 C 
ATOM     20  C   UNL     1      48.228   4.600  17.476  0.00  0.00    +0.000 A 
ATOM     21  C   UNL     1      48.045   5.303  18.639  0.00  0.00    +0.000 A 
ATOM     22  C   UNL     1      48.543   6.587  18.632  0.00  0.00    +0.000 A 
ATOM     23  N   UNL     1      49.181   7.159  17.580  0.00  0.00    +0.000 NA
ATOM     24  C   UNL     1      49.324   6.388  16.499  0.00  0.00    +0.000 A 
ATOM     25  N   UNL     1      50.025   6.836  15.395  0.00  0.00    +0.000 N 
ATOM     26  N   UNL     1      48.855   5.137  16.407  0.00  0.00    +0.000 NA
ATOM     27  H   UNL     1      49.787   6.228  14.619  0.00  0.00    +0.000 HD
BRANCH  22  28
ATOM     28  C   UNL     1      48.393   7.426  19.860  0.00  0.00    +0.000 C 
ATOM     29  N   UNL     1      47.361   7.082  20.695  0.00  0.00    +0.000 N 
ATOM     30  O   UNL     1      49.137   8.368  20.111  0.00  0.00    +0.000 OA
ATOM     31  H   UNL     1      46.738   6.327  20.437  0.00  0.00    +0.000 HD
ATOM     32  H   UNL     1      47.188   7.637  21.519  0.00  0.00    +0.000 HD
ENDBRANCH  22  28
ENDBRANCH  18  25
ENDBRANCH   1  18
TORSDOF 5
ENDMDL
MODEL 8
REMARK VINA RESULT:    -5.448      5.903      8.012
REMARK INTER + INTRA:          -7.929
REMARK INTER:                  -7.279
REMARK INTRA:                  -0.650
REMARK UNBOUND:                -0.889
REMARK  Name = 
REMARK  8 active torsions:
REMARK  status: ('A' for Active; 'I' for Inactive)
REMARK    1  A    between atoms: C_1  and  C_2
REMARK    2  A    between atoms: C_4  and  C_5
REMARK    3  A    between atoms: N_10  and  C_11
REMARK    4  A    between atoms: C_11  and  C_12
REMARK    5  A    between atoms: C_16  and  N_17
REMARK    6  A    between atoms: N_20  and  S_21
REMARK    7  A    between atoms: S_21  and  C_22
REMARK    8  A    between atoms: C_26  and  C_27
REMARK                            x       y       z     vdW  Elec       q    Type
REMARK                         _______ _______ _______ _____ _____    ______ ____
ROOT
ATOM      1  C   UNL     1      50.720   8.144  11.623  0.00  0.00    +0.000 A 
ATOM      2  C   UNL     1      51.518   8.692  12.629  0.00  0.00    +0.000 A 
ATOM      3  C   UNL     1      52.902   8.709  12.479  0.00  0.00    +0.000 A 
ATOM      4  C   UNL     1      53.490   8.167  11.330  0.00  0.00    +0.000 A 
ATOM      5  C   UNL     1      52.727   7.633  10.282  0.00  0.00    +0.000 A 
ATOM      6  C   UNL     1      51.333   7.653  10.454  0.00  0.00    +0.000 A 
ENDROOT
BRANCH   5   7
ATOM      7  N   UNL     1      53.305   7.070   9.153  0.00  0.00    +0.000 N 
ATOM      8  C   UNL     1      53.477   5.607   9.041  0.00  0.00    +0.000 C 
ATOM      9  C   UNL     1      54.891   5.237   8.547  0.00  0.00    +0.000 C 
ATOM     10  N   UNL     1      55.235   5.955   7.285  0.00  0.00    +0.000 NA
ATOM     11  C   UNL     1      55.140   7.436   7.480  0.00  0.00    +0.000 C 
ATOM     12  C   UNL     1      53.764   7.917   8.025  0.00  0.00    +0.000 C 
ATOM     13  C   UNL     1      52.725   8.038   6.913  0.00  0.00    +0.000 C 
BRANCH  10  14
ATOM     14  S   UNL     1      54.650   5.300   5.838  0.00  0.00    +0.000 S 
ATOM     15  C   UNL     1      55.775   3.951   5.581  0.00  0.00    +0.000 C 
ATOM     16  O   UNL     1      53.336   4.749   6.065  0.00  0.00    +0.000 OA
ATOM     17  O   UNL     1      54.901   6.251   4.774  0.00  0.00    +0.000 OA
ENDBRANCH  10  14
ENDBRANCH   5   7
BRANCH   1  18
ATOM     18  C   UNL     1      49.217   8.064  11.774  0.00  0.00    +0.000 C 
BRANCH  18  25
ATOM     19  C   UNL     1      47.333   4.093  15.782  0.00  0.00    +0.000 C 
ATOM     20  C   UNL     1      47.142   4.941  14.563  0.00  0.00    +0.000 A 
ATOM     21  C   UNL     1      46.061   4.766  13.737  0.00  0.00    +0.000 A 
ATOM     22  C   UNL     1      46.008   5.614  12.654  0.00  0.00    +0.000 A 
ATOM     23  N   UNL     1      46.928   6.572  12.382  0.00  0.00    +0.000 NA
ATOM     24  C   UNL     1      47.934   6.675  13.254  0.00  0.00    +0.000 A 
ATOM     25  N   UNL     1      48.890   7.666  13.122  0.00  0.00    +0.000 N 
ATOM     26  N   UNL     1      48.080   5.882  14.323  0.00  0.00    +0.000 NA
ATOM     27  H   UNL     1      49.678   7.404  13.703  0.00  0.00    +0.000 HD
BRANCH  22  28
ATOM     28  C   UNL     1      44.861   5.497  11.702  0.00  0.00    +0.000 C 
ATOM     29  N   UNL     1      45.040   6.087  10.477  0.00  0.00    +0.000 N 
ATOM     30  O   UNL     1      43.820   4.916  11.992  0.00  0.00    +0.000 OA
ATOM     31  H   UNL     1      45.893   6.596  10.287  0.00  0.00    +0.000 HD
ATOM     32  H   UNL     1      44.285   6.074   9.810  0.00  0.00    +0.000 HD
ENDBRANCH  22  28
ENDBRANCH  18  25
ENDBRANCH   1  18
TORSDOF 5
ENDMDL
MODEL 9
REMARK VINA RESULT:    -5.179      4.428      6.627
REMARK INTER + INTRA:          -7.582
REMARK INTER:                  -6.942
REMARK INTRA:                  -0.640
REMARK UNBOUND:                -0.889
REMARK  Name = 
REMARK  8 active torsions:
REMARK  status: ('A' for Active; 'I' for Inactive)
REMARK    1  A    between atoms: C_1  and  C_2
REMARK    2  A    between atoms: C_4  and  C_5
REMARK    3  A    between atoms: N_10  and  C_11
REMARK    4  A    between atoms: C_11  and  C_12
REMARK    5  A    between atoms: C_16  and  N_17
REMARK    6  A    between atoms: N_20  and  S_21
REMARK    7  A    between atoms: S_21  and  C_22
REMARK    8  A    between atoms: C_26  and  C_27
REMARK                            x       y       z     vdW  Elec       q    Type
REMARK                         _______ _______ _______ _____ _____    ______ ____
ROOT
ATOM      1  C   UNL     1      49.803   8.957  12.314  0.00  0.00    +0.000 A 
ATOM      2  C   UNL     1      49.428  10.302  12.318  0.00  0.00    +0.000 A 
ATOM      3  C   UNL     1      48.078  10.640  12.275  0.00  0.00    +0.000 A 
ATOM      4  C   UNL     1      47.104   9.636  12.216  0.00  0.00    +0.000 A 
ATOM      5  C   UNL     1      47.434   8.274  12.239  0.00  0.00    +0.000 A 
ATOM      6  C   UNL     1      48.803   7.966  12.307  0.00  0.00    +0.000 A 
ENDROOT
BRANCH   5   7
ATOM      7  N   UNL     1      46.475   7.275  12.153  0.00  0.00    +0.000 N 
ATOM      8  C   UNL     1      46.303   6.295  13.245  0.00  0.00    +0.000 C 
ATOM      9  C   UNL     1      46.202   4.854  12.705  0.00  0.00    +0.000 C 
ATOM     10  N   UNL     1      45.147   4.736  11.657  0.00  0.00    +0.000 NA
ATOM     11  C   UNL     1      45.421   5.680  10.528  0.00  0.00    +0.000 C 
ATOM     12  C   UNL     1      45.590   7.163  10.967  0.00  0.00    +0.000 C 
ATOM     13  C   UNL     1      44.243   7.853  11.164  0.00  0.00    +0.000 C 
BRANCH  10  14
ATOM     14  S   UNL     1      43.547   4.561  12.183  0.00  0.00    +0.000 S 
ATOM     15  C   UNL     1      43.435   2.802  12.392  0.00  0.00    +0.000 C 
ATOM     16  O   UNL     1      43.408   5.175  13.482  0.00  0.00    +0.000 OA
ATOM     17  O   UNL     1      42.667   4.901  11.084  0.00  0.00    +0.000 OA
ENDBRANCH  10  14
ENDBRANCH   5   7
BRANCH   1  18
ATOM     18  C   UNL     1      51.262   8.553  12.309  0.00  0.00    +0.000 C 
BRANCH  18  25
ATOM     19  C   UNL     1      53.175   9.636   6.782  0.00  0.00    +0.000 C 
ATOM     20  C   UNL     1      53.104   8.799   8.022  0.00  0.00    +0.000 A 
ATOM     21  C   UNL     1      53.587   7.516   8.042  0.00  0.00    +0.000 A 
ATOM     22  C   UNL     1      53.460   6.861   9.246  0.00  0.00    +0.000 A 
ATOM     23  N   UNL     1      52.910   7.403  10.362  0.00  0.00    +0.000 NA
ATOM     24  C   UNL     1      52.484   8.663  10.246  0.00  0.00    +0.000 A 
ATOM     25  N   UNL     1      51.977   9.345  11.337  0.00  0.00    +0.000 N 
ATOM     26  N   UNL     1      52.547   9.371   9.111  0.00  0.00    +0.000 NA
ATOM     27  H   UNL     1      51.480  10.154  10.983  0.00  0.00    +0.000 HD
BRANCH  22  28
ATOM     28  C   UNL     1      53.964   5.458   9.362  0.00  0.00    +0.000 C 
ATOM     29  N   UNL     1      53.970   4.729   8.201  0.00  0.00    +0.000 N 
ATOM     30  O   UNL     1      54.346   4.980  10.425  0.00  0.00    +0.000 OA
ATOM     31  H   UNL     1      53.607   5.140   7.350  0.00  0.00    +0.000 HD
ATOM     32  H   UNL     1      54.263   3.765   8.227  0.00  0.00    +0.000 HD
ENDBRANCH  22  28
ENDBRANCH  18  25
ENDBRANCH   1  18
TORSDOF 5
ENDMDL
