MODEL 1
REMARK VINA RESULT:    -9.179      0.000      0.000
REMARK INTER + INTRA:         -11.885
REMARK INTER:                 -11.325
REMARK INTRA:                  -0.560
REMARK UNBOUND:                -0.560
REMARK  Name = 
REMARK  4 active torsions:
REMARK  status: ('A' for Active; 'I' for Inactive)
REMARK    1  A    between atoms: C_2  and  C_4
REMARK    2  A    between atoms: N_8  and  C_9
REMARK    3  A    between atoms: C_9  and  C_10
REMARK    4  A    between atoms: C_14  and  N_15
REMARK                            x       y       z     vdW  Elec       q    Type
REMARK                         _______ _______ _______ _____ _____    ______ ____
ROOT
ATOM      1  C   UNL     1      43.963   4.836  11.474  0.00  0.00    +0.000 C 
ATOM      2  C   UNL     1      42.677   5.126  12.243  0.00  0.00    +0.000 C 
ATOM      3  C   UNL     1      43.070   6.007  11.105  0.00  0.00    +0.000 C 
ENDROOT
BRANCH   1   8
ATOM      4  C   UNL     1      46.449   2.708   7.535  0.00  0.00    +0.000 A 
ATOM      5  C   UNL     1      45.955   1.760   8.396  0.00  0.00    +0.000 A 
ATOM      6  N   UNL     1      45.165   2.050   9.451  0.00  0.00    +0.000 NA
ATOM      7  C   UNL     1      44.880   3.348   9.674  0.00  0.00    +0.000 A 
ATOM      8  N   UNL     1      43.976   3.586  10.707  0.00  0.00    +0.000 N 
ATOM      9  N   UNL     1      45.369   4.345   8.919  0.00  0.00    +0.000 NA
ATOM     10  C   UNL     1      46.140   4.007   7.863  0.00  0.00    +0.000 A 
ATOM     11  H   UNL     1      43.877   2.717  11.217  0.00  0.00    +0.000 HD
BRANCH   4  13
ATOM     12  N   UNL     1      47.220   3.278   5.304  0.00  0.00    +0.000 N 
ATOM     13  C   UNL     1      47.259   2.398   6.348  0.00  0.00    +0.000 C 
ATOM     14  O   UNL     1      47.979   1.410   6.317  0.00  0.00    +0.000 OA
ATOM     15  H   UNL     1      47.874   3.103   4.548  0.00  0.00    +0.000 HD
ATOM     16  H   UNL     1      46.856   4.219   5.378  0.00  0.00    +0.000 HD
ENDBRANCH   4  13
ENDBRANCH   1   8
BRANCH   1  17
ATOM     17  C   UNL     1      45.289   5.176  12.149  0.00  0.00    +0.000 A 
ATOM     18  C   UNL     1      46.028   6.306  11.759  0.00  0.00    +0.000 A 
ATOM     19  C   UNL     1      47.173   6.702  12.452  0.00  0.00    +0.000 A 
ATOM     20  C   UNL     1      47.602   5.982  13.567  0.00  0.00    +0.000 A 
ATOM     21  C   UNL     1      46.903   4.837  13.963  0.00  0.00    +0.000 A 
ATOM     22  C   UNL     1      45.783   4.419  13.227  0.00  0.00    +0.000 A 
BRANCH  21  23
ATOM     23  N   UNL     1      47.269   4.123  15.133  0.00  0.00    +0.000 N 
ATOM     24  C   UNL     1      47.000   4.424  16.447  0.00  0.00    +0.000 A 
ATOM     25  N   UNL     1      47.475   3.492  17.242  0.00  0.00    +0.000 NA
ATOM     26  C   UNL     1      48.035   2.613  16.368  0.00  0.00    +0.000 A 
ATOM     27  N   UNL     1      47.936   2.941  15.079  0.00  0.00    +0.000 NA
ENDBRANCH  21  23
ENDBRANCH   1  17
TORSDOF 4
ENDMDL
MODEL 2
REMARK VINA RESULT:    -8.290      2.216      3.258
REMARK INTER + INTRA:         -10.788
REMARK INTER:                 -10.115
REMARK INTRA:                  -0.673
REMARK UNBOUND:                -0.560
REMARK  Name = 
REMARK  4 active torsions:
REMARK  status: ('A' for Active; 'I' for Inactive)
REMARK    1  A    between atoms: C_2  and  C_4
REMARK    2  A    between atoms: N_8  and  C_9
REMARK    3  A    between atoms: C_9  and  C_10
REMARK    4  A    between atoms: C_14  and  N_15
REMARK                            x       y       z     vdW  Elec       q    Type
REMARK                         _______ _______ _______ _____ _____    ______ ____
ROOT
ATOM      1  C   UNL     1      43.794   4.976  11.420  0.00  0.00    +0.000 C 
ATOM      2  C   UNL     1      42.464   5.333  12.078  0.00  0.00    +0.000 C 
ATOM      3  C   UNL     1      42.989   6.181  10.968  0.00  0.00    +0.000 C 
ENDROOT
BRANCH   1   8
ATOM      4  C   UNL     1      46.384   2.758   7.600  0.00  0.00    +0.000 A 
ATOM      5  C   UNL     1      45.843   1.829   8.453  0.00  0.00    +0.000 A 
ATOM      6  N   UNL     1      45.019   2.146   9.475  0.00  0.00    +0.000 NA
ATOM      7  C   UNL     1      44.749   3.450   9.672  0.00  0.00    +0.000 A 
ATOM      8  N   UNL     1      43.813   3.717  10.669  0.00  0.00    +0.000 N 
ATOM      9  N   UNL     1      45.283   4.430   8.924  0.00  0.00    +0.000 NA
ATOM     10  C   UNL     1      46.086   4.066   7.901  0.00  0.00    +0.000 A 
ATOM     11  H   UNL     1      43.680   2.855  11.184  0.00  0.00    +0.000 HD
BRANCH   4  13
ATOM     12  N   UNL     1      47.154   3.222   5.344  0.00  0.00    +0.000 N 
ATOM     13  C   UNL     1      47.231   2.420   6.447  0.00  0.00    +0.000 C 
ATOM     14  O   UNL     1      48.014   1.480   6.494  0.00  0.00    +0.000 OA
ATOM     15  H   UNL     1      47.830   3.037   4.610  0.00  0.00    +0.000 HD
ATOM     16  H   UNL     1      46.730   4.140   5.347  0.00  0.00    +0.000 HD
ENDBRANCH   4  13
ENDBRANCH   1   8
BRANCH   1  17
ATOM     17  C   UNL     1      45.074   5.265  12.199  0.00  0.00    +0.000 A 
ATOM     18  C   UNL     1      45.598   4.324  13.101  0.00  0.00    +0.000 A 
ATOM     19  C   UNL     1      46.833   4.519  13.722  0.00  0.00    +0.000 A 
ATOM     20  C   UNL     1      47.586   5.660  13.443  0.00  0.00    +0.000 A 
ATOM     21  C   UNL     1      47.078   6.628  12.569  0.00  0.00    +0.000 A 
ATOM     22  C   UNL     1      45.812   6.446  11.992  0.00  0.00    +0.000 A 
BRANCH  21  23
ATOM     23  N   UNL     1      47.847   7.764  12.209  0.00  0.00    +0.000 N 
ATOM     24  C   UNL     1      47.582   9.094  12.438  0.00  0.00    +0.000 A 
ATOM     25  N   UNL     1      48.559   9.846  11.986  0.00  0.00    +0.000 NA
ATOM     26  C   UNL     1      49.429   8.930  11.481  0.00  0.00    +0.000 A 
ATOM     27  N   UNL     1      49.053   7.655  11.593  0.00  0.00    +0.000 NA
ENDBRANCH  21  23
ENDBRANCH   1  17
TORSDOF 4
ENDMDL
MODEL 3
REMARK VINA RESULT:    -6.409      2.742      4.578
REMARK INTER + INTRA:          -8.468
REMARK INTER:                  -8.494
REMARK INTRA:                   0.026
REMARK UNBOUND:                -0.560
REMARK  Name = 
REMARK  4 active torsions:
REMARK  status: ('A' for Active; 'I' for Inactive)
REMARK    1  A    between atoms: C_2  and  C_4
REMARK    2  A    between atoms: N_8  and  C_9
REMARK    3  A    between atoms: C_9  and  C_10
REMARK    4  A    between atoms: C_14  and  N_15
REMARK                            x       y       z     vdW  Elec       q    Type
REMARK                         _______ _______ _______ _____ _____    ______ ____
ROOT
ATOM      1  C   UNL     1      47.778   8.422  13.365  0.00  0.00    +0.000 C 
ATOM      2  C   UNL     1      48.075   9.905  13.159  0.00  0.00    +0.000 C 
ATOM      3  C   UNL     1      48.499   8.917  12.124  0.00  0.00    +0.000 C 
ENDROOT
BRANCH   1   8
ATOM      4  C   UNL     1      44.637   5.102  11.055  0.00  0.00    +0.000 A 
ATOM      5  C   UNL     1      44.164   5.474  12.289  0.00  0.00    +0.000 A 
ATOM      6  N   UNL     1      44.744   6.424  13.054  0.00  0.00    +0.000 NA
ATOM      7  C   UNL     1      45.861   7.006  12.579  0.00  0.00    +0.000 A 
ATOM      8  N   UNL     1      46.359   8.052  13.354  0.00  0.00    +0.000 N 
ATOM      9  N   UNL     1      46.427   6.661  11.410  0.00  0.00    +0.000 NA
ATOM     10  C   UNL     1      45.803   5.720  10.670  0.00  0.00    +0.000 A 
ATOM     11  H   UNL     1      45.871   8.018  14.241  0.00  0.00    +0.000 HD
BRANCH   4  13
ATOM     12  N   UNL     1      44.075   4.291   8.837  0.00  0.00    +0.000 N 
ATOM     13  C   UNL     1      43.980   4.114  10.188  0.00  0.00    +0.000 C 
ATOM     14  O   UNL     1      43.408   3.141  10.660  0.00  0.00    +0.000 OA
ATOM     15  H   UNL     1      43.715   3.537   8.261  0.00  0.00    +0.000 HD
ATOM     16  H   UNL     1      44.739   4.916   8.399  0.00  0.00    +0.000 HD
ENDBRANCH   4  13
ENDBRANCH   1   8
BRANCH   1  17
ATOM     17  C   UNL     1      48.621   7.662  14.386  0.00  0.00    +0.000 A 
ATOM     18  C   UNL     1      49.812   8.210  14.889  0.00  0.00    +0.000 A 
ATOM     19  C   UNL     1      50.524   7.588  15.915  0.00  0.00    +0.000 A 
ATOM     20  C   UNL     1      50.052   6.401  16.477  0.00  0.00    +0.000 A 
ATOM     21  C   UNL     1      48.882   5.817  15.978  0.00  0.00    +0.000 A 
ATOM     22  C   UNL     1      48.204   6.425  14.911  0.00  0.00    +0.000 A 
BRANCH  21  23
ATOM     23  N   UNL     1      48.336   4.651  16.573  0.00  0.00    +0.000 N 
ATOM     24  C   UNL     1      47.019   4.352  16.836  0.00  0.00    +0.000 A 
ATOM     25  N   UNL     1      46.912   3.152  17.358  0.00  0.00    +0.000 NA
ATOM     26  C   UNL     1      48.205   2.729  17.398  0.00  0.00    +0.000 A 
ATOM     27  N   UNL     1      49.108   3.592  16.931  0.00  0.00    +0.000 NA
ENDBRANCH  21  23
ENDBRANCH   1  17
TORSDOF 4
ENDMDL
MODEL 4
REMARK VINA RESULT:    -6.357      3.281      7.070
REMARK INTER + INTRA:          -8.403
REMARK INTER:                  -8.123
REMARK INTRA:                  -0.280
REMARK UNBOUND:                -0.560
REMARK  Name = 
REMARK  4 active torsions:
REMARK  status: ('A' for Active; 'I' for Inactive)
REMARK    1  A    between atoms: C_2  and  C_4
REMARK    2  A    between atoms: N_8  and  C_9
REMARK    3  A    between atoms: C_9  and  C_10
REMARK    4  A    between atoms: C_14  and  N_15
REMARK                            x       y       z     vdW  Elec       q    Type
REMARK                         _______ _______ _______ _____ _____    ______ ____
ROOT
ATOM      1  C   UNL     1      44.417   5.616  11.117  0.00  0.00    +0.000 C 
ATOM      2  C   UNL     1      43.017   6.222  11.070  0.00  0.00    +0.000 C 
ATOM      3  C   UNL     1      43.533   5.654  12.350  0.00  0.00    +0.000 C 
ENDROOT
BRANCH   1   8
ATOM      4  C   UNL     1      48.753   7.084  13.412  0.00  0.00    +0.000 A 
ATOM      5  C   UNL     1      48.805   7.281  12.054  0.00  0.00    +0.000 A 
ATOM      6  N   UNL     1      47.753   7.084  11.232  0.00  0.00    +0.000 NA
ATOM      7  C   UNL     1      46.607   6.641  11.785  0.00  0.00    +0.000 A 
ATOM      8  N   UNL     1      45.523   6.556  10.914  0.00  0.00    +0.000 N 
ATOM      9  N   UNL     1      46.485   6.364  13.094  0.00  0.00    +0.000 NA
ATOM     10  C   UNL     1      47.557   6.594  13.882  0.00  0.00    +0.000 A 
ATOM     11  H   UNL     1      45.892   6.659   9.976  0.00  0.00    +0.000 HD
BRANCH   4  13
ATOM     12  N   UNL     1      51.038   7.815  13.783  0.00  0.00    +0.000 N 
ATOM     13  C   UNL     1      49.872   7.354  14.325  0.00  0.00    +0.000 C 
ATOM     14  O   UNL     1      49.747   7.215  15.534  0.00  0.00    +0.000 OA
ATOM     15  H   UNL     1      51.754   8.102  14.443  0.00  0.00    +0.000 HD
ATOM     16  H   UNL     1      51.112   8.187  12.846  0.00  0.00    +0.000 HD
ENDBRANCH   4  13
ENDBRANCH   1   8
BRANCH   1  17
ATOM     17  C   UNL     1      44.623   4.249  10.468  0.00  0.00    +0.000 A 
ATOM     18  C   UNL     1      43.867   3.137  10.874  0.00  0.00    +0.000 A 
ATOM     19  C   UNL     1      43.952   1.915  10.205  0.00  0.00    +0.000 A 
ATOM     20  C   UNL     1      44.788   1.779   9.097  0.00  0.00    +0.000 A 
ATOM     21  C   UNL     1      45.574   2.861   8.685  0.00  0.00    +0.000 A 
ATOM     22  C   UNL     1      45.519   4.068   9.398  0.00  0.00    +0.000 A 
BRANCH  21  23
ATOM     23  N   UNL     1      46.381   2.779   7.522  0.00  0.00    +0.000 N 
ATOM     24  C   UNL     1      47.271   1.796   7.156  0.00  0.00    +0.000 A 
ATOM     25  N   UNL     1      47.796   2.061   5.982  0.00  0.00    +0.000 NA
ATOM     26  C   UNL     1      47.192   3.233   5.644  0.00  0.00    +0.000 A 
ATOM     27  N   UNL     1      46.323   3.711   6.535  0.00  0.00    +0.000 NA
ENDBRANCH  21  23
ENDBRANCH   1  17
TORSDOF 4
ENDMDL
MODEL 5
REMARK VINA RESULT:    -6.309      3.056      7.562
REMARK INTER + INTRA:          -8.344
REMARK INTER:                  -8.658
REMARK INTRA:                   0.314
REMARK UNBOUND:                -0.560
REMARK  Name = 
REMARK  4 active torsions:
REMARK  status: ('A' for Active; 'I' for Inactive)
REMARK    1  A    between atoms: C_2  and  C_4
REMARK    2  A    between atoms: N_8  and  C_9
REMARK    3  A    between atoms: C_9  and  C_10
REMARK    4  A    between atoms: C_14  and  N_15
REMARK                            x       y       z     vdW  Elec       q    Type
REMARK                         _______ _______ _______ _____ _____    ______ ____
ROOT
ATOM      1  C   UNL     1      48.590   7.770  12.875  0.00  0.00    +0.000 C 
ATOM      2  C   UNL     1      49.741   7.146  12.092  0.00  0.00    +0.000 C 
ATOM      3  C   UNL     1      49.504   8.616  12.007  0.00  0.00    +0.000 C 
ENDROOT
BRANCH   1   8
ATOM      4  C   UNL     1      48.021   4.445  16.727  0.00  0.00    +0.000 A 
ATOM      5  C   UNL     1      48.925   5.431  17.037  0.00  0.00    +0.000 A 
ATOM      6  N   UNL     1      49.171   6.493  16.241  0.00  0.00    +0.000 NA
ATOM      7  C   UNL     1      48.508   6.557  15.070  0.00  0.00    +0.000 A 
ATOM      8  N   UNL     1      48.716   7.722  14.335  0.00  0.00    +0.000 N 
ATOM      9  N   UNL     1      47.652   5.606  14.659  0.00  0.00    +0.000 NA
ATOM     10  C   UNL     1      47.423   4.571  15.496  0.00  0.00    +0.000 A 
ATOM     11  H   UNL     1      49.502   8.200  14.759  0.00  0.00    +0.000 HD
BRANCH   4  13
ATOM     12  N   UNL     1      48.630   2.955  18.546  0.00  0.00    +0.000 N 
ATOM     13  C   UNL     1      47.700   3.317  17.613  0.00  0.00    +0.000 C 
ATOM     14  O   UNL     1      46.616   2.753  17.548  0.00  0.00    +0.000 OA
ATOM     15  H   UNL     1      48.338   2.253  19.218  0.00  0.00    +0.000 HD
ATOM     16  H   UNL     1      49.413   3.538  18.812  0.00  0.00    +0.000 HD
ENDBRANCH   4  13
ENDBRANCH   1   8
BRANCH   1  17
ATOM     17  C   UNL     1      47.172   7.548  12.356  0.00  0.00    +0.000 A 
ATOM     18  C   UNL     1      46.170   8.512  12.560  0.00  0.00    +0.000 A 
ATOM     19  C   UNL     1      44.907   8.382  11.981  0.00  0.00    +0.000 A 
ATOM     20  C   UNL     1      44.616   7.286  11.168  0.00  0.00    +0.000 A 
ATOM     21  C   UNL     1      45.585   6.296  10.969  0.00  0.00    +0.000 A 
ATOM     22  C   UNL     1      46.834   6.411  11.598  0.00  0.00    +0.000 A 
BRANCH  21  23
ATOM     23  N   UNL     1      45.348   5.206  10.092  0.00  0.00    +0.000 N 
ATOM     24  C   UNL     1      44.604   4.071  10.309  0.00  0.00    +0.000 A 
ATOM     25  N   UNL     1      44.591   3.313   9.235  0.00  0.00    +0.000 NA
ATOM     26  C   UNL     1      45.347   4.029   8.359  0.00  0.00    +0.000 A 
ATOM     27  N   UNL     1      45.827   5.184   8.821  0.00  0.00    +0.000 NA
ENDBRANCH  21  23
ENDBRANCH   1  17
TORSDOF 4
ENDMDL
