MODEL 1
REMARK VINA RESULT:    -8.530      0.000      0.000
REMARK INTER + INTRA:         -11.757
REMARK INTER:                 -11.024
REMARK INTRA:                  -0.733
REMARK UNBOUND:                -0.733
REMARK  Name = 
REMARK  6 active torsions:
REMARK  status: ('A' for Active; 'I' for Inactive)
REMARK    1  A    between atoms: C_1  and  O_2
REMARK    2  A    between atoms: O_2  and  C_3
REMARK    3  A    between atoms: C_5  and  C_6
REMARK    4  A    between atoms: C_6  and  N_7
REMARK    5  A    between atoms: N_7  and  C_8
REMARK    6  A    between atoms: C_11  and  C_12
REMARK                            x       y       z     vdW  Elec       q    Type
REMARK                         _______ _______ _______ _____ _____    ______ ____
ROOT
ATOM      1  N   UNL     1      43.872   3.724  10.561  0.00  0.00    +0.000 N 
ATOM      2  H   UNL     1      43.002   3.201  10.535  0.00  0.00    +0.000 HD
ENDROOT
BRANCH   1   3
ATOM      3  C   UNL     1      44.750   3.444   9.505  0.00  0.00    +0.000 A 
ATOM      4  C   UNL     1      45.354   4.416   8.706  0.00  0.00    +0.000 A 
ATOM      5  C   UNL     1      46.255   4.045   7.701  0.00  0.00    +0.000 A 
ATOM      6  C   UNL     1      46.543   2.698   7.536  0.00  0.00    +0.000 A 
ATOM      7  N   UNL     1      46.002   1.713   8.300  0.00  0.00    +0.000 NA
ATOM      8  C   UNL     1      45.138   2.120   9.260  0.00  0.00    +0.000 A 
BRANCH   6   9
ATOM      9  C   UNL     1      47.496   2.259   6.469  0.00  0.00    +0.000 C 
ATOM     10  N   UNL     1      47.397   2.937   5.282  0.00  0.00    +0.000 N 
ATOM     11  O   UNL     1      48.313   1.360   6.634  0.00  0.00    +0.000 OA
ATOM     12  H   UNL     1      46.705   3.671   5.188  0.00  0.00    +0.000 HD
ATOM     13  H   UNL     1      48.007   2.697   4.513  0.00  0.00    +0.000 HD
ENDBRANCH   6   9
ENDBRANCH   1   3
BRANCH   1  14
ATOM     14  C   UNL     1      43.947   4.860  11.490  0.00  0.00    +0.000 C 
ATOM     15  C   UNL     1      43.098   6.101  11.309  0.00  0.00    +0.000 C 
ATOM     16  C   UNL     1      42.686   5.092  12.325  0.00  0.00    +0.000 C 
BRANCH  14  19
ATOM     17  C   UNL     1      46.998   4.141  13.692  0.00  0.00    +0.000 A 
ATOM     18  C   UNL     1      45.781   3.965  13.047  0.00  0.00    +0.000 A 
ATOM     19  C   UNL     1      45.284   4.981  12.221  0.00  0.00    +0.000 A 
ATOM     20  C   UNL     1      46.076   6.132  12.094  0.00  0.00    +0.000 A 
ATOM     21  C   UNL     1      47.299   6.201  12.743  0.00  0.00    +0.000 A 
ATOM     22  N   UNL     1      47.778   5.229  13.540  0.00  0.00    +0.000 NA
BRANCH  17  24
ATOM     23  C   UNL     1      47.526   3.543  15.877  0.00  0.00    +0.000 C 
ATOM     24  O   UNL     1      47.417   3.119  14.520  0.00  0.00    +0.000 OA
ENDBRANCH  17  24
ENDBRANCH  14  19
ENDBRANCH   1  14
TORSDOF 5
ENDMDL
MODEL 2
REMARK VINA RESULT:    -7.996      1.263      2.167
REMARK INTER + INTRA:         -11.067
REMARK INTER:                 -10.409
REMARK INTRA:                  -0.658
REMARK UNBOUND:                -0.733
REMARK  Name = 
REMARK  6 active torsions:
REMARK  status: ('A' for Active; 'I' for Inactive)
REMARK    1  A    between atoms: C_1  and  O_2
REMARK    2  A    between atoms: O_2  and  C_3
REMARK    3  A    between atoms: C_5  and  C_6
REMARK    4  A    between atoms: C_6  and  N_7
REMARK    5  A    between atoms: N_7  and  C_8
REMARK    6  A    between atoms: C_11  and  C_12
REMARK                            x       y       z     vdW  Elec       q    Type
REMARK                         _______ _______ _______ _____ _____    ______ ____
ROOT
ATOM      1  N   UNL     1      43.757   3.848  10.434  0.00  0.00    +0.000 N 
ATOM      2  H   UNL     1      42.823   3.471  10.306  0.00  0.00    +0.000 HD
ENDROOT
BRANCH   1   3
ATOM      3  C   UNL     1      44.695   3.413   9.488  0.00  0.00    +0.000 A 
ATOM      4  C   UNL     1      45.111   2.088   9.344  0.00  0.00    +0.000 A 
ATOM      5  C   UNL     1      46.020   1.738   8.340  0.00  0.00    +0.000 A 
ATOM      6  C   UNL     1      46.477   2.731   7.486  0.00  0.00    +0.000 A 
ATOM      7  N   UNL     1      46.089   4.031   7.566  0.00  0.00    +0.000 NA
ATOM      8  C   UNL     1      45.208   4.322   8.552  0.00  0.00    +0.000 A 
BRANCH   6   9
ATOM      9  C   UNL     1      47.455   2.400   6.403  0.00  0.00    +0.000 C 
ATOM     10  N   UNL     1      47.369   3.181   5.279  0.00  0.00    +0.000 N 
ATOM     11  O   UNL     1      48.280   1.500   6.502  0.00  0.00    +0.000 OA
ATOM     12  H   UNL     1      46.670   3.913   5.238  0.00  0.00    +0.000 HD
ATOM     13  H   UNL     1      47.996   3.017   4.504  0.00  0.00    +0.000 HD
ENDBRANCH   6   9
ENDBRANCH   1   3
BRANCH   1  14
ATOM     14  C   UNL     1      43.906   4.974  11.366  0.00  0.00    +0.000 C 
ATOM     15  C   UNL     1      43.195   6.294  11.149  0.00  0.00    +0.000 C 
ATOM     16  C   UNL     1      42.640   5.335  12.146  0.00  0.00    +0.000 C 
BRANCH  14  19
ATOM     17  C   UNL     1      47.228   6.010  12.966  0.00  0.00    +0.000 A 
ATOM     18  C   UNL     1      46.045   6.088  12.244  0.00  0.00    +0.000 A 
ATOM     19  C   UNL     1      45.215   4.963  12.154  0.00  0.00    +0.000 A 
ATOM     20  C   UNL     1      45.647   3.809  12.825  0.00  0.00    +0.000 A 
ATOM     21  C   UNL     1      46.824   3.837  13.558  0.00  0.00    +0.000 A 
ATOM     22  N   UNL     1      47.624   4.915  13.643  0.00  0.00    +0.000 NA
BRANCH  17  24
ATOM     23  C   UNL     1      48.432   7.529  11.679  0.00  0.00    +0.000 C 
ATOM     24  O   UNL     1      48.019   7.142  12.988  0.00  0.00    +0.000 OA
ENDBRANCH  17  24
ENDBRANCH  14  19
ENDBRANCH   1  14
TORSDOF 5
ENDMDL
MODEL 3
REMARK VINA RESULT:    -7.547      1.899      2.080
REMARK INTER + INTRA:         -10.486
REMARK INTER:                 -10.432
REMARK INTRA:                  -0.055
REMARK UNBOUND:                -0.733
REMARK  Name = 
REMARK  6 active torsions:
REMARK  status: ('A' for Active; 'I' for Inactive)
REMARK    1  A    between atoms: C_1  and  O_2
REMARK    2  A    between atoms: O_2  and  C_3
REMARK    3  A    between atoms: C_5  and  C_6
REMARK    4  A    between atoms: C_6  and  N_7
REMARK    5  A    between atoms: N_7  and  C_8
REMARK    6  A    between atoms: C_11  and  C_12
REMARK                            x       y       z     vdW  Elec       q    Type
REMARK                         _______ _______ _______ _____ _____    ______ ____
ROOT
ATOM      1  N   UNL     1      43.762   4.856   9.869  0.00  0.00    +0.000 N 
ATOM      2  H   UNL     1      43.200   5.456   9.272  0.00  0.00    +0.000 HD
ENDROOT
BRANCH   1   3
ATOM      3  C   UNL     1      44.616   3.986   9.178  0.00  0.00    +0.000 A 
ATOM      4  C   UNL     1      45.647   4.400   8.335  0.00  0.00    +0.000 A 
ATOM      5  C   UNL     1      46.481   3.458   7.721  0.00  0.00    +0.000 A 
ATOM      6  C   UNL     1      46.268   2.114   7.989  0.00  0.00    +0.000 A 
ATOM      7  N   UNL     1      45.295   1.656   8.820  0.00  0.00    +0.000 NA
ATOM      8  C   UNL     1      44.514   2.604   9.390  0.00  0.00    +0.000 A 
BRANCH   6   9
ATOM      9  C   UNL     1      47.133   1.074   7.349  0.00  0.00    +0.000 C 
ATOM     10  N   UNL     1      46.845  -0.220   7.697  0.00  0.00    +0.000 N 
ATOM     11  O   UNL     1      48.034   1.347   6.565  0.00  0.00    +0.000 OA
ATOM     12  H   UNL     1      46.093  -0.402   8.351  0.00  0.00    +0.000 HD
ATOM     13  H   UNL     1      47.387  -0.979   7.306  0.00  0.00    +0.000 HD
ENDBRANCH   6   9
ENDBRANCH   1   3
BRANCH   1  14
ATOM     14  C   UNL     1      43.811   5.187  11.300  0.00  0.00    +0.000 C 
ATOM     15  C   UNL     1      42.573   5.158  12.173  0.00  0.00    +0.000 C 
ATOM     16  C   UNL     1      43.528   4.015  12.241  0.00  0.00    +0.000 C 
BRANCH  14  19
ATOM     17  C   UNL     1      47.197   6.520  12.496  0.00  0.00    +0.000 A 
ATOM     18  C   UNL     1      46.192   5.626  12.151  0.00  0.00    +0.000 A 
ATOM     19  C   UNL     1      44.964   6.113  11.686  0.00  0.00    +0.000 A 
ATOM     20  C   UNL     1      44.836   7.507  11.592  0.00  0.00    +0.000 A 
ATOM     21  C   UNL     1      45.909   8.321  11.920  0.00  0.00    +0.000 A 
ATOM     22  N   UNL     1      47.088   7.857  12.370  0.00  0.00    +0.000 NA
BRANCH  17  24
ATOM     23  C   UNL     1      49.219   6.974  13.551  0.00  0.00    +0.000 C 
ATOM     24  O   UNL     1      48.371   5.980  12.981  0.00  0.00    +0.000 OA
ENDBRANCH  17  24
ENDBRANCH  14  19
ENDBRANCH   1  14
TORSDOF 5
ENDMDL
MODEL 4
REMARK VINA RESULT:    -6.755      1.868      6.665
REMARK INTER + INTRA:          -9.463
REMARK INTER:                  -8.948
REMARK INTRA:                  -0.514
REMARK UNBOUND:                -0.733
REMARK  Name = 
REMARK  6 active torsions:
REMARK  status: ('A' for Active; 'I' for Inactive)
REMARK    1  A    between atoms: C_1  and  O_2
REMARK    2  A    between atoms: O_2  and  C_3
REMARK    3  A    between atoms: C_5  and  C_6
REMARK    4  A    between atoms: C_6  and  N_7
REMARK    5  A    between atoms: N_7  and  C_8
REMARK    6  A    between atoms: C_11  and  C_12
REMARK                            x       y       z     vdW  Elec       q    Type
REMARK                         _______ _______ _______ _____ _____    ______ ____
ROOT
ATOM      1  N   UNL     1      46.192   5.704  12.134  0.00  0.00    +0.000 N 
ATOM      2  H   UNL     1      46.655   6.561  11.849  0.00  0.00    +0.000 HD
ENDROOT
BRANCH   1   3
ATOM      3  C   UNL     1      46.732   5.102  13.278  0.00  0.00    +0.000 A 
ATOM      4  C   UNL     1      47.165   5.803  14.405  0.00  0.00    +0.000 A 
ATOM      5  C   UNL     1      47.650   5.114  15.522  0.00  0.00    +0.000 A 
ATOM      6  C   UNL     1      47.670   3.727  15.487  0.00  0.00    +0.000 A 
ATOM      7  N   UNL     1      47.239   2.994  14.426  0.00  0.00    +0.000 NA
ATOM      8  C   UNL     1      46.778   3.705  13.369  0.00  0.00    +0.000 A 
BRANCH   6   9
ATOM      9  C   UNL     1      48.186   2.953  16.658  0.00  0.00    +0.000 C 
ATOM     10  N   UNL     1      47.362   2.931  17.754  0.00  0.00    +0.000 N 
ATOM     11  O   UNL     1      49.265   2.372  16.650  0.00  0.00    +0.000 OA
ATOM     12  H   UNL     1      46.479   3.427  17.719  0.00  0.00    +0.000 HD
ATOM     13  H   UNL     1      47.643   2.429  18.584  0.00  0.00    +0.000 HD
ENDBRANCH   6   9
ENDBRANCH   1   3
BRANCH   1  14
ATOM     14  C   UNL     1      44.897   5.399  11.507  0.00  0.00    +0.000 C 
ATOM     15  C   UNL     1      43.593   5.499  12.271  0.00  0.00    +0.000 C 
ATOM     16  C   UNL     1      43.966   6.600  11.339  0.00  0.00    +0.000 C 
BRANCH  14  19
ATOM     17  C   UNL     1      45.682   3.843   8.096  0.00  0.00    +0.000 A 
ATOM     18  C   UNL     1      45.644   4.763   9.135  0.00  0.00    +0.000 A 
ATOM     19  C   UNL     1      44.988   4.432  10.328  0.00  0.00    +0.000 A 
ATOM     20  C   UNL     1      44.407   3.156  10.391  0.00  0.00    +0.000 A 
ATOM     21  C   UNL     1      44.532   2.288   9.318  0.00  0.00    +0.000 A 
ATOM     22  N   UNL     1      45.158   2.604   8.170  0.00  0.00    +0.000 NA
BRANCH  17  24
ATOM     23  C   UNL     1      46.791   3.132   6.179  0.00  0.00    +0.000 C 
ATOM     24  O   UNL     1      46.313   4.243   6.935  0.00  0.00    +0.000 OA
ENDBRANCH  17  24
ENDBRANCH  14  19
ENDBRANCH   1  14
TORSDOF 5
ENDMDL
MODEL 5
REMARK VINA RESULT:    -6.513      2.102      6.476
REMARK INTER + INTRA:          -9.150
REMARK INTER:                  -8.705
REMARK INTRA:                  -0.445
REMARK UNBOUND:                -0.733
REMARK  Name = 
REMARK  6 active torsions:
REMARK  status: ('A' for Active; 'I' for Inactive)
REMARK    1  A    between atoms: C_1  and  O_2
REMARK    2  A    between atoms: O_2  and  C_3
REMARK    3  A    between atoms: C_5  and  C_6
REMARK    4  A    between atoms: C_6  and  N_7
REMARK    5  A    between atoms: N_7  and  C_8
REMARK    6  A    between atoms: C_11  and  C_12
REMARK                            x       y       z     vdW  Elec       q    Type
REMARK                         _______ _______ _______ _____ _____    ______ ____
ROOT
ATOM      1  N   UNL     1      44.887   6.580  11.539  0.00  0.00    +0.000 N 
ATOM      2  H   UNL     1      44.492   7.416  11.118  0.00  0.00    +0.000 HD
ENDROOT
BRANCH   1   3
ATOM      3  C   UNL     1      46.004   6.810  12.353  0.00  0.00    +0.000 A 
ATOM      4  C   UNL     1      46.271   8.018  12.999  0.00  0.00    +0.000 A 
ATOM      5  C   UNL     1      47.390   8.143  13.830  0.00  0.00    +0.000 A 
ATOM      6  C   UNL     1      48.207   7.036  14.009  0.00  0.00    +0.000 A 
ATOM      7  N   UNL     1      47.982   5.830  13.423  0.00  0.00    +0.000 NA
ATOM      8  C   UNL     1      46.887   5.758  12.629  0.00  0.00    +0.000 A 
BRANCH   6   9
ATOM      9  C   UNL     1      49.417   7.129  14.885  0.00  0.00    +0.000 C 
ATOM     10  N   UNL     1      50.571   7.507  14.249  0.00  0.00    +0.000 N 
ATOM     11  O   UNL     1      49.390   6.889  16.086  0.00  0.00    +0.000 OA
ATOM     12  H   UNL     1      50.550   7.693  13.253  0.00  0.00    +0.000 HD
ATOM     13  H   UNL     1      51.430   7.591  14.774  0.00  0.00    +0.000 HD
ENDBRANCH   6   9
ENDBRANCH   1   3
BRANCH   1  14
ATOM     14  C   UNL     1      44.083   5.352  11.475  0.00  0.00    +0.000 C 
ATOM     15  C   UNL     1      43.346   4.811  12.683  0.00  0.00    +0.000 C 
ATOM     16  C   UNL     1      42.578   5.558  11.648  0.00  0.00    +0.000 C 
BRANCH  14  19
ATOM     17  C   UNL     1      45.609   3.856   8.297  0.00  0.00    +0.000 A 
ATOM     18  C   UNL     1      45.253   4.788   9.261  0.00  0.00    +0.000 A 
ATOM     19  C   UNL     1      44.519   4.377  10.381  0.00  0.00    +0.000 A 
ATOM     20  C   UNL     1      44.194   3.014  10.454  0.00  0.00    +0.000 A 
ATOM     21  C   UNL     1      44.630   2.148   9.463  0.00  0.00    +0.000 A 
ATOM     22  N   UNL     1      45.332   2.540   8.385  0.00  0.00    +0.000 NA
BRANCH  17  24
ATOM     23  C   UNL     1      46.760   3.270   6.362  0.00  0.00    +0.000 C 
ATOM     24  O   UNL     1      46.301   4.329   7.199  0.00  0.00    +0.000 OA
ENDBRANCH  17  24
ENDBRANCH  14  19
ENDBRANCH   1  14
TORSDOF 5
ENDMDL
MODEL 6
REMARK VINA RESULT:    -6.106      2.464      6.980
REMARK INTER + INTRA:          -8.624
REMARK INTER:                  -8.058
REMARK INTRA:                  -0.566
REMARK UNBOUND:                -0.733
REMARK  Name = 
REMARK  6 active torsions:
REMARK  status: ('A' for Active; 'I' for Inactive)
REMARK    1  A    between atoms: C_1  and  O_2
REMARK    2  A    between atoms: O_2  and  C_3
REMARK    3  A    between atoms: C_5  and  C_6
REMARK    4  A    between atoms: C_6  and  N_7
REMARK    5  A    between atoms: N_7  and  C_8
REMARK    6  A    between atoms: C_11  and  C_12
REMARK                            x       y       z     vdW  Elec       q    Type
REMARK                         _______ _______ _______ _____ _____    ______ ____
ROOT
ATOM      1  N   UNL     1      47.402   6.485  12.809  0.00  0.00    +0.000 N 
ATOM      2  H   UNL     1      48.290   6.706  12.368  0.00  0.00    +0.000 HD
ENDROOT
BRANCH   1   3
ATOM      3  C   UNL     1      47.511   5.767  14.006  0.00  0.00    +0.000 A 
ATOM      4  C   UNL     1      48.261   6.181  15.108  0.00  0.00    +0.000 A 
ATOM      5  C   UNL     1      48.275   5.419  16.282  0.00  0.00    +0.000 A 
ATOM      6  C   UNL     1      47.512   4.261  16.326  0.00  0.00    +0.000 A 
ATOM      7  N   UNL     1      46.746   3.823  15.293  0.00  0.00    +0.000 NA
ATOM      8  C   UNL     1      46.764   4.594  14.180  0.00  0.00    +0.000 A 
BRANCH   6   9
ATOM      9  C   UNL     1      47.503   3.415  17.560  0.00  0.00    +0.000 C 
ATOM     10  N   UNL     1      48.491   3.696  18.469  0.00  0.00    +0.000 N 
ATOM     11  O   UNL     1      46.676   2.533  17.758  0.00  0.00    +0.000 OA
ATOM     12  H   UNL     1      49.157   4.432  18.264  0.00  0.00    +0.000 HD
ATOM     13  H   UNL     1      48.551   3.165  19.327  0.00  0.00    +0.000 HD
ENDBRANCH   6   9
ENDBRANCH   1   3
BRANCH   1  14
ATOM     14  C   UNL     1      46.210   7.181  12.304  0.00  0.00    +0.000 C 
ATOM     15  C   UNL     1      45.643   8.405  12.994  0.00  0.00    +0.000 C 
ATOM     16  C   UNL     1      46.466   8.589  11.766  0.00  0.00    +0.000 C 
BRANCH  14  19
ATOM     17  C   UNL     1      44.816   4.739   9.704  0.00  0.00    +0.000 A 
ATOM     18  C   UNL     1      45.721   5.514  10.414  0.00  0.00    +0.000 A 
ATOM     19  C   UNL     1      45.271   6.295  11.486  0.00  0.00    +0.000 A 
ATOM     20  C   UNL     1      43.900   6.230  11.778  0.00  0.00    +0.000 A 
ATOM     21  C   UNL     1      43.077   5.393  11.040  0.00  0.00    +0.000 A 
ATOM     22  N   UNL     1      43.506   4.645  10.008  0.00  0.00    +0.000 NA
BRANCH  17  24
ATOM     23  C   UNL     1      45.297   2.616   8.884  0.00  0.00    +0.000 C 
ATOM     24  O   UNL     1      45.315   4.020   8.636  0.00  0.00    +0.000 OA
ENDBRANCH  17  24
ENDBRANCH  14  19
ENDBRANCH   1  14
TORSDOF 5
ENDMDL
MODEL 7
REMARK VINA RESULT:    -5.660      3.156      4.876
REMARK INTER + INTRA:          -8.047
REMARK INTER:                  -7.798
REMARK INTRA:                  -0.250
REMARK UNBOUND:                -0.733
REMARK  Name = 
REMARK  6 active torsions:
REMARK  status: ('A' for Active; 'I' for Inactive)
REMARK    1  A    between atoms: C_1  and  O_2
REMARK    2  A    between atoms: O_2  and  C_3
REMARK    3  A    between atoms: C_5  and  C_6
REMARK    4  A    between atoms: C_6  and  N_7
REMARK    5  A    between atoms: N_7  and  C_8
REMARK    6  A    between atoms: C_11  and  C_12
REMARK                            x       y       z     vdW  Elec       q    Type
REMARK                         _______ _______ _______ _____ _____    ______ ____
ROOT
ATOM      1  N   UNL     1      46.525   7.122  13.468  0.00  0.00    +0.000 N 
ATOM      2  H   UNL     1      45.920   7.812  13.904  0.00  0.00    +0.000 HD
ENDROOT
BRANCH   1   3
ATOM      3  C   UNL     1      45.847   6.096  12.796  0.00  0.00    +0.000 A 
ATOM      4  C   UNL     1      45.419   6.173  11.470  0.00  0.00    +0.000 A 
ATOM      5  C   UNL     1      44.788   5.079  10.866  0.00  0.00    +0.000 A 
ATOM      6  C   UNL     1      44.619   3.920  11.610  0.00  0.00    +0.000 A 
ATOM      7  N   UNL     1      45.036   3.783  12.896  0.00  0.00    +0.000 NA
ATOM      8  C   UNL     1      45.642   4.867  13.437  0.00  0.00    +0.000 A 
BRANCH   6   9
ATOM      9  C   UNL     1      43.944   2.730  11.004  0.00  0.00    +0.000 C 
ATOM     10  N   UNL     1      44.545   2.227   9.880  0.00  0.00    +0.000 N 
ATOM     11  O   UNL     1      42.928   2.231  11.472  0.00  0.00    +0.000 OA
ATOM     12  H   UNL     1      45.383   2.672   9.525  0.00  0.00    +0.000 HD
ATOM     13  H   UNL     1      44.147   1.424   9.413  0.00  0.00    +0.000 HD
ENDBRANCH   6   9
ENDBRANCH   1   3
BRANCH   1  14
ATOM     14  C   UNL     1      47.952   7.454  13.357  0.00  0.00    +0.000 C 
ATOM     15  C   UNL     1      48.626   7.659  12.015  0.00  0.00    +0.000 C 
ATOM     16  C   UNL     1      48.247   8.855  12.820  0.00  0.00    +0.000 C 
BRANCH  14  19
ATOM     17  C   UNL     1      49.107   5.736  16.579  0.00  0.00    +0.000 A 
ATOM     18  C   UNL     1      48.293   6.119  15.523  0.00  0.00    +0.000 A 
ATOM     19  C   UNL     1      48.796   6.982  14.540  0.00  0.00    +0.000 A 
ATOM     20  C   UNL     1      50.125   7.403  14.695  0.00  0.00    +0.000 A 
ATOM     21  C   UNL     1      50.877   6.934  15.762  0.00  0.00    +0.000 A 
ATOM     22  N   UNL     1      50.396   6.108  16.708  0.00  0.00    +0.000 NA
BRANCH  17  24
ATOM     23  C   UNL     1      47.401   4.221  17.032  0.00  0.00    +0.000 C 
ATOM     24  O   UNL     1      48.543   4.913  17.533  0.00  0.00    +0.000 OA
ENDBRANCH  17  24
ENDBRANCH  14  19
ENDBRANCH   1  14
TORSDOF 5
ENDMDL
