MODEL 1
REMARK VINA RESULT:    -8.333      0.000      0.000
REMARK INTER + INTRA:         -13.658
REMARK INTER:                 -12.718
REMARK INTRA:                  -0.940
REMARK UNBOUND:                -0.940
REMARK  Name = 
REMARK  11 active torsions:
REMARK  status: ('A' for Active; 'I' for Inactive)
REMARK    1  A    between atoms: C_1  and  C_2
REMARK    2  A    between atoms: C_2  and  N_3
REMARK    3  A    between atoms: C_2  and  C_23
REMARK    4  A    between atoms: C_4  and  C_6
REMARK    5  A    between atoms: C_9  and  C_10
REMARK    6  A    between atoms: C_10  and  N_11
REMARK    7  A    between atoms: C_12  and  C_14
REMARK    8  A    between atoms: N_18  and  C_19
REMARK    9  A    between atoms: C_26  and  C_27
REMARK   10  A    between atoms: C_27  and  N_28
REMARK   11  A    between atoms: C_29  and  C_31
REMARK                            x       y       z     vdW  Elec       q    Type
REMARK                         _______ _______ _______ _____ _____    ______ ____
ROOT
ATOM      1  C   UNL     1      49.391   9.033  12.533  0.00  0.00    +0.000 C 
ATOM      2  C   UNL     1      48.073   8.667  13.225  0.00  0.00    +0.000 C 
ENDROOT
BRANCH   2   3
ATOM      3  C   UNL     1      48.286   8.235  14.663  0.00  0.00    +0.000 A 
ATOM      4  C   UNL     1      48.257   9.205  15.676  0.00  0.00    +0.000 A 
ATOM      5  C   UNL     1      48.558   8.871  16.999  0.00  0.00    +0.000 A 
ATOM      6  C   UNL     1      48.900   7.558  17.338  0.00  0.00    +0.000 A 
ATOM      7  C   UNL     1      48.849   6.571  16.345  0.00  0.00    +0.000 A 
ATOM      8  C   UNL     1      48.553   6.905  15.019  0.00  0.00    +0.000 A 
BRANCH   6   9
ATOM      9  C   UNL     1      49.306   7.214  18.746  0.00  0.00    +0.000 C 
BRANCH   9  10
ATOM     10  N   UNL     1      50.145   6.046  18.786  0.00  0.00    +0.000 N 
ATOM     11  C   UNL     1      51.502   6.149  18.652  0.00  0.00    +0.000 C 
ATOM     12  O   UNL     1      52.073   7.229  18.544  0.00  0.00    +0.000 OA
ATOM     13  H   UNL     1      49.687   5.148  18.650  0.00  0.00    +0.000 HD
BRANCH  11  14
ATOM     14  C   UNL     1      52.258   4.886  18.708  0.00  0.00    +0.000 A 
ATOM     15  C   UNL     1      53.496   4.853  19.337  0.00  0.00    +0.000 A 
ATOM     16  S   UNL     1      54.208   3.305  19.361  0.00  0.00    +0.000 S 
ATOM     17  C   UNL     1      52.914   2.634  18.487  0.00  0.00    +0.000 A 
ATOM     18  N   UNL     1      52.909   1.318  18.148  0.00  0.00    +0.000 NA
ATOM     19  C   UNL     1      51.875   0.949  17.460  0.00  0.00    +0.000 A 
ATOM     20  N   UNL     1      50.848   1.774  17.091  0.00  0.00    +0.000 N 
ATOM     21  C   UNL     1      50.798   3.105  17.431  0.00  0.00    +0.000 A 
ATOM     22  O   UNL     1      49.841   3.808  17.117  0.00  0.00    +0.000 OA
ATOM     23  C   UNL     1      51.939   3.575  18.197  0.00  0.00    +0.000 A 
ATOM     24  H   UNL     1      50.066   1.420  16.560  0.00  0.00    +0.000 HD
ENDBRANCH  11  14
ENDBRANCH   9  10
ENDBRANCH   6   9
ENDBRANCH   2   3
BRANCH   2  25
ATOM     25  N   UNL     1      47.350   7.663  12.463  0.00  0.00    +0.000 N 
ATOM     26  C   UNL     1      45.978   7.725  12.350  0.00  0.00    +0.000 C 
ATOM     27  O   UNL     1      45.313   8.584  12.921  0.00  0.00    +0.000 OA
ATOM     28  H   UNL     1      47.862   6.886  12.068  0.00  0.00    +0.000 HD
BRANCH  26  29
ATOM     29  C   UNL     1      45.373   6.698  11.393  0.00  0.00    +0.000 C 
ATOM     30  C   UNL     1      46.045   5.327  11.526  0.00  0.00    +0.000 C 
ATOM     31  C   UNL     1      45.643   4.569  12.791  0.00  0.00    +0.000 C 
ATOM     32  C   UNL     1      44.123   4.420  12.933  0.00  0.00    +0.000 C 
ATOM     33  C   UNL     1      43.441   5.796  12.826  0.00  0.00    +0.000 C 
ATOM     34  C   UNL     1      43.853   6.616  11.599  0.00  0.00    +0.000 C 
BRANCH  32  35
ATOM     35  C   UNL     1      43.540   3.393  11.942  0.00  0.00    +0.000 C 
BRANCH  35  36
ATOM     36  N   UNL     1      44.552   2.932  11.002  0.00  0.00    +0.000 N 
ATOM     37  C   UNL     1      44.621   3.339   9.681  0.00  0.00    +0.000 C 
ATOM     38  O   UNL     1      43.789   4.077   9.159  0.00  0.00    +0.000 OA
ATOM     39  H   UNL     1      45.244   2.280  11.345  0.00  0.00    +0.000 HD
BRANCH  37  40
ATOM     40  C   UNL     1      45.845   2.790   8.944  0.00  0.00    +0.000 C 
ATOM     41  C   UNL     1      46.142   3.643   7.703  0.00  0.00    +0.000 C 
ATOM     42  C   UNL     1      47.302   3.057   6.909  0.00  0.00    +0.000 C 
ATOM     43  C   UNL     1      47.047   1.594   6.562  0.00  0.00    +0.000 C 
ATOM     44  N   UNL     1      46.813   0.802   7.777  0.00  0.00    +0.000 NA
ATOM     45  C   UNL     1      46.613  -0.605   7.422  0.00  0.00    +0.000 C 
ATOM     46  C   UNL     1      45.654   1.316   8.540  0.00  0.00    +0.000 C 
ENDBRANCH  37  40
ENDBRANCH  35  36
ENDBRANCH  32  35
ENDBRANCH  26  29
ENDBRANCH   2  25
TORSDOF 9
ENDMDL
MODEL 2
REMARK VINA RESULT:    -6.695      6.391      9.266
REMARK INTER + INTRA:         -11.158
REMARK INTER:                  -9.405
REMARK INTRA:                  -1.753
REMARK UNBOUND:                -0.940
REMARK  Name = 
REMARK  11 active torsions:
REMARK  status: ('A' for Active; 'I' for Inactive)
REMARK    1  A    between atoms: C_1  and  C_2
REMARK    2  A    between atoms: C_2  and  N_3
REMARK    3  A    between atoms: C_2  and  C_23
REMARK    4  A    between atoms: C_4  and  C_6
REMARK    5  A    between atoms: C_9  and  C_10
REMARK    6  A    between atoms: C_10  and  N_11
REMARK    7  A    between atoms: C_12  and  C_14
REMARK    8  A    between atoms: N_18  and  C_19
REMARK    9  A    between atoms: C_26  and  C_27
REMARK   10  A    between atoms: C_27  and  N_28
REMARK   11  A    between atoms: C_29  and  C_31
REMARK                            x       y       z     vdW  Elec       q    Type
REMARK                         _______ _______ _______ _____ _____    ______ ____
ROOT
ATOM      1  C   UNL     1      52.853  10.951  11.047  0.00  0.00    +0.000 C 
ATOM      2  C   UNL     1      52.503   9.651  11.779  0.00  0.00    +0.000 C 
ENDROOT
BRANCH   2   3
ATOM      3  C   UNL     1      53.174   8.445  11.151  0.00  0.00    +0.000 A 
ATOM      4  C   UNL     1      54.547   8.243  11.361  0.00  0.00    +0.000 A 
ATOM      5  C   UNL     1      55.229   7.211  10.712  0.00  0.00    +0.000 A 
ATOM      6  C   UNL     1      54.553   6.358   9.833  0.00  0.00    +0.000 A 
ATOM      7  C   UNL     1      53.168   6.504   9.684  0.00  0.00    +0.000 A 
ATOM      8  C   UNL     1      52.485   7.541  10.329  0.00  0.00    +0.000 A 
BRANCH   6   9
ATOM      9  C   UNL     1      55.303   5.299   9.069  0.00  0.00    +0.000 C 
BRANCH   9  10
ATOM     10  N   UNL     1      55.416   5.632   7.674  0.00  0.00    +0.000 N 
ATOM     11  C   UNL     1      54.738   4.921   6.723  0.00  0.00    +0.000 C 
ATOM     12  O   UNL     1      53.970   4.008   7.006  0.00  0.00    +0.000 OA
ATOM     13  H   UNL     1      56.201   6.222   7.406  0.00  0.00    +0.000 HD
BRANCH  11  14
ATOM     14  C   UNL     1      54.931   5.353   5.328  0.00  0.00    +0.000 A 
ATOM     15  C   UNL     1      55.548   4.499   4.423  0.00  0.00    +0.000 A 
ATOM     16  S   UNL     1      55.641   5.131   2.843  0.00  0.00    +0.000 S 
ATOM     17  C   UNL     1      54.909   6.588   3.322  0.00  0.00    +0.000 A 
ATOM     18  N   UNL     1      54.706   7.594   2.430  0.00  0.00    +0.000 NA
ATOM     19  C   UNL     1      54.165   8.656   2.938  0.00  0.00    +0.000 A 
ATOM     20  N   UNL     1      53.802   8.796   4.250  0.00  0.00    +0.000 N 
ATOM     21  C   UNL     1      53.965   7.799   5.181  0.00  0.00    +0.000 A 
ATOM     22  O   UNL     1      53.592   7.945   6.343  0.00  0.00    +0.000 OA
ATOM     23  C   UNL     1      54.578   6.586   4.667  0.00  0.00    +0.000 A 
ATOM     24  H   UNL     1      53.377   9.649   4.580  0.00  0.00    +0.000 HD
ENDBRANCH  11  14
ENDBRANCH   9  10
ENDBRANCH   6   9
ENDBRANCH   2   3
BRANCH   2  25
ATOM     25  N   UNL     1      51.064   9.479  11.869  0.00  0.00    +0.000 N 
ATOM     26  C   UNL     1      50.410   9.671  13.066  0.00  0.00    +0.000 C 
ATOM     27  O   UNL     1      51.009   9.939  14.103  0.00  0.00    +0.000 OA
ATOM     28  H   UNL     1      50.557   9.159  11.054  0.00  0.00    +0.000 HD
BRANCH  26  29
ATOM     29  C   UNL     1      48.885   9.610  12.974  0.00  0.00    +0.000 C 
ATOM     30  C   UNL     1      48.416   9.032  11.635  0.00  0.00    +0.000 C 
ATOM     31  C   UNL     1      48.607   7.520  11.521  0.00  0.00    +0.000 C 
ATOM     32  C   UNL     1      47.953   6.753  12.677  0.00  0.00    +0.000 C 
ATOM     33  C   UNL     1      48.438   7.310  14.027  0.00  0.00    +0.000 C 
ATOM     34  C   UNL     1      48.315   8.831  14.168  0.00  0.00    +0.000 C 
BRANCH  32  35
ATOM     35  C   UNL     1      46.414   6.726  12.567  0.00  0.00    +0.000 C 
BRANCH  35  36
ATOM     36  N   UNL     1      45.972   5.749  11.583  0.00  0.00    +0.000 N 
ATOM     37  C   UNL     1      44.658   5.605  11.174  0.00  0.00    +0.000 C 
ATOM     38  O   UNL     1      43.728   6.245  11.658  0.00  0.00    +0.000 OA
ATOM     39  H   UNL     1      46.675   5.147  11.176  0.00  0.00    +0.000 HD
BRANCH  37  40
ATOM     40  C   UNL     1      44.484   4.580  10.050  0.00  0.00    +0.000 C 
ATOM     41  C   UNL     1      44.394   3.164  10.635  0.00  0.00    +0.000 C 
ATOM     42  C   UNL     1      44.312   2.125   9.524  0.00  0.00    +0.000 C 
ATOM     43  C   UNL     1      45.470   2.277   8.544  0.00  0.00    +0.000 C 
ATOM     44  N   UNL     1      45.497   3.629   7.971  0.00  0.00    +0.000 NA
ATOM     45  C   UNL     1      46.589   3.738   7.002  0.00  0.00    +0.000 C 
ATOM     46  C   UNL     1      45.632   4.658   9.026  0.00  0.00    +0.000 C 
ENDBRANCH  37  40
ENDBRANCH  35  36
ENDBRANCH  32  35
ENDBRANCH  26  29
ENDBRANCH   2  25
TORSDOF 9
ENDMDL
MODEL 3
REMARK VINA RESULT:    -6.650      6.605     10.078
REMARK INTER + INTRA:         -11.089
REMARK INTER:                  -9.149
REMARK INTRA:                  -1.941
REMARK UNBOUND:                -0.940
REMARK  Name = 
REMARK  11 active torsions:
REMARK  status: ('A' for Active; 'I' for Inactive)
REMARK    1  A    between atoms: C_1  and  C_2
REMARK    2  A    between atoms: C_2  and  N_3
REMARK    3  A    between atoms: C_2  and  C_23
REMARK    4  A    between atoms: C_4  and  C_6
REMARK    5  A    between atoms: C_9  and  C_10
REMARK    6  A    between atoms: C_10  and  N_11
REMARK    7  A    between atoms: C_12  and  C_14
REMARK    8  A    between atoms: N_18  and  C_19
REMARK    9  A    between atoms: C_26  and  C_27
REMARK   10  A    between atoms: C_27  and  N_28
REMARK   11  A    between atoms: C_29  and  C_31
REMARK                            x       y       z     vdW  Elec       q    Type
REMARK                         _______ _______ _______ _____ _____    ______ ____
ROOT
ATOM      1  C   UNL     1      52.395  10.414   8.176  0.00  0.00    +0.000 C 
ATOM      2  C   UNL     1      52.690   9.757   9.529  0.00  0.00    +0.000 C 
ENDROOT
BRANCH   2   3
ATOM      3  C   UNL     1      53.317   8.386   9.372  0.00  0.00    +0.000 A 
ATOM      4  C   UNL     1      54.559   8.275   8.728  0.00  0.00    +0.000 A 
ATOM      5  C   UNL     1      55.121   7.023   8.462  0.00  0.00    +0.000 A 
ATOM      6  C   UNL     1      54.450   5.852   8.830  0.00  0.00    +0.000 A 
ATOM      7  C   UNL     1      53.250   5.960   9.546  0.00  0.00    +0.000 A 
ATOM      8  C   UNL     1      52.684   7.213   9.808  0.00  0.00    +0.000 A 
BRANCH   6   9
ATOM      9  C   UNL     1      55.013   4.504   8.469  0.00  0.00    +0.000 C 
BRANCH   9  10
ATOM     10  N   UNL     1      55.306   4.411   7.064  0.00  0.00    +0.000 N 
ATOM     11  C   UNL     1      54.570   3.601   6.243  0.00  0.00    +0.000 C 
ATOM     12  O   UNL     1      53.605   2.960   6.644  0.00  0.00    +0.000 OA
ATOM     13  H   UNL     1      56.217   4.748   6.763  0.00  0.00    +0.000 HD
BRANCH  11  14
ATOM     14  C   UNL     1      54.962   3.587   4.824  0.00  0.00    +0.000 A 
ATOM     15  C   UNL     1      55.418   2.408   4.248  0.00  0.00    +0.000 A 
ATOM     16  S   UNL     1      55.775   2.552   2.588  0.00  0.00    +0.000 S 
ATOM     17  C   UNL     1      55.385   4.207   2.590  0.00  0.00    +0.000 A 
ATOM     18  N   UNL     1      55.497   4.951   1.459  0.00  0.00    +0.000 NA
ATOM     19  C   UNL     1      55.194   6.202   1.611  0.00  0.00    +0.000 A 
ATOM     20  N   UNL     1      54.783   6.767   2.788  0.00  0.00    +0.000 N 
ATOM     21  C   UNL     1      54.631   6.049   3.950  0.00  0.00    +0.000 A 
ATOM     22  O   UNL     1      54.222   6.581   4.979  0.00  0.00    +0.000 OA
ATOM     23  C   UNL     1      54.967   4.641   3.838  0.00  0.00    +0.000 A 
ATOM     24  H   UNL     1      54.554   7.749   2.837  0.00  0.00    +0.000 HD
ENDBRANCH  11  14
ENDBRANCH   9  10
ENDBRANCH   6   9
ENDBRANCH   2   3
BRANCH   2  25
ATOM     25  N   UNL     1      51.494   9.711  10.352  0.00  0.00    +0.000 N 
ATOM     26  C   UNL     1      51.572   9.927  11.711  0.00  0.00    +0.000 C 
ATOM     27  O   UNL     1      52.642  10.112  12.284  0.00  0.00    +0.000 OA
ATOM     28  H   UNL     1      50.614   9.459   9.923  0.00  0.00    +0.000 HD
BRANCH  26  29
ATOM     29  C   UNL     1      50.220  10.003  12.421  0.00  0.00    +0.000 C 
ATOM     30  C   UNL     1      49.101   9.364  11.590  0.00  0.00    +0.000 C 
ATOM     31  C   UNL     1      49.147   7.837  11.575  0.00  0.00    +0.000 C 
ATOM     32  C   UNL     1      49.159   7.232  12.985  0.00  0.00    +0.000 C 
ATOM     33  C   UNL     1      50.296   7.850  13.819  0.00  0.00    +0.000 C 
ATOM     34  C   UNL     1      50.323   9.382  13.821  0.00  0.00    +0.000 C 
BRANCH  32  35
ATOM     35  C   UNL     1      47.788   7.343  13.682  0.00  0.00    +0.000 C 
BRANCH  35  36
ATOM     36  N   UNL     1      46.740   6.715  12.890  0.00  0.00    +0.000 N 
ATOM     37  C   UNL     1      45.565   7.347  12.523  0.00  0.00    +0.000 C 
ATOM     38  O   UNL     1      45.266   8.479  12.894  0.00  0.00    +0.000 OA
ATOM     39  H   UNL     1      46.892   5.761  12.590  0.00  0.00    +0.000 HD
BRANCH  37  40
ATOM     40  C   UNL     1      44.687   6.499  11.600  0.00  0.00    +0.000 C 
ATOM     41  C   UNL     1      43.845   5.517  12.426  0.00  0.00    +0.000 C 
ATOM     42  C   UNL     1      43.033   4.604  11.516  0.00  0.00    +0.000 C 
ATOM     43  C   UNL     1      43.930   3.895  10.507  0.00  0.00    +0.000 C 
ATOM     44  N   UNL     1      44.684   4.867   9.705  0.00  0.00    +0.000 NA
ATOM     45  C   UNL     1      45.504   4.166   8.715  0.00  0.00    +0.000 C 
ATOM     46  C   UNL     1      45.527   5.732  10.561  0.00  0.00    +0.000 C 
ENDBRANCH  37  40
ENDBRANCH  35  36
ENDBRANCH  32  35
ENDBRANCH  26  29
ENDBRANCH   2  25
TORSDOF 9
ENDMDL
MODEL 4
REMARK VINA RESULT:    -6.606      4.410      6.705
REMARK INTER + INTRA:         -11.022
REMARK INTER:                  -9.310
REMARK INTRA:                  -1.712
REMARK UNBOUND:                -0.940
REMARK  Name = 
REMARK  11 active torsions:
REMARK  status: ('A' for Active; 'I' for Inactive)
REMARK    1  A    between atoms: C_1  and  C_2
REMARK    2  A    between atoms: C_2  and  N_3
REMARK    3  A    between atoms: C_2  and  C_23
REMARK    4  A    between atoms: C_4  and  C_6
REMARK    5  A    between atoms: C_9  and  C_10
REMARK    6  A    between atoms: C_10  and  N_11
REMARK    7  A    between atoms: C_12  and  C_14
REMARK    8  A    between atoms: N_18  and  C_19
REMARK    9  A    between atoms: C_26  and  C_27
REMARK   10  A    between atoms: C_27  and  N_28
REMARK   11  A    between atoms: C_29  and  C_31
REMARK                            x       y       z     vdW  Elec       q    Type
REMARK                         _______ _______ _______ _____ _____    ______ ____
ROOT
ATOM      1  C   UNL     1      51.458   5.782  19.844  0.00  0.00    +0.000 C 
ATOM      2  C   UNL     1      51.297   5.161  18.452  0.00  0.00    +0.000 C 
ENDROOT
BRANCH   2   3
ATOM      3  C   UNL     1      52.444   5.526  17.529  0.00  0.00    +0.000 A 
ATOM      4  C   UNL     1      52.280   6.591  16.629  0.00  0.00    +0.000 A 
ATOM      5  C   UNL     1      53.265   6.891  15.686  0.00  0.00    +0.000 A 
ATOM      6  C   UNL     1      54.437   6.129  15.617  0.00  0.00    +0.000 A 
ATOM      7  C   UNL     1      54.640   5.120  16.566  0.00  0.00    +0.000 A 
ATOM      8  C   UNL     1      53.651   4.814  17.509  0.00  0.00    +0.000 A 
BRANCH   6   9
ATOM      9  C   UNL     1      55.460   6.398  14.546  0.00  0.00    +0.000 C 
BRANCH   9  10
ATOM     10  N   UNL     1      54.853   6.505  13.247  0.00  0.00    +0.000 N 
ATOM     11  C   UNL     1      54.885   7.681  12.550  0.00  0.00    +0.000 C 
ATOM     12  O   UNL     1      55.468   8.677  12.964  0.00  0.00    +0.000 OA
ATOM     13  H   UNL     1      54.187   5.780  12.991  0.00  0.00    +0.000 HD
BRANCH  11  14
ATOM     14  C   UNL     1      54.230   7.672  11.231  0.00  0.00    +0.000 A 
ATOM     15  C   UNL     1      53.506   8.783  10.815  0.00  0.00    +0.000 A 
ATOM     16  S   UNL     1      52.862   8.628   9.244  0.00  0.00    +0.000 S 
ATOM     17  C   UNL     1      53.481   7.054   9.084  0.00  0.00    +0.000 A 
ATOM     18  N   UNL     1      53.264   6.330   7.954  0.00  0.00    +0.000 NA
ATOM     19  C   UNL     1      53.769   5.137   7.979  0.00  0.00    +0.000 A 
ATOM     20  N   UNL     1      54.476   4.611   9.026  0.00  0.00    +0.000 N 
ATOM     21  C   UNL     1      54.742   5.314  10.178  0.00  0.00    +0.000 A 
ATOM     22  O   UNL     1      55.413   4.824  11.082  0.00  0.00    +0.000 OA
ATOM     23  C   UNL     1      54.189   6.657  10.207  0.00  0.00    +0.000 A 
ATOM     24  H   UNL     1      54.850   3.675   8.979  0.00  0.00    +0.000 HD
ENDBRANCH  11  14
ENDBRANCH   9  10
ENDBRANCH   6   9
ENDBRANCH   2   3
BRANCH   2  25
ATOM     25  N   UNL     1      50.010   5.509  17.876  0.00  0.00    +0.000 N 
ATOM     26  C   UNL     1      49.254   4.558  17.227  0.00  0.00    +0.000 C 
ATOM     27  O   UNL     1      49.650   3.408  17.063  0.00  0.00    +0.000 OA
ATOM     28  H   UNL     1      49.705   6.473  17.906  0.00  0.00    +0.000 HD
BRANCH  26  29
ATOM     29  C   UNL     1      47.860   5.029  16.811  0.00  0.00    +0.000 C 
ATOM     30  C   UNL     1      47.902   6.398  16.123  0.00  0.00    +0.000 C 
ATOM     31  C   UNL     1      48.446   6.350  14.696  0.00  0.00    +0.000 C 
ATOM     32  C   UNL     1      47.697   5.345  13.811  0.00  0.00    +0.000 C 
ATOM     33  C   UNL     1      47.672   3.959  14.483  0.00  0.00    +0.000 C 
ATOM     34  C   UNL     1      47.183   3.966  15.935  0.00  0.00    +0.000 C 
BRANCH  32  35
ATOM     35  C   UNL     1      46.287   5.839  13.426  0.00  0.00    +0.000 C 
BRANCH  35  36
ATOM     36  N   UNL     1      45.750   5.082  12.305  0.00  0.00    +0.000 N 
ATOM     37  C   UNL     1      45.033   5.646  11.264  0.00  0.00    +0.000 C 
ATOM     38  O   UNL     1      44.723   6.833  11.227  0.00  0.00    +0.000 OA
ATOM     39  H   UNL     1      45.921   4.085  12.291  0.00  0.00    +0.000 HD
BRANCH  37  40
ATOM     40  C   UNL     1      44.682   4.644  10.161  0.00  0.00    +0.000 C 
ATOM     41  C   UNL     1      44.554   3.233  10.750  0.00  0.00    +0.000 C 
ATOM     42  C   UNL     1      44.294   2.211   9.651  0.00  0.00    +0.000 C 
ATOM     43  C   UNL     1      45.358   2.292   8.562  0.00  0.00    +0.000 C 
ATOM     44  N   UNL     1      45.419   3.644   7.991  0.00  0.00    +0.000 NA
ATOM     45  C   UNL     1      46.416   3.687   6.919  0.00  0.00    +0.000 C 
ATOM     46  C   UNL     1      45.726   4.653   9.029  0.00  0.00    +0.000 C 
ENDBRANCH  37  40
ENDBRANCH  35  36
ENDBRANCH  32  35
ENDBRANCH  26  29
ENDBRANCH   2  25
TORSDOF 9
ENDMDL
MODEL 5
REMARK VINA RESULT:    -6.072      3.392      5.819
REMARK INTER + INTRA:         -10.207
REMARK INTER:                  -9.181
REMARK INTRA:                  -1.026
REMARK UNBOUND:                -0.940
REMARK  Name = 
REMARK  11 active torsions:
REMARK  status: ('A' for Active; 'I' for Inactive)
REMARK    1  A    between atoms: C_1  and  C_2
REMARK    2  A    between atoms: C_2  and  N_3
REMARK    3  A    between atoms: C_2  and  C_23
REMARK    4  A    between atoms: C_4  and  C_6
REMARK    5  A    between atoms: C_9  and  C_10
REMARK    6  A    between atoms: C_10  and  N_11
REMARK    7  A    between atoms: C_12  and  C_14
REMARK    8  A    between atoms: N_18  and  C_19
REMARK    9  A    between atoms: C_26  and  C_27
REMARK   10  A    between atoms: C_27  and  N_28
REMARK   11  A    between atoms: C_29  and  C_31
REMARK                            x       y       z     vdW  Elec       q    Type
REMARK                         _______ _______ _______ _____ _____    ______ ____
ROOT
ATOM      1  C   UNL     1      45.178   5.512  13.269  0.00  0.00    +0.000 C 
ATOM      2  C   UNL     1      46.684   5.245  13.182  0.00  0.00    +0.000 C 
ENDROOT
BRANCH   2   3
ATOM      3  C   UNL     1      47.319   5.109  14.552  0.00  0.00    +0.000 A 
ATOM      4  C   UNL     1      46.985   4.003  15.350  0.00  0.00    +0.000 A 
ATOM      5  C   UNL     1      47.457   3.894  16.661  0.00  0.00    +0.000 A 
ATOM      6  C   UNL     1      48.272   4.892  17.205  0.00  0.00    +0.000 A 
ATOM      7  C   UNL     1      48.675   5.955  16.386  0.00  0.00    +0.000 A 
ATOM      8  C   UNL     1      48.198   6.068  15.075  0.00  0.00    +0.000 A 
BRANCH   6   9
ATOM      9  C   UNL     1      48.712   4.819  18.643  0.00  0.00    +0.000 C 
BRANCH   9  10
ATOM     10  N   UNL     1      49.921   4.054  18.789  0.00  0.00    +0.000 N 
ATOM     11  C   UNL     1      51.147   4.661  18.755  0.00  0.00    +0.000 C 
ATOM     12  O   UNL     1      51.278   5.875  18.651  0.00  0.00    +0.000 OA
ATOM     13  H   UNL     1      49.847   3.048  18.652  0.00  0.00    +0.000 HD
BRANCH  11  14
ATOM     14  C   UNL     1      52.314   3.776  18.915  0.00  0.00    +0.000 A 
ATOM     15  C   UNL     1      53.363   4.164  19.738  0.00  0.00    +0.000 A 
ATOM     16  S   UNL     1      54.604   3.003  19.855  0.00  0.00    +0.000 S 
ATOM     17  C   UNL     1      53.811   1.963  18.769  0.00  0.00    +0.000 A 
ATOM     18  N   UNL     1      54.363   0.773  18.414  0.00  0.00    +0.000 NA
ATOM     19  C   UNL     1      53.663   0.095  17.559  0.00  0.00    +0.000 A 
ATOM     20  N   UNL     1      52.463   0.498  17.039  0.00  0.00    +0.000 N 
ATOM     21  C   UNL     1      51.856   1.680  17.388  0.00  0.00    +0.000 A 
ATOM     22  O   UNL     1      50.759   1.992  16.931  0.00  0.00    +0.000 OA
ATOM     23  C   UNL     1      52.603   2.485  18.338  0.00  0.00    +0.000 A 
ATOM     24  H   UNL     1      51.964  -0.083  16.381  0.00  0.00    +0.000 HD
ENDBRANCH  11  14
ENDBRANCH   9  10
ENDBRANCH   6   9
ENDBRANCH   2   3
BRANCH   2  25
ATOM     25  N   UNL     1      47.345   6.262  12.382  0.00  0.00    +0.000 N 
ATOM     26  C   UNL     1      46.976   7.585  12.489  0.00  0.00    +0.000 C 
ATOM     27  O   UNL     1      46.054   7.950  13.212  0.00  0.00    +0.000 OA
ATOM     28  H   UNL     1      48.037   5.977  11.703  0.00  0.00    +0.000 HD
BRANCH  26  29
ATOM     29  C   UNL     1      47.860   8.556  11.707  0.00  0.00    +0.000 C 
ATOM     30  C   UNL     1      48.116   9.851  12.487  0.00  0.00    +0.000 C 
ATOM     31  C   UNL     1      49.105   9.685  13.639  0.00  0.00    +0.000 C 
ATOM     32  C   UNL     1      50.439   9.075  13.190  0.00  0.00    +0.000 C 
ATOM     33  C   UNL     1      50.193   7.760  12.426  0.00  0.00    +0.000 C 
ATOM     34  C   UNL     1      49.167   7.866  11.294  0.00  0.00    +0.000 C 
BRANCH  32  35
ATOM     35  C   UNL     1      51.299  10.072  12.386  0.00  0.00    +0.000 C 
BRANCH  35  36
ATOM     36  N   UNL     1      52.041   9.398  11.330  0.00  0.00    +0.000 N 
ATOM     37  C   UNL     1      53.318   8.890  11.487  0.00  0.00    +0.000 C 
ATOM     38  O   UNL     1      53.974   9.024  12.517  0.00  0.00    +0.000 OA
ATOM     39  H   UNL     1      51.585   9.295  10.433  0.00  0.00    +0.000 HD
BRANCH  37  40
ATOM     40  C   UNL     1      53.823   8.134  10.255  0.00  0.00    +0.000 C 
ATOM     41  C   UNL     1      52.681   7.948   9.246  0.00  0.00    +0.000 C 
ATOM     42  C   UNL     1      53.144   7.118   8.055  0.00  0.00    +0.000 C 
ATOM     43  C   UNL     1      53.741   5.791   8.509  0.00  0.00    +0.000 C 
ATOM     44  N   UNL     1      54.858   6.011   9.437  0.00  0.00    +0.000 NA
ATOM     45  C   UNL     1      55.443   4.726   9.824  0.00  0.00    +0.000 C 
ATOM     46  C   UNL     1      54.424   6.767  10.632  0.00  0.00    +0.000 C 
ENDBRANCH  37  40
ENDBRANCH  35  36
ENDBRANCH  32  35
ENDBRANCH  26  29
ENDBRANCH   2  25
TORSDOF 9
ENDMDL
MODEL 6
REMARK VINA RESULT:    -5.993      3.936      6.380
REMARK INTER + INTRA:         -10.087
REMARK INTER:                  -8.805
REMARK INTRA:                  -1.282
REMARK UNBOUND:                -0.940
REMARK  Name = 
REMARK  11 active torsions:
REMARK  status: ('A' for Active; 'I' for Inactive)
REMARK    1  A    between atoms: C_1  and  C_2
REMARK    2  A    between atoms: C_2  and  N_3
REMARK    3  A    between atoms: C_2  and  C_23
REMARK    4  A    between atoms: C_4  and  C_6
REMARK    5  A    between atoms: C_9  and  C_10
REMARK    6  A    between atoms: C_10  and  N_11
REMARK    7  A    between atoms: C_12  and  C_14
REMARK    8  A    between atoms: N_18  and  C_19
REMARK    9  A    between atoms: C_26  and  C_27
REMARK   10  A    between atoms: C_27  and  N_28
REMARK   11  A    between atoms: C_29  and  C_31
REMARK                            x       y       z     vdW  Elec       q    Type
REMARK                         _______ _______ _______ _____ _____    ______ ____
ROOT
ATOM      1  C   UNL     1      44.918   9.658  12.363  0.00  0.00    +0.000 C 
ATOM      2  C   UNL     1      45.959   8.825  11.607  0.00  0.00    +0.000 C 
ENDROOT
BRANCH   2   3
ATOM      3  C   UNL     1      46.184   7.472  12.252  0.00  0.00    +0.000 A 
ATOM      4  C   UNL     1      45.074   6.740  12.702  0.00  0.00    +0.000 A 
ATOM      5  C   UNL     1      45.240   5.542  13.402  0.00  0.00    +0.000 A 
ATOM      6  C   UNL     1      46.521   5.050  13.672  0.00  0.00    +0.000 A 
ATOM      7  C   UNL     1      47.628   5.735  13.153  0.00  0.00    +0.000 A 
ATOM      8  C   UNL     1      47.464   6.938  12.457  0.00  0.00    +0.000 A 
BRANCH   6   9
ATOM      9  C   UNL     1      46.703   3.805  14.498  0.00  0.00    +0.000 C 
BRANCH   9  10
ATOM     10  N   UNL     1      47.870   3.890  15.335  0.00  0.00    +0.000 N 
ATOM     11  C   UNL     1      47.755   4.036  16.690  0.00  0.00    +0.000 C 
ATOM     12  O   UNL     1      46.670   4.051  17.262  0.00  0.00    +0.000 OA
ATOM     13  H   UNL     1      48.751   4.102  14.873  0.00  0.00    +0.000 HD
BRANCH  11  14
ATOM     14  C   UNL     1      49.018   4.112  17.444  0.00  0.00    +0.000 A 
ATOM     15  C   UNL     1      49.266   5.207  18.263  0.00  0.00    +0.000 A 
ATOM     16  S   UNL     1      50.744   5.109  19.104  0.00  0.00    +0.000 S 
ATOM     17  C   UNL     1      51.132   3.629  18.366  0.00  0.00    +0.000 A 
ATOM     18  N   UNL     1      52.303   2.997  18.641  0.00  0.00    +0.000 NA
ATOM     19  C   UNL     1      52.480   1.892  17.987  0.00  0.00    +0.000 A 
ATOM     20  N   UNL     1      51.589   1.363  17.094  0.00  0.00    +0.000 N 
ATOM     21  C   UNL     1      50.382   1.953  16.803  0.00  0.00    +0.000 A 
ATOM     22  O   UNL     1      49.588   1.429  16.025  0.00  0.00    +0.000 OA
ATOM     23  C   UNL     1      50.136   3.201  17.503  0.00  0.00    +0.000 A 
ATOM     24  H   UNL     1      51.785   0.492  16.623  0.00  0.00    +0.000 HD
ENDBRANCH  11  14
ENDBRANCH   9  10
ENDBRANCH   6   9
ENDBRANCH   2   3
BRANCH   2  25
ATOM     25  N   UNL     1      47.202   9.563  11.457  0.00  0.00    +0.000 N 
ATOM     26  C   UNL     1      47.873  10.034  12.563  0.00  0.00    +0.000 C 
ATOM     27  O   UNL     1      47.434   9.900  13.702  0.00  0.00    +0.000 OA
ATOM     28  H   UNL     1      47.534   9.777  10.526  0.00  0.00    +0.000 HD
BRANCH  26  29
ATOM     29  C   UNL     1      49.239  10.651  12.262  0.00  0.00    +0.000 C 
ATOM     30  C   UNL     1      50.151  10.651  13.495  0.00  0.00    +0.000 C 
ATOM     31  C   UNL     1      50.712   9.273  13.840  0.00  0.00    +0.000 C 
ATOM     32  C   UNL     1      51.435   8.616  12.658  0.00  0.00    +0.000 C 
ATOM     33  C   UNL     1      50.518   8.589  11.421  0.00  0.00    +0.000 C 
ATOM     34  C   UNL     1      49.889   9.940  11.067  0.00  0.00    +0.000 C 
BRANCH  32  35
ATOM     35  C   UNL     1      52.800   9.274  12.366  0.00  0.00    +0.000 C 
BRANCH  35  36
ATOM     36  N   UNL     1      53.299   8.893  11.052  0.00  0.00    +0.000 N 
ATOM     37  C   UNL     1      54.094   7.784  10.820  0.00  0.00    +0.000 C 
ATOM     38  O   UNL     1      54.510   7.054  11.715  0.00  0.00    +0.000 OA
ATOM     39  H   UNL     1      53.041   9.477  10.269  0.00  0.00    +0.000 HD
BRANCH  37  40
ATOM     40  C   UNL     1      54.386   7.553   9.335  0.00  0.00    +0.000 C 
ATOM     41  C   UNL     1      53.798   8.696   8.496  0.00  0.00    +0.000 C 
ATOM     42  C   UNL     1      54.002   8.434   7.009  0.00  0.00    +0.000 C 
ATOM     43  C   UNL     1      53.445   7.072   6.609  0.00  0.00    +0.000 C 
ATOM     44  N   UNL     1      54.064   6.001   7.401  0.00  0.00    +0.000 NA
ATOM     45  C   UNL     1      53.546   4.701   6.970  0.00  0.00    +0.000 C 
ATOM     46  C   UNL     1      53.833   6.200   8.849  0.00  0.00    +0.000 C 
ENDBRANCH  37  40
ENDBRANCH  35  36
ENDBRANCH  32  35
ENDBRANCH  26  29
ENDBRANCH   2  25
TORSDOF 9
ENDMDL
MODEL 7
REMARK VINA RESULT:    -5.989      3.897      7.732
REMARK INTER + INTRA:         -10.080
REMARK INTER:                  -8.249
REMARK INTRA:                  -1.832
REMARK UNBOUND:                -0.940
REMARK  Name = 
REMARK  11 active torsions:
REMARK  status: ('A' for Active; 'I' for Inactive)
REMARK    1  A    between atoms: C_1  and  C_2
REMARK    2  A    between atoms: C_2  and  N_3
REMARK    3  A    between atoms: C_2  and  C_23
REMARK    4  A    between atoms: C_4  and  C_6
REMARK    5  A    between atoms: C_9  and  C_10
REMARK    6  A    between atoms: C_10  and  N_11
REMARK    7  A    between atoms: C_12  and  C_14
REMARK    8  A    between atoms: N_18  and  C_19
REMARK    9  A    between atoms: C_26  and  C_27
REMARK   10  A    between atoms: C_27  and  N_28
REMARK   11  A    between atoms: C_29  and  C_31
REMARK                            x       y       z     vdW  Elec       q    Type
REMARK                         _______ _______ _______ _____ _____    ______ ____
ROOT
ATOM      1  C   UNL     1      49.264   9.097  21.130  0.00  0.00    +0.000 C 
ATOM      2  C   UNL     1      50.417   8.339  20.464  0.00  0.00    +0.000 C 
ENDROOT
BRANCH   2   3
ATOM      3  C   UNL     1      51.162   9.200  19.463  0.00  0.00    +0.000 A 
ATOM      4  C   UNL     1      50.533  10.344  18.948  0.00  0.00    +0.000 A 
ATOM      5  C   UNL     1      51.135  11.104  17.942  0.00  0.00    +0.000 A 
ATOM      6  C   UNL     1      52.381  10.734  17.424  0.00  0.00    +0.000 A 
ATOM      7  C   UNL     1      53.049   9.641  17.993  0.00  0.00    +0.000 A 
ATOM      8  C   UNL     1      52.444   8.876  18.996  0.00  0.00    +0.000 A 
BRANCH   6   9
ATOM      9  C   UNL     1      52.992  11.502  16.283  0.00  0.00    +0.000 C 
BRANCH   9  10
ATOM     10  N   UNL     1      52.130  11.516  15.132  0.00  0.00    +0.000 N 
ATOM     11  C   UNL     1      52.308  10.627  14.108  0.00  0.00    +0.000 C 
ATOM     12  O   UNL     1      53.165   9.751  14.137  0.00  0.00    +0.000 OA
ATOM     13  H   UNL     1      51.573  12.355  14.987  0.00  0.00    +0.000 HD
BRANCH  11  14
ATOM     14  C   UNL     1      51.364  10.737  12.982  0.00  0.00    +0.000 A 
ATOM     15  C   UNL     1      51.833  11.097  11.725  0.00  0.00    +0.000 A 
ATOM     16  S   UNL     1      50.621  11.122  10.526  0.00  0.00    +0.000 S 
ATOM     17  C   UNL     1      49.419  10.705  11.653  0.00  0.00    +0.000 A 
ATOM     18  N   UNL     1      48.121  10.579  11.272  0.00  0.00    +0.000 NA
ATOM     19  C   UNL     1      47.308  10.284  12.238  0.00  0.00    +0.000 A 
ATOM     20  N   UNL     1      47.681  10.096  13.541  0.00  0.00    +0.000 N 
ATOM     21  C   UNL     1      48.984  10.189  13.967  0.00  0.00    +0.000 A 
ATOM     22  O   UNL     1      49.289   9.975  15.138  0.00  0.00    +0.000 OA
ATOM     23  C   UNL     1      49.938  10.527  12.925  0.00  0.00    +0.000 A 
ATOM     24  H   UNL     1      46.998   9.860  14.245  0.00  0.00    +0.000 HD
ENDBRANCH  11  14
ENDBRANCH   9  10
ENDBRANCH   6   9
ENDBRANCH   2   3
BRANCH   2  25
ATOM     25  N   UNL     1      49.945   7.103  19.864  0.00  0.00    +0.000 N 
ATOM     26  C   UNL     1      50.581   5.909  20.130  0.00  0.00    +0.000 C 
ATOM     27  O   UNL     1      51.587   5.846  20.830  0.00  0.00    +0.000 OA
ATOM     28  H   UNL     1      49.181   7.140  19.203  0.00  0.00    +0.000 HD
BRANCH  26  29
ATOM     29  C   UNL     1      49.882   4.676  19.557  0.00  0.00    +0.000 C 
ATOM     30  C   UNL     1      48.359   4.847  19.523  0.00  0.00    +0.000 C 
ATOM     31  C   UNL     1      47.874   5.786  18.420  0.00  0.00    +0.000 C 
ATOM     32  C   UNL     1      48.384   5.381  17.031  0.00  0.00    +0.000 C 
ATOM     33  C   UNL     1      49.916   5.232  17.050  0.00  0.00    +0.000 C 
ATOM     34  C   UNL     1      50.454   4.339  18.173  0.00  0.00    +0.000 C 
BRANCH  32  35
ATOM     35  C   UNL     1      47.675   4.123  16.490  0.00  0.00    +0.000 C 
BRANCH  35  36
ATOM     36  N   UNL     1      46.687   4.468  15.478  0.00  0.00    +0.000 N 
ATOM     37  C   UNL     1      46.750   4.047  14.161  0.00  0.00    +0.000 C 
ATOM     38  O   UNL     1      47.688   3.398  13.706  0.00  0.00    +0.000 OA
ATOM     39  H   UNL     1      45.908   5.046  15.765  0.00  0.00    +0.000 HD
BRANCH  37  40
ATOM     40  C   UNL     1      45.528   4.459  13.337  0.00  0.00    +0.000 C 
ATOM     41  C   UNL     1      45.319   3.478  12.174  0.00  0.00    +0.000 C 
ATOM     42  C   UNL     1      44.161   3.926  11.292  0.00  0.00    +0.000 C 
ATOM     43  C   UNL     1      44.356   5.361  10.814  0.00  0.00    +0.000 C 
ATOM     44  N   UNL     1      44.507   6.275  11.954  0.00  0.00    +0.000 NA
ATOM     45  C   UNL     1      44.649   7.651  11.473  0.00  0.00    +0.000 C 
ATOM     46  C   UNL     1      45.661   5.897  12.799  0.00  0.00    +0.000 C 
ENDBRANCH  37  40
ENDBRANCH  35  36
ENDBRANCH  32  35
ENDBRANCH  26  29
ENDBRANCH   2  25
TORSDOF 9
ENDMDL
MODEL 8
REMARK VINA RESULT:    -5.977      3.535      6.551
REMARK INTER + INTRA:         -10.062
REMARK INTER:                  -9.060
REMARK INTRA:                  -1.001
REMARK UNBOUND:                -0.940
REMARK  Name = 
REMARK  11 active torsions:
REMARK  status: ('A' for Active; 'I' for Inactive)
REMARK    1  A    between atoms: C_1  and  C_2
REMARK    2  A    between atoms: C_2  and  N_3
REMARK    3  A    between atoms: C_2  and  C_23
REMARK    4  A    between atoms: C_4  and  C_6
REMARK    5  A    between atoms: C_9  and  C_10
REMARK    6  A    between atoms: C_10  and  N_11
REMARK    7  A    between atoms: C_12  and  C_14
REMARK    8  A    between atoms: N_18  and  C_19
REMARK    9  A    between atoms: C_26  and  C_27
REMARK   10  A    between atoms: C_27  and  N_28
REMARK   11  A    between atoms: C_29  and  C_31
REMARK                            x       y       z     vdW  Elec       q    Type
REMARK                         _______ _______ _______ _____ _____    ______ ____
ROOT
ATOM      1  C   UNL     1      45.221   6.900  12.127  0.00  0.00    +0.000 C 
ATOM      2  C   UNL     1      46.663   6.380  12.112  0.00  0.00    +0.000 C 
ENDROOT
BRANCH   2   3
ATOM      3  C   UNL     1      47.013   5.635  13.385  0.00  0.00    +0.000 A 
ATOM      4  C   UNL     1      46.504   4.341  13.578  0.00  0.00    +0.000 A 
ATOM      5  C   UNL     1      46.708   3.661  14.781  0.00  0.00    +0.000 A 
ATOM      6  C   UNL     1      47.422   4.263  15.823  0.00  0.00    +0.000 A 
ATOM      7  C   UNL     1      48.002   5.519  15.605  0.00  0.00    +0.000 A 
ATOM      8  C   UNL     1      47.794   6.204  14.402  0.00  0.00    +0.000 A 
BRANCH   6   9
ATOM      9  C   UNL     1      47.570   3.567  17.150  0.00  0.00    +0.000 C 
BRANCH   9  10
ATOM     10  N   UNL     1      48.952   3.382  17.501  0.00  0.00    +0.000 N 
ATOM     11  C   UNL     1      49.708   2.413  16.901  0.00  0.00    +0.000 C 
ATOM     12  O   UNL     1      49.270   1.694  16.010  0.00  0.00    +0.000 OA
ATOM     13  H   UNL     1      49.263   3.804  18.373  0.00  0.00    +0.000 HD
BRANCH  11  14
ATOM     14  C   UNL     1      51.110   2.318  17.342  0.00  0.00    +0.000 A 
ATOM     15  C   UNL     1      51.671   1.070  17.586  0.00  0.00    +0.000 A 
ATOM     16  S   UNL     1      53.314   1.137  18.032  0.00  0.00    +0.000 S 
ATOM     17  C   UNL     1      53.322   2.835  17.966  0.00  0.00    +0.000 A 
ATOM     18  N   UNL     1      54.445   3.540  18.265  0.00  0.00    +0.000 NA
ATOM     19  C   UNL     1      54.301   4.826  18.200  0.00  0.00    +0.000 A 
ATOM     20  N   UNL     1      53.141   5.464  17.856  0.00  0.00    +0.000 N 
ATOM     21  C   UNL     1      51.988   4.794  17.523  0.00  0.00    +0.000 A 
ATOM     22  O   UNL     1      50.975   5.398  17.181  0.00  0.00    +0.000 OA
ATOM     23  C   UNL     1      52.091   3.346  17.588  0.00  0.00    +0.000 A 
ATOM     24  H   UNL     1      53.097   6.472  17.817  0.00  0.00    +0.000 HD
ENDBRANCH  11  14
ENDBRANCH   9  10
ENDBRANCH   6   9
ENDBRANCH   2   3
BRANCH   2  25
ATOM     25  N   UNL     1      47.599   7.459  11.846  0.00  0.00    +0.000 N 
ATOM     26  C   UNL     1      47.393   8.712  12.382  0.00  0.00    +0.000 C 
ATOM     27  O   UNL     1      46.401   8.981  13.052  0.00  0.00    +0.000 OA
ATOM     28  H   UNL     1      48.370   7.293  11.213  0.00  0.00    +0.000 HD
BRANCH  26  29
ATOM     29  C   UNL     1      48.537   9.699  12.146  0.00  0.00    +0.000 C 
ATOM     30  C   UNL     1      48.926  10.439  13.431  0.00  0.00    +0.000 C 
ATOM     31  C   UNL     1      49.710   9.577  14.419  0.00  0.00    +0.000 C 
ATOM     32  C   UNL     1      50.954   8.937  13.789  0.00  0.00    +0.000 C 
ATOM     33  C   UNL     1      50.568   8.170  12.511  0.00  0.00    +0.000 C 
ATOM     34  C   UNL     1      49.735   8.978  11.512  0.00  0.00    +0.000 C 
BRANCH  32  35
ATOM     35  C   UNL     1      52.080   9.961  13.545  0.00  0.00    +0.000 C 
BRANCH  35  36
ATOM     36  N   UNL     1      52.849   9.627  12.354  0.00  0.00    +0.000 N 
ATOM     37  C   UNL     1      53.971   8.818  12.361  0.00  0.00    +0.000 C 
ATOM     38  O   UNL     1      54.465   8.361  13.388  0.00  0.00    +0.000 OA
ATOM     39  H   UNL     1      52.533  10.011  11.473  0.00  0.00    +0.000 HD
BRANCH  37  40
ATOM     40  C   UNL     1      54.522   8.539  10.960  0.00  0.00    +0.000 C 
ATOM     41  C   UNL     1      53.758   9.367   9.918  0.00  0.00    +0.000 C 
ATOM     42  C   UNL     1      54.234   9.033   8.509  0.00  0.00    +0.000 C 
ATOM     43  C   UNL     1      54.146   7.535   8.240  0.00  0.00    +0.000 C 
ATOM     44  N   UNL     1      54.925   6.780   9.230  0.00  0.00    +0.000 NA
ATOM     45  C   UNL     1      54.862   5.349   8.926  0.00  0.00    +0.000 C 
ATOM     46  C   UNL     1      54.448   7.042  10.606  0.00  0.00    +0.000 C 
ENDBRANCH  37  40
ENDBRANCH  35  36
ENDBRANCH  32  35
ENDBRANCH  26  29
ENDBRANCH   2  25
TORSDOF 9
ENDMDL
