MODEL 1
REMARK VINA RESULT:    -8.891      0.000      0.000
REMARK INTER + INTRA:         -13.712
REMARK INTER:                 -12.790
REMARK INTRA:                  -0.923
REMARK UNBOUND:                -0.923
REMARK  Name = 
REMARK  8 active torsions:
REMARK  status: ('A' for Active; 'I' for Inactive)
REMARK    1  A    between atoms: N_1  and  C_2
REMARK    2  A    between atoms: C_2  and  C_3
REMARK    3  A    between atoms: C_2  and  C_18
REMARK    4  A    between atoms: C_3  and  C_4
REMARK    5  A    between atoms: C_7  and  C_8
REMARK    6  A    between atoms: C_8  and  N_9
REMARK    7  A    between atoms: N_9  and  C_10
REMARK    8  A    between atoms: C_18  and  C_20
REMARK                            x       y       z     vdW  Elec       q    Type
REMARK                         _______ _______ _______ _____ _____    ______ ____
ROOT
ATOM      1  C   UNL     1      47.064   4.022  15.353  0.00  0.00    +0.000 C 
ENDROOT
BRANCH   1   2
ATOM      2  N   UNL     1      47.836   2.864  14.843  0.00  0.00    +0.000 NA
ATOM      3  H   UNL     1      48.822   3.017  15.076  0.00  0.00    +0.000 HD
ATOM      4  H   UNL     1      47.797   2.886  13.819  0.00  0.00    +0.000 HD
ENDBRANCH   1   2
BRANCH   1   5
ATOM      5  C   UNL     1      47.559   4.353  16.787  0.00  0.00    +0.000 C 
ATOM      6  O   UNL     1      46.783   4.238  17.740  0.00  0.00    +0.000 OA
BRANCH   5   7
ATOM      7  C   UNL     1      48.959   4.746  17.016  0.00  0.00    +0.000 A 
ATOM      8  C   UNL     1      49.336   6.078  16.958  0.00  0.00    +0.000 A 
ATOM      9  S   UNL     1      50.966   6.340  17.389  0.00  0.00    +0.000 S 
ATOM     10  C   UNL     1      51.230   4.673  17.613  0.00  0.00    +0.000 A 
ATOM     11  N   UNL     1      52.432   4.197  18.036  0.00  0.00    +0.000 NA
ATOM     12  C   UNL     1      52.477   2.913  18.168  0.00  0.00    +0.000 A 
ATOM     13  N   UNL     1      51.444   2.059  17.879  0.00  0.00    +0.000 N 
ATOM     14  C   UNL     1      50.273   2.488  17.301  0.00  0.00    +0.000 A 
ATOM     15  O   UNL     1      49.482   1.704  16.788  0.00  0.00    +0.000 OA
ATOM     16  C   UNL     1      50.108   3.930  17.296  0.00  0.00    +0.000 A 
ATOM     17  H   UNL     1      51.580   1.058  17.917  0.00  0.00    +0.000 HD
ENDBRANCH   5   7
ENDBRANCH   1   5
BRANCH   1  18
ATOM     18  C   UNL     1      47.235   5.224  14.408  0.00  0.00    +0.000 C 
BRANCH  18  19
ATOM     19  C   UNL     1      46.374   5.108  13.169  0.00  0.00    +0.000 A 
ATOM     20  C   UNL     1      45.488   4.032  13.031  0.00  0.00    +0.000 A 
ATOM     21  C   UNL     1      44.758   3.862  11.854  0.00  0.00    +0.000 A 
ATOM     22  C   UNL     1      44.899   4.762  10.789  0.00  0.00    +0.000 A 
ATOM     23  C   UNL     1      45.743   5.870  10.950  0.00  0.00    +0.000 A 
ATOM     24  C   UNL     1      46.482   6.037  12.125  0.00  0.00    +0.000 A 
BRANCH  22  25
ATOM     25  C   UNL     1      44.186   4.512   9.481  0.00  0.00    +0.000 C 
BRANCH  25  26
ATOM     26  N   UNL     1      44.281   3.116   9.086  0.00  0.00    +0.000 N 
ATOM     27  H   UNL     1      44.034   2.469   9.832  0.00  0.00    +0.000 HD
BRANCH  26  28
ATOM     28  C   UNL     1      45.409   2.683   8.374  0.00  0.00    +0.000 A 
ATOM     29  C   UNL     1      46.152   3.505   7.515  0.00  0.00    +0.000 A 
ATOM     30  C   UNL     1      47.237   3.007   6.787  0.00  0.00    +0.000 A 
ATOM     31  C   UNL     1      47.578   1.662   6.874  0.00  0.00    +0.000 A 
ATOM     32  C   UNL     1      46.826   0.815   7.682  0.00  0.00    +0.000 A 
ATOM     33  C   UNL     1      45.747   1.322   8.416  0.00  0.00    +0.000 A 
ENDBRANCH  26  28
ENDBRANCH  25  26
ENDBRANCH  22  25
ENDBRANCH  18  19
ENDBRANCH   1  18
TORSDOF 8
ENDMDL
MODEL 2
REMARK VINA RESULT:    -8.464      2.349      3.345
REMARK INTER + INTRA:         -13.098
REMARK INTER:                 -11.652
REMARK INTRA:                  -1.446
REMARK UNBOUND:                -0.923
REMARK  Name = 
REMARK  8 active torsions:
REMARK  status: ('A' for Active; 'I' for Inactive)
REMARK    1  A    between atoms: N_1  and  C_2
REMARK    2  A    between atoms: C_2  and  C_3
REMARK    3  A    between atoms: C_2  and  C_18
REMARK    4  A    between atoms: C_3  and  C_4
REMARK    5  A    between atoms: C_7  and  C_8
REMARK    6  A    between atoms: C_8  and  N_9
REMARK    7  A    between atoms: N_9  and  C_10
REMARK    8  A    between atoms: C_18  and  C_20
REMARK                            x       y       z     vdW  Elec       q    Type
REMARK                         _______ _______ _______ _____ _____    ______ ____
ROOT
ATOM      1  C   UNL     1      47.430   8.047  12.807  0.00  0.00    +0.000 C 
ENDROOT
BRANCH   1   2
ATOM      2  N   UNL     1      47.712   9.416  13.298  0.00  0.00    +0.000 NA
ATOM      3  H   UNL     1      47.920  10.005  12.484  0.00  0.00    +0.000 HD
ATOM      4  H   UNL     1      48.584   9.385  13.834  0.00  0.00    +0.000 HD
ENDBRANCH   1   2
BRANCH   1   5
ATOM      5  C   UNL     1      48.535   7.093  13.336  0.00  0.00    +0.000 C 
ATOM      6  O   UNL     1      49.355   6.616  12.546  0.00  0.00    +0.000 OA
BRANCH   5   7
ATOM      7  C   UNL     1      48.640   6.807  14.776  0.00  0.00    +0.000 A 
ATOM      8  C   UNL     1      49.335   7.662  15.615  0.00  0.00    +0.000 A 
ATOM      9  S   UNL     1      49.222   7.233  17.264  0.00  0.00    +0.000 S 
ATOM     10  C   UNL     1      48.285   5.861  16.896  0.00  0.00    +0.000 A 
ATOM     11  N   UNL     1      47.801   5.051  17.876  0.00  0.00    +0.000 NA
ATOM     12  C   UNL     1      47.100   4.056  17.444  0.00  0.00    +0.000 A 
ATOM     13  N   UNL     1      46.871   3.774  16.122  0.00  0.00    +0.000 N 
ATOM     14  C   UNL     1      47.472   4.476  15.104  0.00  0.00    +0.000 A 
ATOM     15  O   UNL     1      47.495   4.051  13.955  0.00  0.00    +0.000 OA
ATOM     16  C   UNL     1      48.122   5.700  15.533  0.00  0.00    +0.000 A 
ATOM     17  H   UNL     1      46.390   2.926  15.854  0.00  0.00    +0.000 HD
ENDBRANCH   5   7
ENDBRANCH   1   5
BRANCH   1  18
ATOM     18  C   UNL     1      46.033   7.600  13.272  0.00  0.00    +0.000 C 
BRANCH  18  19
ATOM     19  C   UNL     1      45.477   6.477  12.424  0.00  0.00    +0.000 A 
ATOM     20  C   UNL     1      44.589   5.551  12.986  0.00  0.00    +0.000 A 
ATOM     21  C   UNL     1      44.143   4.457  12.243  0.00  0.00    +0.000 A 
ATOM     22  C   UNL     1      44.574   4.265  10.923  0.00  0.00    +0.000 A 
ATOM     23  C   UNL     1      45.418   5.223  10.344  0.00  0.00    +0.000 A 
ATOM     24  C   UNL     1      45.874   6.314  11.089  0.00  0.00    +0.000 A 
BRANCH  22  25
ATOM     25  C   UNL     1      44.171   3.024  10.163  0.00  0.00    +0.000 C 
BRANCH  25  26
ATOM     26  N   UNL     1      44.269   3.229   8.726  0.00  0.00    +0.000 N 
ATOM     27  H   UNL     1      43.386   3.089   8.239  0.00  0.00    +0.000 HD
BRANCH  26  28
ATOM     28  C   UNL     1      45.345   2.666   8.027  0.00  0.00    +0.000 A 
ATOM     29  C   UNL     1      45.906   1.417   8.333  0.00  0.00    +0.000 A 
ATOM     30  C   UNL     1      47.015   0.925   7.638  0.00  0.00    +0.000 A 
ATOM     31  C   UNL     1      47.612   1.693   6.644  0.00  0.00    +0.000 A 
ATOM     32  C   UNL     1      47.105   2.956   6.355  0.00  0.00    +0.000 A 
ATOM     33  C   UNL     1      45.988   3.438   7.049  0.00  0.00    +0.000 A 
ENDBRANCH  26  28
ENDBRANCH  25  26
ENDBRANCH  22  25
ENDBRANCH  18  19
ENDBRANCH   1  18
TORSDOF 8
ENDMDL
MODEL 3
REMARK VINA RESULT:    -7.929      2.261      2.648
REMARK INTER + INTRA:         -12.328
REMARK INTER:                 -11.226
REMARK INTRA:                  -1.102
REMARK UNBOUND:                -0.923
REMARK  Name = 
REMARK  8 active torsions:
REMARK  status: ('A' for Active; 'I' for Inactive)
REMARK    1  A    between atoms: N_1  and  C_2
REMARK    2  A    between atoms: C_2  and  C_3
REMARK    3  A    between atoms: C_2  and  C_18
REMARK    4  A    between atoms: C_3  and  C_4
REMARK    5  A    between atoms: C_7  and  C_8
REMARK    6  A    between atoms: C_8  and  N_9
REMARK    7  A    between atoms: N_9  and  C_10
REMARK    8  A    between atoms: C_18  and  C_20
REMARK                            x       y       z     vdW  Elec       q    Type
REMARK                         _______ _______ _______ _____ _____    ______ ____
ROOT
ATOM      1  C   UNL     1      48.284   6.490  13.853  0.00  0.00    +0.000 C 
ENDROOT
BRANCH   1   2
ATOM      2  N   UNL     1      49.411   6.648  12.903  0.00  0.00    +0.000 NA
ATOM      3  H   UNL     1      49.635   5.722  12.526  0.00  0.00    +0.000 HD
ATOM      4  H   UNL     1      50.238   6.927  13.439  0.00  0.00    +0.000 HD
ENDBRANCH   1   2
BRANCH   1   5
ATOM      5  C   UNL     1      48.656   7.198  15.185  0.00  0.00    +0.000 C 
ATOM      6  O   UNL     1      48.328   8.375  15.360  0.00  0.00    +0.000 OA
BRANCH   5   7
ATOM      7  C   UNL     1      49.343   6.453  16.253  0.00  0.00    +0.000 A 
ATOM      8  C   UNL     1      48.617   5.755  17.204  0.00  0.00    +0.000 A 
ATOM      9  S   UNL     1      49.594   4.846  18.268  0.00  0.00    +0.000 S 
ATOM     10  C   UNL     1      51.018   5.402  17.520  0.00  0.00    +0.000 A 
ATOM     11  N   UNL     1      52.244   4.970  17.921  0.00  0.00    +0.000 NA
ATOM     12  C   UNL     1      53.229   5.473  17.254  0.00  0.00    +0.000 A 
ATOM     13  N   UNL     1      53.103   6.398  16.249  0.00  0.00    +0.000 N 
ATOM     14  C   UNL     1      51.898   6.974  15.925  0.00  0.00    +0.000 A 
ATOM     15  O   UNL     1      51.832   7.988  15.239  0.00  0.00    +0.000 OA
ATOM     16  C   UNL     1      50.748   6.319  16.521  0.00  0.00    +0.000 A 
ATOM     17  H   UNL     1      53.923   6.817  15.832  0.00  0.00    +0.000 HD
ENDBRANCH   5   7
ENDBRANCH   1   5
BRANCH   1  18
ATOM     18  C   UNL     1      46.998   7.076  13.246  0.00  0.00    +0.000 C 
BRANCH  18  19
ATOM     19  C   UNL     1      46.178   6.032  12.519  0.00  0.00    +0.000 A 
ATOM     20  C   UNL     1      46.017   4.758  13.077  0.00  0.00    +0.000 A 
ATOM     21  C   UNL     1      45.342   3.758  12.375  0.00  0.00    +0.000 A 
ATOM     22  C   UNL     1      44.816   4.009  11.100  0.00  0.00    +0.000 A 
ATOM     23  C   UNL     1      44.929   5.301  10.567  0.00  0.00    +0.000 A 
ATOM     24  C   UNL     1      45.612   6.302  11.265  0.00  0.00    +0.000 A 
BRANCH  22  25
ATOM     25  C   UNL     1      44.182   2.894  10.304  0.00  0.00    +0.000 C 
BRANCH  25  26
ATOM     26  N   UNL     1      44.276   3.146   8.875  0.00  0.00    +0.000 N 
ATOM     27  H   UNL     1      43.424   2.915   8.368  0.00  0.00    +0.000 HD
BRANCH  26  28
ATOM     28  C   UNL     1      45.422   2.731   8.182  0.00  0.00    +0.000 A 
ATOM     29  C   UNL     1      46.086   3.518   7.231  0.00  0.00    +0.000 A 
ATOM     30  C   UNL     1      47.195   3.034   6.529  0.00  0.00    +0.000 A 
ATOM     31  C   UNL     1      47.639   1.733   6.738  0.00  0.00    +0.000 A 
ATOM     32  C   UNL     1      46.967   0.915   7.641  0.00  0.00    +0.000 A 
ATOM     33  C   UNL     1      45.864   1.410   8.348  0.00  0.00    +0.000 A 
ENDBRANCH  26  28
ENDBRANCH  25  26
ENDBRANCH  22  25
ENDBRANCH  18  19
ENDBRANCH   1  18
TORSDOF 8
ENDMDL
MODEL 4
REMARK VINA RESULT:    -7.892      2.690      3.464
REMARK INTER + INTRA:         -12.275
REMARK INTER:                 -11.001
REMARK INTRA:                  -1.274
REMARK UNBOUND:                -0.923
REMARK  Name = 
REMARK  8 active torsions:
REMARK  status: ('A' for Active; 'I' for Inactive)
REMARK    1  A    between atoms: N_1  and  C_2
REMARK    2  A    between atoms: C_2  and  C_3
REMARK    3  A    between atoms: C_2  and  C_18
REMARK    4  A    between atoms: C_3  and  C_4
REMARK    5  A    between atoms: C_7  and  C_8
REMARK    6  A    between atoms: C_8  and  N_9
REMARK    7  A    between atoms: N_9  and  C_10
REMARK    8  A    between atoms: C_18  and  C_20
REMARK                            x       y       z     vdW  Elec       q    Type
REMARK                         _______ _______ _______ _____ _____    ______ ____
ROOT
ATOM      1  C   UNL     1      49.105   6.945  13.614  0.00  0.00    +0.000 C 
ENDROOT
BRANCH   1   2
ATOM      2  N   UNL     1      49.823   7.108  12.327  0.00  0.00    +0.000 NA
ATOM      3  H   UNL     1      49.649   8.060  11.990  0.00  0.00    +0.000 HD
ATOM      4  H   UNL     1      49.377   6.495  11.639  0.00  0.00    +0.000 HD
ENDBRANCH   1   2
BRANCH   1   5
ATOM      5  C   UNL     1      49.848   7.768  14.702  0.00  0.00    +0.000 C 
ATOM      6  O   UNL     1      50.961   8.239  14.454  0.00  0.00    +0.000 OA
BRANCH   5   7
ATOM      7  C   UNL     1      49.203   8.033  15.999  0.00  0.00    +0.000 A 
ATOM      8  C   UNL     1      48.836   9.321  16.353  0.00  0.00    +0.000 A 
ATOM      9  S   UNL     1      47.979   9.400  17.827  0.00  0.00    +0.000 S 
ATOM     10  C   UNL     1      48.122   7.720  18.061  0.00  0.00    +0.000 A 
ATOM     11  N   UNL     1      47.559   7.104  19.135  0.00  0.00    +0.000 NA
ATOM     12  C   UNL     1      47.744   5.826  19.171  0.00  0.00    +0.000 A 
ATOM     13  N   UNL     1      48.474   5.114  18.254  0.00  0.00    +0.000 N 
ATOM     14  C   UNL     1      49.186   5.721  17.248  0.00  0.00    +0.000 A 
ATOM     15  O   UNL     1      50.051   5.121  16.619  0.00  0.00    +0.000 OA
ATOM     16  C   UNL     1      48.871   7.125  17.062  0.00  0.00    +0.000 A 
ATOM     17  H   UNL     1      48.655   4.129  18.396  0.00  0.00    +0.000 HD
ENDBRANCH   5   7
ENDBRANCH   1   5
BRANCH   1  18
ATOM     18  C   UNL     1      47.645   7.403  13.463  0.00  0.00    +0.000 C 
BRANCH  18  19
ATOM     19  C   UNL     1      46.804   6.401  12.703  0.00  0.00    +0.000 A 
ATOM     20  C   UNL     1      46.278   6.737  11.449  0.00  0.00    +0.000 A 
ATOM     21  C   UNL     1      45.425   5.859  10.780  0.00  0.00    +0.000 A 
ATOM     22  C   UNL     1      45.078   4.626  11.349  0.00  0.00    +0.000 A 
ATOM     23  C   UNL     1      45.650   4.266  12.578  0.00  0.00    +0.000 A 
ATOM     24  C   UNL     1      46.498   5.149  13.254  0.00  0.00    +0.000 A 
BRANCH  22  25
ATOM     25  C   UNL     1      44.072   3.728  10.669  0.00  0.00    +0.000 C 
BRANCH  25  26
ATOM     26  N   UNL     1      44.136   3.865   9.222  0.00  0.00    +0.000 N 
ATOM     27  H   UNL     1      43.223   3.825   8.774  0.00  0.00    +0.000 HD
BRANCH  26  28
ATOM     28  C   UNL     1      45.099   3.137   8.509  0.00  0.00    +0.000 A 
ATOM     29  C   UNL     1      45.375   1.781   8.733  0.00  0.00    +0.000 A 
ATOM     30  C   UNL     1      46.385   1.116   8.030  0.00  0.00    +0.000 A 
ATOM     31  C   UNL     1      47.167   1.808   7.112  0.00  0.00    +0.000 A 
ATOM     32  C   UNL     1      46.945   3.166   6.907  0.00  0.00    +0.000 A 
ATOM     33  C   UNL     1      45.926   3.823   7.607  0.00  0.00    +0.000 A 
ENDBRANCH  26  28
ENDBRANCH  25  26
ENDBRANCH  22  25
ENDBRANCH  18  19
ENDBRANCH   1  18
TORSDOF 8
ENDMDL
MODEL 5
REMARK VINA RESULT:    -7.629      3.421      8.907
REMARK INTER + INTRA:         -11.896
REMARK INTER:                 -10.544
REMARK INTRA:                  -1.352
REMARK UNBOUND:                -0.923
REMARK  Name = 
REMARK  8 active torsions:
REMARK  status: ('A' for Active; 'I' for Inactive)
REMARK    1  A    between atoms: N_1  and  C_2
REMARK    2  A    between atoms: C_2  and  C_3
REMARK    3  A    between atoms: C_2  and  C_18
REMARK    4  A    between atoms: C_3  and  C_4
REMARK    5  A    between atoms: C_7  and  C_8
REMARK    6  A    between atoms: C_8  and  N_9
REMARK    7  A    between atoms: N_9  and  C_10
REMARK    8  A    between atoms: C_18  and  C_20
REMARK                            x       y       z     vdW  Elec       q    Type
REMARK                         _______ _______ _______ _____ _____    ______ ____
ROOT
ATOM      1  C   UNL     1      45.638   7.323  12.561  0.00  0.00    +0.000 C 
ENDROOT
BRANCH   1   2
ATOM      2  N   UNL     1      45.931   8.730  12.200  0.00  0.00    +0.000 NA
ATOM      3  H   UNL     1      45.038   9.197  12.009  0.00  0.00    +0.000 HD
ATOM      4  H   UNL     1      46.429   8.729  11.305  0.00  0.00    +0.000 HD
ENDBRANCH   1   2
BRANCH   1   5
ATOM      5  C   UNL     1      44.499   6.803  11.643  0.00  0.00    +0.000 C 
ATOM      6  O   UNL     1      43.800   7.610  11.024  0.00  0.00    +0.000 OA
BRANCH   5   7
ATOM      7  C   UNL     1      44.291   5.356  11.468  0.00  0.00    +0.000 A 
ATOM      8  C   UNL     1      43.689   4.605  12.465  0.00  0.00    +0.000 A 
ATOM      9  S   UNL     1      43.412   2.982  12.016  0.00  0.00    +0.000 S 
ATOM     10  C   UNL     1      44.136   3.224  10.495  0.00  0.00    +0.000 A 
ATOM     11  N   UNL     1      44.194   2.226   9.572  0.00  0.00    +0.000 NA
ATOM     12  C   UNL     1      44.765   2.563   8.462  0.00  0.00    +0.000 A 
ATOM     13  N   UNL     1      45.316   3.792   8.206  0.00  0.00    +0.000 N 
ATOM     14  C   UNL     1      45.416   4.769   9.167  0.00  0.00    +0.000 A 
ATOM     15  O   UNL     1      46.152   5.739   9.025  0.00  0.00    +0.000 OA
ATOM     16  C   UNL     1      44.641   4.504  10.365  0.00  0.00    +0.000 A 
ATOM     17  H   UNL     1      45.829   3.955   7.350  0.00  0.00    +0.000 HD
ENDBRANCH   5   7
ENDBRANCH   1   5
BRANCH   1  18
ATOM     18  C   UNL     1      46.910   6.469  12.416  0.00  0.00    +0.000 C 
BRANCH  18  19
ATOM     19  C   UNL     1      47.407   5.948  13.747  0.00  0.00    +0.000 A 
ATOM     20  C   UNL     1      46.896   4.752  14.265  0.00  0.00    +0.000 A 
ATOM     21  C   UNL     1      47.275   4.309  15.533  0.00  0.00    +0.000 A 
ATOM     22  C   UNL     1      48.173   5.052  16.311  0.00  0.00    +0.000 A 
ATOM     23  C   UNL     1      48.727   6.221  15.769  0.00  0.00    +0.000 A 
ATOM     24  C   UNL     1      48.341   6.671  14.502  0.00  0.00    +0.000 A 
BRANCH  22  25
ATOM     25  C   UNL     1      48.497   4.622  17.722  0.00  0.00    +0.000 C 
BRANCH  25  26
ATOM     26  N   UNL     1      49.909   4.800  18.018  0.00  0.00    +0.000 N 
ATOM     27  H   UNL     1      50.302   5.647  17.612  0.00  0.00    +0.000 HD
BRANCH  26  28
ATOM     28  C   UNL     1      50.778   3.707  17.884  0.00  0.00    +0.000 A 
ATOM     29  C   UNL     1      50.388   2.459  17.379  0.00  0.00    +0.000 A 
ATOM     30  C   UNL     1      51.282   1.385  17.317  0.00  0.00    +0.000 A 
ATOM     31  C   UNL     1      52.579   1.529  17.799  0.00  0.00    +0.000 A 
ATOM     32  C   UNL     1      52.975   2.743  18.351  0.00  0.00    +0.000 A 
ATOM     33  C   UNL     1      52.078   3.816  18.400  0.00  0.00    +0.000 A 
ENDBRANCH  26  28
ENDBRANCH  25  26
ENDBRANCH  22  25
ENDBRANCH  18  19
ENDBRANCH   1  18
TORSDOF 8
ENDMDL
MODEL 6
REMARK VINA RESULT:    -7.121      3.729      4.387
REMARK INTER + INTRA:         -11.165
REMARK INTER:                  -9.819
REMARK INTRA:                  -1.346
REMARK UNBOUND:                -0.923
REMARK  Name = 
REMARK  8 active torsions:
REMARK  status: ('A' for Active; 'I' for Inactive)
REMARK    1  A    between atoms: N_1  and  C_2
REMARK    2  A    between atoms: C_2  and  C_3
REMARK    3  A    between atoms: C_2  and  C_18
REMARK    4  A    between atoms: C_3  and  C_4
REMARK    5  A    between atoms: C_7  and  C_8
REMARK    6  A    between atoms: C_8  and  N_9
REMARK    7  A    between atoms: N_9  and  C_10
REMARK    8  A    between atoms: C_18  and  C_20
REMARK                            x       y       z     vdW  Elec       q    Type
REMARK                         _______ _______ _______ _____ _____    ______ ____
ROOT
ATOM      1  C   UNL     1      47.973   7.623  14.410  0.00  0.00    +0.000 C 
ENDROOT
BRANCH   1   2
ATOM      2  N   UNL     1      48.248   7.198  15.803  0.00  0.00    +0.000 NA
ATOM      3  H   UNL     1      48.339   6.177  15.807  0.00  0.00    +0.000 HD
ATOM      4  H   UNL     1      47.413   7.395  16.363  0.00  0.00    +0.000 HD
ENDBRANCH   1   2
BRANCH   1   5
ATOM      5  C   UNL     1      48.798   8.904  14.110  0.00  0.00    +0.000 C 
ATOM      6  O   UNL     1      48.497   9.964  14.665  0.00  0.00    +0.000 OA
BRANCH   5   7
ATOM      7  C   UNL     1      49.965   8.840  13.215  0.00  0.00    +0.000 A 
ATOM      8  C   UNL     1      49.861   9.237  11.892  0.00  0.00    +0.000 A 
ATOM      9  S   UNL     1      51.352   9.223  11.061  0.00  0.00    +0.000 S 
ATOM     10  C   UNL     1      52.170   8.634  12.433  0.00  0.00    +0.000 A 
ATOM     11  N   UNL     1      53.515   8.433  12.422  0.00  0.00    +0.000 NA
ATOM     12  C   UNL     1      53.995   7.992  13.538  0.00  0.00    +0.000 A 
ATOM     13  N   UNL     1      53.248   7.698  14.650  0.00  0.00    +0.000 N 
ATOM     14  C   UNL     1      51.874   7.739  14.646  0.00  0.00    +0.000 A 
ATOM     15  O   UNL     1      51.212   7.210  15.532  0.00  0.00    +0.000 OA
ATOM     16  C   UNL     1      51.303   8.390  13.482  0.00  0.00    +0.000 A 
ATOM     17  H   UNL     1      53.678   7.270  15.458  0.00  0.00    +0.000 HD
ENDBRANCH   5   7
ENDBRANCH   1   5
BRANCH   1  18
ATOM     18  C   UNL     1      48.326   6.486  13.435  0.00  0.00    +0.000 C 
BRANCH  18  19
ATOM     19  C   UNL     1      47.128   6.023  12.635  0.00  0.00    +0.000 A 
ATOM     20  C   UNL     1      46.365   4.937  13.082  0.00  0.00    +0.000 A 
ATOM     21  C   UNL     1      45.317   4.441  12.307  0.00  0.00    +0.000 A 
ATOM     22  C   UNL     1      45.008   5.017  11.068  0.00  0.00    +0.000 A 
ATOM     23  C   UNL     1      45.736   6.139  10.646  0.00  0.00    +0.000 A 
ATOM     24  C   UNL     1      46.793   6.633  11.417  0.00  0.00    +0.000 A 
BRANCH  22  25
ATOM     25  C   UNL     1      43.942   4.409  10.188  0.00  0.00    +0.000 C 
BRANCH  25  26
ATOM     26  N   UNL     1      44.258   3.029   9.852  0.00  0.00    +0.000 N 
ATOM     27  H   UNL     1      44.451   2.451  10.667  0.00  0.00    +0.000 HD
BRANCH  26  28
ATOM     28  C   UNL     1      45.155   2.770   8.806  0.00  0.00    +0.000 A 
ATOM     29  C   UNL     1      45.828   1.551   8.640  0.00  0.00    +0.000 A 
ATOM     30  C   UNL     1      46.754   1.363   7.609  0.00  0.00    +0.000 A 
ATOM     31  C   UNL     1      47.055   2.409   6.743  0.00  0.00    +0.000 A 
ATOM     32  C   UNL     1      46.437   3.643   6.917  0.00  0.00    +0.000 A 
ATOM     33  C   UNL     1      45.504   3.821   7.945  0.00  0.00    +0.000 A 
ENDBRANCH  26  28
ENDBRANCH  25  26
ENDBRANCH  22  25
ENDBRANCH  18  19
ENDBRANCH   1  18
TORSDOF 8
ENDMDL
MODEL 7
REMARK VINA RESULT:    -7.109      3.247      4.197
REMARK INTER + INTRA:         -11.148
REMARK INTER:                  -9.720
REMARK INTRA:                  -1.428
REMARK UNBOUND:                -0.923
REMARK  Name = 
REMARK  8 active torsions:
REMARK  status: ('A' for Active; 'I' for Inactive)
REMARK    1  A    between atoms: N_1  and  C_2
REMARK    2  A    between atoms: C_2  and  C_3
REMARK    3  A    between atoms: C_2  and  C_18
REMARK    4  A    between atoms: C_3  and  C_4
REMARK    5  A    between atoms: C_7  and  C_8
REMARK    6  A    between atoms: C_8  and  N_9
REMARK    7  A    between atoms: N_9  and  C_10
REMARK    8  A    between atoms: C_18  and  C_20
REMARK                            x       y       z     vdW  Elec       q    Type
REMARK                         _______ _______ _______ _____ _____    ______ ____
ROOT
ATOM      1  C   UNL     1      48.937   7.717  13.562  0.00  0.00    +0.000 C 
ENDROOT
BRANCH   1   2
ATOM      2  N   UNL     1      49.634   8.628  12.624  0.00  0.00    +0.000 NA
ATOM      3  H   UNL     1      49.642   9.564  13.043  0.00  0.00    +0.000 HD
ATOM      4  H   UNL     1      49.056   8.716  11.782  0.00  0.00    +0.000 HD
ENDBRANCH   1   2
BRANCH   1   5
ATOM      5  C   UNL     1      49.637   7.799  14.945  0.00  0.00    +0.000 C 
ATOM      6  O   UNL     1      50.712   8.398  15.048  0.00  0.00    +0.000 OA
BRANCH   5   7
ATOM      7  C   UNL     1      48.996   7.218  16.136  0.00  0.00    +0.000 A 
ATOM      8  C   UNL     1      48.801   5.850  16.234  0.00  0.00    +0.000 A 
ATOM      9  S   UNL     1      48.174   5.362  17.745  0.00  0.00    +0.000 S 
ATOM     10  C   UNL     1      48.096   6.972  18.292  0.00  0.00    +0.000 A 
ATOM     11  N   UNL     1      47.680   7.272  19.551  0.00  0.00    +0.000 NA
ATOM     12  C   UNL     1      47.683   8.534  19.824  0.00  0.00    +0.000 A 
ATOM     13  N   UNL     1      48.027   9.526  18.942  0.00  0.00    +0.000 N 
ATOM     14  C   UNL     1      48.300   9.272  17.619  0.00  0.00    +0.000 A 
ATOM     15  O   UNL     1      48.324  10.169  16.783  0.00  0.00    +0.000 OA
ATOM     16  C   UNL     1      48.478   7.866  17.309  0.00  0.00    +0.000 A 
ATOM     17  H   UNL     1      47.917  10.499  19.195  0.00  0.00    +0.000 HD
ENDBRANCH   5   7
ENDBRANCH   1   5
BRANCH   1  18
ATOM     18  C   UNL     1      47.451   8.102  13.661  0.00  0.00    +0.000 C 
BRANCH  18  19
ATOM     19  C   UNL     1      46.559   7.158  12.884  0.00  0.00    +0.000 A 
ATOM     20  C   UNL     1      45.602   7.669  11.999  0.00  0.00    +0.000 A 
ATOM     21  C   UNL     1      44.711   6.814  11.348  0.00  0.00    +0.000 A 
ATOM     22  C   UNL     1      44.757   5.431  11.568  0.00  0.00    +0.000 A 
ATOM     23  C   UNL     1      45.752   4.915  12.411  0.00  0.00    +0.000 A 
ATOM     24  C   UNL     1      46.640   5.770  13.071  0.00  0.00    +0.000 A 
BRANCH  22  25
ATOM     25  C   UNL     1      43.723   4.525  10.943  0.00  0.00    +0.000 C 
BRANCH  25  26
ATOM     26  N   UNL     1      43.832   4.521   9.493  0.00  0.00    +0.000 N 
ATOM     27  H   UNL     1      42.935   4.420   9.023  0.00  0.00    +0.000 HD
BRANCH  26  28
ATOM     28  C   UNL     1      44.829   3.745   8.885  0.00  0.00    +0.000 A 
ATOM     29  C   UNL     1      45.766   4.253   7.975  0.00  0.00    +0.000 A 
ATOM     30  C   UNL     1      46.706   3.424   7.356  0.00  0.00    +0.000 A 
ATOM     31  C   UNL     1      46.702   2.056   7.607  0.00  0.00    +0.000 A 
ATOM     32  C   UNL     1      45.751   1.520   8.469  0.00  0.00    +0.000 A 
ATOM     33  C   UNL     1      44.819   2.358   9.093  0.00  0.00    +0.000 A 
ENDBRANCH  26  28
ENDBRANCH  25  26
ENDBRANCH  22  25
ENDBRANCH  18  19
ENDBRANCH   1  18
TORSDOF 8
ENDMDL
MODEL 8
REMARK VINA RESULT:    -6.890      3.505      8.693
REMARK INTER + INTRA:         -10.834
REMARK INTER:                  -9.501
REMARK INTRA:                  -1.333
REMARK UNBOUND:                -0.923
REMARK  Name = 
REMARK  8 active torsions:
REMARK  status: ('A' for Active; 'I' for Inactive)
REMARK    1  A    between atoms: N_1  and  C_2
REMARK    2  A    between atoms: C_2  and  C_3
REMARK    3  A    between atoms: C_2  and  C_18
REMARK    4  A    between atoms: C_3  and  C_4
REMARK    5  A    between atoms: C_7  and  C_8
REMARK    6  A    between atoms: C_8  and  N_9
REMARK    7  A    between atoms: N_9  and  C_10
REMARK    8  A    between atoms: C_18  and  C_20
REMARK                            x       y       z     vdW  Elec       q    Type
REMARK                         _______ _______ _______ _____ _____    ______ ____
ROOT
ATOM      1  C   UNL     1      46.491   7.511  12.565  0.00  0.00    +0.000 C 
ENDROOT
BRANCH   1   2
ATOM      2  N   UNL     1      47.310   8.651  12.090  0.00  0.00    +0.000 NA
ATOM      3  H   UNL     1      47.401   8.569  11.072  0.00  0.00    +0.000 HD
ATOM      4  H   UNL     1      48.259   8.530  12.454  0.00  0.00    +0.000 HD
ENDBRANCH   1   2
BRANCH   1   5
ATOM      5  C   UNL     1      45.281   7.337  11.607  0.00  0.00    +0.000 C 
ATOM      6  O   UNL     1      44.548   8.301  11.372  0.00  0.00    +0.000 OA
BRANCH   5   7
ATOM      7  C   UNL     1      45.046   6.047  10.939  0.00  0.00    +0.000 A 
ATOM      8  C   UNL     1      45.478   5.837   9.639  0.00  0.00    +0.000 A 
ATOM      9  S   UNL     1      45.236   4.238   9.094  0.00  0.00    +0.000 S 
ATOM     10  C   UNL     1      44.498   3.794  10.562  0.00  0.00    +0.000 A 
ATOM     11  N   UNL     1      44.081   2.519  10.787  0.00  0.00    +0.000 NA
ATOM     12  C   UNL     1      43.549   2.332  11.950  0.00  0.00    +0.000 A 
ATOM     13  N   UNL     1      43.360   3.311  12.891  0.00  0.00    +0.000 N 
ATOM     14  C   UNL     1      43.623   4.636  12.639  0.00  0.00    +0.000 A 
ATOM     15  O   UNL     1      43.192   5.527  13.362  0.00  0.00    +0.000 OA
ATOM     16  C   UNL     1      44.379   4.869  11.423  0.00  0.00    +0.000 A 
ATOM     17  H   UNL     1      42.852   3.112  13.743  0.00  0.00    +0.000 HD
ENDBRANCH   5   7
ENDBRANCH   1   5
BRANCH   1  18
ATOM     18  C   UNL     1      47.349   6.236  12.624  0.00  0.00    +0.000 C 
BRANCH  18  19
ATOM     19  C   UNL     1      47.572   5.758  14.042  0.00  0.00    +0.000 A 
ATOM     20  C   UNL     1      48.431   6.466  14.892  0.00  0.00    +0.000 A 
ATOM     21  C   UNL     1      48.718   5.984  16.170  0.00  0.00    +0.000 A 
ATOM     22  C   UNL     1      48.154   4.786  16.626  0.00  0.00    +0.000 A 
ATOM     23  C   UNL     1      47.250   4.108  15.797  0.00  0.00    +0.000 A 
ATOM     24  C   UNL     1      46.968   4.583  14.512  0.00  0.00    +0.000 A 
BRANCH  22  25
ATOM     25  C   UNL     1      48.552   4.218  17.968  0.00  0.00    +0.000 C 
BRANCH  25  26
ATOM     26  N   UNL     1      49.102   2.878  17.832  0.00  0.00    +0.000 N 
ATOM     27  H   UNL     1      48.665   2.199  18.452  0.00  0.00    +0.000 HD
BRANCH  26  28
ATOM     28  C   UNL     1      50.494   2.714  17.777  0.00  0.00    +0.000 A 
ATOM     29  C   UNL     1      51.124   1.499  17.476  0.00  0.00    +0.000 A 
ATOM     30  C   UNL     1      52.517   1.376  17.488  0.00  0.00    +0.000 A 
ATOM     31  C   UNL     1      53.310   2.464  17.840  0.00  0.00    +0.000 A 
ATOM     32  C   UNL     1      52.706   3.667  18.190  0.00  0.00    +0.000 A 
ATOM     33  C   UNL     1      51.311   3.785  18.167  0.00  0.00    +0.000 A 
ENDBRANCH  26  28
ENDBRANCH  25  26
ENDBRANCH  22  25
ENDBRANCH  18  19
ENDBRANCH   1  18
TORSDOF 8
ENDMDL
MODEL 9
REMARK VINA RESULT:    -6.799      4.434      4.834
REMARK INTER + INTRA:         -10.703
REMARK INTER:                  -9.833
REMARK INTRA:                  -0.869
REMARK UNBOUND:                -0.923
REMARK  Name = 
REMARK  8 active torsions:
REMARK  status: ('A' for Active; 'I' for Inactive)
REMARK    1  A    between atoms: N_1  and  C_2
REMARK    2  A    between atoms: C_2  and  C_3
REMARK    3  A    between atoms: C_2  and  C_18
REMARK    4  A    between atoms: C_3  and  C_4
REMARK    5  A    between atoms: C_7  and  C_8
REMARK    6  A    between atoms: C_8  and  N_9
REMARK    7  A    between atoms: N_9  and  C_10
REMARK    8  A    between atoms: C_18  and  C_20
REMARK                            x       y       z     vdW  Elec       q    Type
REMARK                         _______ _______ _______ _____ _____    ______ ____
ROOT
ATOM      1  C   UNL     1      47.391   7.738  13.382  0.00  0.00    +0.000 C 
ENDROOT
BRANCH   1   2
ATOM      2  N   UNL     1      48.016   6.559  12.736  0.00  0.00    +0.000 NA
ATOM      3  H   UNL     1      48.793   6.894  12.158  0.00  0.00    +0.000 HD
ATOM      4  H   UNL     1      47.339   6.167  12.074  0.00  0.00    +0.000 HD
ENDBRANCH   1   2
BRANCH   1   5
ATOM      5  C   UNL     1      47.968   9.024  12.731  0.00  0.00    +0.000 C 
ATOM      6  O   UNL     1      47.323   9.603  11.853  0.00  0.00    +0.000 OA
BRANCH   5   7
ATOM      7  C   UNL     1      49.249   9.579  13.198  0.00  0.00    +0.000 A 
ATOM      8  C   UNL     1      49.275  10.683  14.035  0.00  0.00    +0.000 A 
ATOM      9  S   UNL     1      50.843  11.086  14.575  0.00  0.00    +0.000 S 
ATOM     10  C   UNL     1      51.538   9.829  13.663  0.00  0.00    +0.000 A 
ATOM     11  N   UNL     1      52.875   9.580  13.705  0.00  0.00    +0.000 NA
ATOM     12  C   UNL     1      53.253   8.589  12.967  0.00  0.00    +0.000 A 
ATOM     13  N   UNL     1      52.424   7.850  12.162  0.00  0.00    +0.000 N 
ATOM     14  C   UNL     1      51.101   8.172  11.974  0.00  0.00    +0.000 A 
ATOM     15  O   UNL     1      50.447   7.697  11.053  0.00  0.00    +0.000 OA
ATOM     16  C   UNL     1      50.593   9.160  12.907  0.00  0.00    +0.000 A 
ATOM     17  H   UNL     1      52.803   7.148  11.541  0.00  0.00    +0.000 HD
ENDBRANCH   5   7
ENDBRANCH   1   5
BRANCH   1  18
ATOM     18  C   UNL     1      45.862   7.670  13.231  0.00  0.00    +0.000 C 
BRANCH  18  19
ATOM     19  C   UNL     1      45.416   6.462  12.436  0.00  0.00    +0.000 A 
ATOM     20  C   UNL     1      45.000   5.302  13.101  0.00  0.00    +0.000 A 
ATOM     21  C   UNL     1      44.676   4.151  12.381  0.00  0.00    +0.000 A 
ATOM     22  C   UNL     1      44.761   4.134  10.983  0.00  0.00    +0.000 A 
ATOM     23  C   UNL     1      45.122   5.313  10.315  0.00  0.00    +0.000 A 
ATOM     24  C   UNL     1      45.456   6.465  11.035  0.00  0.00    +0.000 A 
BRANCH  22  25
ATOM     25  C   UNL     1      44.511   2.855  10.219  0.00  0.00    +0.000 C 
BRANCH  25  26
ATOM     26  N   UNL     1      44.449   3.099   8.787  0.00  0.00    +0.000 N 
ATOM     27  H   UNL     1      43.536   2.901   8.384  0.00  0.00    +0.000 HD
BRANCH  26  28
ATOM     28  C   UNL     1      45.491   2.636   7.970  0.00  0.00    +0.000 A 
ATOM     29  C   UNL     1      46.166   1.425   8.178  0.00  0.00    +0.000 A 
ATOM     30  C   UNL     1      47.235   1.036   7.365  0.00  0.00    +0.000 A 
ATOM     31  C   UNL     1      47.677   1.873   6.346  0.00  0.00    +0.000 A 
ATOM     32  C   UNL     1      47.055   3.102   6.150  0.00  0.00    +0.000 A 
ATOM     33  C   UNL     1      45.979   3.480   6.962  0.00  0.00    +0.000 A 
ENDBRANCH  26  28
ENDBRANCH  25  26
ENDBRANCH  22  25
ENDBRANCH  18  19
ENDBRANCH   1  18
TORSDOF 8
ENDMDL
