MODEL 1
REMARK VINA RESULT:    -8.428      0.000      0.000
REMARK INTER + INTRA:         -13.302
REMARK INTER:                 -12.123
REMARK INTRA:                  -1.179
REMARK UNBOUND:                -1.179
REMARK  Name = 
REMARK  8 active torsions:
REMARK  status: ('A' for Active; 'I' for Inactive)
REMARK    1  A    between atoms: N_1  and  C_2
REMARK    2  A    between atoms: C_2  and  C_3
REMARK    3  A    between atoms: C_3  and  C_4
REMARK    4  A    between atoms: C_4  and  N_5
REMARK    5  A    between atoms: C_4  and  C_18
REMARK    6  A    between atoms: C_6  and  C_8
REMARK    7  A    between atoms: C_21  and  C_22
REMARK    8  A    between atoms: C_22  and  C_23
REMARK                            x       y       z     vdW  Elec       q    Type
REMARK                         _______ _______ _______ _____ _____    ______ ____
ROOT
ATOM      1  C   UNL     1      46.449   7.729  12.681  0.00  0.00    +0.000 C 
ENDROOT
BRANCH   1   2
ATOM      2  C   UNL     1      46.057   6.524  11.824  0.00  0.00    +0.000 A 
ATOM      3  C   UNL     1      46.500   6.458  10.494  0.00  0.00    +0.000 A 
ATOM      4  C   UNL     1      46.021   5.477   9.624  0.00  0.00    +0.000 A 
ATOM      5  C   UNL     1      45.129   4.495  10.073  0.00  0.00    +0.000 A 
ATOM      6  C   UNL     1      44.738   4.511  11.418  0.00  0.00    +0.000 A 
ATOM      7  C   UNL     1      45.178   5.525  12.277  0.00  0.00    +0.000 A 
BRANCH   5   8
ATOM      8  C   UNL     1      44.561   3.474   9.112  0.00  0.00    +0.000 C 
BRANCH   8   9
ATOM      9  C   UNL     1      45.556   2.773   8.214  0.00  0.00    +0.000 A 
ATOM     10  C   UNL     1      45.979   3.349   7.017  0.00  0.00    +0.000 A 
ATOM     11  C   UNL     1      46.802   2.618   6.164  0.00  0.00    +0.000 A 
ATOM     12  C   UNL     1      47.180   1.332   6.520  0.00  0.00    +0.000 A 
ATOM     13  C   UNL     1      46.727   0.832   7.728  0.00  0.00    +0.000 A 
ATOM     14  N   UNL     1      45.928   1.518   8.576  0.00  0.00    +0.000 NA
ENDBRANCH   8   9
ENDBRANCH   5   8
ENDBRANCH   1   2
BRANCH   1  15
ATOM     15  N   UNL     1      47.016   7.303  13.955  0.00  0.00    +0.000 N 
ATOM     16  C   UNL     1      48.272   6.762  14.081  0.00  0.00    +0.000 C 
ATOM     17  O   UNL     1      49.056   6.656  13.143  0.00  0.00    +0.000 OA
ATOM     18  H   UNL     1      46.343   7.101  14.686  0.00  0.00    +0.000 HD
BRANCH  16  19
ATOM     19  C   UNL     1      48.657   6.353  15.438  0.00  0.00    +0.000 A 
ATOM     20  C   UNL     1      49.607   7.076  16.144  0.00  0.00    +0.000 A 
ATOM     21  S   UNL     1      49.932   6.441  17.695  0.00  0.00    +0.000 S 
ATOM     22  C   UNL     1      48.847   5.150  17.455  0.00  0.00    +0.000 A 
ATOM     23  N   UNL     1      48.678   4.185  18.401  0.00  0.00    +0.000 NA
ATOM     24  C   UNL     1      47.854   3.253  18.064  0.00  0.00    +0.000 A 
ATOM     25  N   UNL     1      47.163   3.202  16.880  0.00  0.00    +0.000 N 
ATOM     26  C   UNL     1      47.257   4.183  15.923  0.00  0.00    +0.000 A 
ATOM     27  O   UNL     1      46.556   4.161  14.917  0.00  0.00    +0.000 OA
ATOM     28  C   UNL     1      48.213   5.232  16.229  0.00  0.00    +0.000 A 
ATOM     29  H   UNL     1      46.506   2.463  16.691  0.00  0.00    +0.000 HD
ENDBRANCH  16  19
ENDBRANCH   1  15
BRANCH   1  30
ATOM     30  C   UNL     1      45.243   8.677  12.887  0.00  0.00    +0.000 C 
BRANCH  30  31
ATOM     31  C   UNL     1      44.839   9.438  11.624  0.00  0.00    +0.000 C 
BRANCH  31  32
ATOM     32  N   UNL     1      43.641   8.855  11.033  0.00  0.00    +0.000 NA
ATOM     33  H   UNL     1      43.499   7.919  11.411  0.00  0.00    +0.000 HD
ATOM     34  H   UNL     1      43.776   8.744  10.027  0.00  0.00    +0.000 HD
ENDBRANCH  31  32
ENDBRANCH  30  31
ENDBRANCH   1  30
TORSDOF 8
ENDMDL
MODEL 2
REMARK VINA RESULT:    -7.910      1.974      2.730
REMARK INTER + INTRA:         -12.558
REMARK INTER:                 -11.108
REMARK INTRA:                  -1.450
REMARK UNBOUND:                -1.179
REMARK  Name = 
REMARK  8 active torsions:
REMARK  status: ('A' for Active; 'I' for Inactive)
REMARK    1  A    between atoms: N_1  and  C_2
REMARK    2  A    between atoms: C_2  and  C_3
REMARK    3  A    between atoms: C_3  and  C_4
REMARK    4  A    between atoms: C_4  and  N_5
REMARK    5  A    between atoms: C_4  and  C_18
REMARK    6  A    between atoms: C_6  and  C_8
REMARK    7  A    between atoms: C_21  and  C_22
REMARK    8  A    between atoms: C_22  and  C_23
REMARK                            x       y       z     vdW  Elec       q    Type
REMARK                         _______ _______ _______ _____ _____    ______ ____
ROOT
ATOM      1  C   UNL     1      47.327   6.763  13.451  0.00  0.00    +0.000 C 
ENDROOT
BRANCH   1   2
ATOM      2  C   UNL     1      46.489   5.921  12.487  0.00  0.00    +0.000 A 
ATOM      3  C   UNL     1      46.089   4.634  12.875  0.00  0.00    +0.000 A 
ATOM      4  C   UNL     1      45.483   3.765  11.967  0.00  0.00    +0.000 A 
ATOM      5  C   UNL     1      45.205   4.176  10.657  0.00  0.00    +0.000 A 
ATOM      6  C   UNL     1      45.536   5.485  10.283  0.00  0.00    +0.000 A 
ATOM      7  C   UNL     1      46.191   6.340  11.179  0.00  0.00    +0.000 A 
BRANCH   5   8
ATOM      8  C   UNL     1      44.609   3.210   9.656  0.00  0.00    +0.000 C 
BRANCH   8   9
ATOM      9  C   UNL     1      45.538   2.711   8.571  0.00  0.00    +0.000 A 
ATOM     10  C   UNL     1      45.867   3.513   7.479  0.00  0.00    +0.000 A 
ATOM     11  C   UNL     1      46.627   2.974   6.444  0.00  0.00    +0.000 A 
ATOM     12  C   UNL     1      47.037   1.650   6.519  0.00  0.00    +0.000 A 
ATOM     13  C   UNL     1      46.678   0.921   7.639  0.00  0.00    +0.000 A 
ATOM     14  N   UNL     1      45.941   1.418   8.658  0.00  0.00    +0.000 NA
ENDBRANCH   8   9
ENDBRANCH   5   8
ENDBRANCH   1   2
BRANCH   1  15
ATOM     15  N   UNL     1      47.421   6.125  14.759  0.00  0.00    +0.000 N 
ATOM     16  C   UNL     1      48.594   6.013  15.463  0.00  0.00    +0.000 C 
ATOM     17  O   UNL     1      49.654   6.504  15.087  0.00  0.00    +0.000 OA
ATOM     18  H   UNL     1      46.677   5.473  14.979  0.00  0.00    +0.000 HD
BRANCH  16  19
ATOM     19  C   UNL     1      48.504   5.301  16.745  0.00  0.00    +0.000 A 
ATOM     20  C   UNL     1      48.352   3.923  16.771  0.00  0.00    +0.000 A 
ATOM     21  S   UNL     1      48.252   3.279  18.349  0.00  0.00    +0.000 S 
ATOM     22  C   UNL     1      48.361   4.828  19.048  0.00  0.00    +0.000 A 
ATOM     23  N   UNL     1      48.290   5.000  20.397  0.00  0.00    +0.000 NA
ATOM     24  C   UNL     1      48.350   6.230  20.777  0.00  0.00    +0.000 A 
ATOM     25  N   UNL     1      48.498   7.307  19.941  0.00  0.00    +0.000 N 
ATOM     26  C   UNL     1      48.633   7.177  18.580  0.00  0.00    +0.000 A 
ATOM     27  O   UNL     1      48.860   8.148  17.867  0.00  0.00    +0.000 OA
ATOM     28  C   UNL     1      48.520   5.815  18.093  0.00  0.00    +0.000 A 
ATOM     29  H   UNL     1      48.572   8.244  20.304  0.00  0.00    +0.000 HD
ENDBRANCH  16  19
ENDBRANCH   1  15
BRANCH   1  30
ATOM     30  C   UNL     1      46.765   8.201  13.561  0.00  0.00    +0.000 C 
BRANCH  30  31
ATOM     31  C   UNL     1      47.752   9.201  14.163  0.00  0.00    +0.000 C 
BRANCH  31  32
ATOM     32  N   UNL     1      47.545   9.329  15.600  0.00  0.00    +0.000 NA
ATOM     33  H   UNL     1      48.442   9.488  16.058  0.00  0.00    +0.000 HD
ATOM     34  H   UNL     1      47.181   8.451  15.972  0.00  0.00    +0.000 HD
ENDBRANCH  31  32
ENDBRANCH  30  31
ENDBRANCH   1  30
TORSDOF 8
ENDMDL
MODEL 3
REMARK VINA RESULT:    -7.753      2.669      4.329
REMARK INTER + INTRA:         -12.332
REMARK INTER:                 -10.626
REMARK INTRA:                  -1.706
REMARK UNBOUND:                -1.179
REMARK  Name = 
REMARK  8 active torsions:
REMARK  status: ('A' for Active; 'I' for Inactive)
REMARK    1  A    between atoms: N_1  and  C_2
REMARK    2  A    between atoms: C_2  and  C_3
REMARK    3  A    between atoms: C_3  and  C_4
REMARK    4  A    between atoms: C_4  and  N_5
REMARK    5  A    between atoms: C_4  and  C_18
REMARK    6  A    between atoms: C_6  and  C_8
REMARK    7  A    between atoms: C_21  and  C_22
REMARK    8  A    between atoms: C_22  and  C_23
REMARK                            x       y       z     vdW  Elec       q    Type
REMARK                         _______ _______ _______ _____ _____    ______ ____
ROOT
ATOM      1  C   UNL     1      46.822   5.520  13.917  0.00  0.00    +0.000 C 
ENDROOT
BRANCH   1   2
ATOM      2  C   UNL     1      46.099   5.170  12.615  0.00  0.00    +0.000 A 
ATOM      3  C   UNL     1      45.427   3.943  12.515  0.00  0.00    +0.000 A 
ATOM      4  C   UNL     1      44.911   3.503  11.295  0.00  0.00    +0.000 A 
ATOM      5  C   UNL     1      44.999   4.304  10.149  0.00  0.00    +0.000 A 
ATOM      6  C   UNL     1      45.604   5.563  10.258  0.00  0.00    +0.000 A 
ATOM      7  C   UNL     1      46.168   5.982  11.469  0.00  0.00    +0.000 A 
BRANCH   5   8
ATOM      8  C   UNL     1      44.498   3.797   8.815  0.00  0.00    +0.000 C 
BRANCH   8   9
ATOM      9  C   UNL     1      45.489   3.018   7.978  0.00  0.00    +0.000 A 
ATOM     10  C   UNL     1      45.896   1.736   8.348  0.00  0.00    +0.000 A 
ATOM     11  C   UNL     1      46.899   1.104   7.618  0.00  0.00    +0.000 A 
ATOM     12  C   UNL     1      47.475   1.763   6.541  0.00  0.00    +0.000 A 
ATOM     13  C   UNL     1      47.012   3.029   6.230  0.00  0.00    +0.000 A 
ATOM     14  N   UNL     1      46.041   3.667   6.922  0.00  0.00    +0.000 NA
ENDBRANCH   8   9
ENDBRANCH   5   8
ENDBRANCH   1   2
BRANCH   1  15
ATOM     15  N   UNL     1      47.983   6.364  13.662  0.00  0.00    +0.000 N 
ATOM     16  C   UNL     1      47.943   7.735  13.693  0.00  0.00    +0.000 C 
ATOM     17  O   UNL     1      46.943   8.372  14.009  0.00  0.00    +0.000 OA
ATOM     18  H   UNL     1      48.730   5.928  13.132  0.00  0.00    +0.000 HD
BRANCH  16  19
ATOM     19  C   UNL     1      49.202   8.419  13.368  0.00  0.00    +0.000 A 
ATOM     20  C   UNL     1      49.240   9.379  12.368  0.00  0.00    +0.000 A 
ATOM     21  S   UNL     1      50.791  10.050  12.127  0.00  0.00    +0.000 S 
ATOM     22  C   UNL     1      51.473   9.045  13.321  0.00  0.00    +0.000 A 
ATOM     23  N   UNL     1      52.807   9.077  13.593  0.00  0.00    +0.000 NA
ATOM     24  C   UNL     1      53.183   8.234  14.493  0.00  0.00    +0.000 A 
ATOM     25  N   UNL     1      52.352   7.376  15.166  0.00  0.00    +0.000 N 
ATOM     26  C   UNL     1      50.993   7.351  14.968  0.00  0.00    +0.000 A 
ATOM     27  O   UNL     1      50.262   6.643  15.652  0.00  0.00    +0.000 OA
ATOM     28  C   UNL     1      50.521   8.245  13.926  0.00  0.00    +0.000 A 
ATOM     29  H   UNL     1      52.704   6.764  15.885  0.00  0.00    +0.000 HD
ENDBRANCH  16  19
ENDBRANCH   1  15
BRANCH   1  30
ATOM     30  C   UNL     1      47.213   4.239  14.694  0.00  0.00    +0.000 C 
BRANCH  30  31
ATOM     31  C   UNL     1      47.118   4.390  16.212  0.00  0.00    +0.000 C 
BRANCH  31  32
ATOM     32  N   UNL     1      47.841   5.574  16.659  0.00  0.00    +0.000 NA
ATOM     33  H   UNL     1      47.706   5.694  17.662  0.00  0.00    +0.000 HD
ATOM     34  H   UNL     1      47.447   6.403  16.212  0.00  0.00    +0.000 HD
ENDBRANCH  31  32
ENDBRANCH  30  31
ENDBRANCH   1  30
TORSDOF 8
ENDMDL
MODEL 4
REMARK VINA RESULT:    -7.519      2.272      3.184
REMARK INTER + INTRA:         -11.995
REMARK INTER:                 -10.316
REMARK INTRA:                  -1.679
REMARK UNBOUND:                -1.179
REMARK  Name = 
REMARK  8 active torsions:
REMARK  status: ('A' for Active; 'I' for Inactive)
REMARK    1  A    between atoms: N_1  and  C_2
REMARK    2  A    between atoms: C_2  and  C_3
REMARK    3  A    between atoms: C_3  and  C_4
REMARK    4  A    between atoms: C_4  and  N_5
REMARK    5  A    between atoms: C_4  and  C_18
REMARK    6  A    between atoms: C_6  and  C_8
REMARK    7  A    between atoms: C_21  and  C_22
REMARK    8  A    between atoms: C_22  and  C_23
REMARK                            x       y       z     vdW  Elec       q    Type
REMARK                         _______ _______ _______ _____ _____    ______ ____
ROOT
ATOM      1  C   UNL     1      47.878   7.311  13.822  0.00  0.00    +0.000 C 
ENDROOT
BRANCH   1   2
ATOM      2  C   UNL     1      46.822   6.636  12.946  0.00  0.00    +0.000 A 
ATOM      3  C   UNL     1      46.572   5.266  13.110  0.00  0.00    +0.000 A 
ATOM      4  C   UNL     1      45.754   4.572  12.217  0.00  0.00    +0.000 A 
ATOM      5  C   UNL     1      45.113   5.239  11.165  0.00  0.00    +0.000 A 
ATOM      6  C   UNL     1      45.300   6.622  11.038  0.00  0.00    +0.000 A 
ATOM      7  C   UNL     1      46.161   7.308  11.902  0.00  0.00    +0.000 A 
BRANCH   5   8
ATOM      8  C   UNL     1      44.281   4.472  10.161  0.00  0.00    +0.000 C 
BRANCH   8   9
ATOM      9  C   UNL     1      45.045   3.681   9.122  0.00  0.00    +0.000 A 
ATOM     10  C   UNL     1      45.173   2.295   9.221  0.00  0.00    +0.000 A 
ATOM     11  C   UNL     1      45.984   1.621   8.312  0.00  0.00    +0.000 A 
ATOM     12  C   UNL     1      46.651   2.340   7.330  0.00  0.00    +0.000 A 
ATOM     13  C   UNL     1      46.467   3.711   7.291  0.00  0.00    +0.000 A 
ATOM     14  N   UNL     1      45.686   4.392   8.161  0.00  0.00    +0.000 NA
ENDBRANCH   8   9
ENDBRANCH   5   8
ENDBRANCH   1   2
BRANCH   1  15
ATOM     15  N   UNL     1      47.886   6.744  15.165  0.00  0.00    +0.000 N 
ATOM     16  C   UNL     1      49.033   6.381  15.826  0.00  0.00    +0.000 C 
ATOM     17  O   UNL     1      50.159   6.569  15.374  0.00  0.00    +0.000 OA
ATOM     18  H   UNL     1      47.018   6.313  15.460  0.00  0.00    +0.000 HD
BRANCH  16  19
ATOM     19  C   UNL     1      48.843   5.787  17.156  0.00  0.00    +0.000 A 
ATOM     20  C   UNL     1      49.071   4.434  17.358  0.00  0.00    +0.000 A 
ATOM     21  S   UNL     1      48.783   3.927  18.963  0.00  0.00    +0.000 S 
ATOM     22  C   UNL     1      48.300   5.492  19.429  0.00  0.00    +0.000 A 
ATOM     23  N   UNL     1      47.872   5.750  20.696  0.00  0.00    +0.000 NA
ATOM     24  C   UNL     1      47.503   6.969  20.892  0.00  0.00    +0.000 A 
ATOM     25  N   UNL     1      47.543   7.965  19.950  0.00  0.00    +0.000 N 
ATOM     26  C   UNL     1      48.023   7.766  18.678  0.00  0.00    +0.000 A 
ATOM     27  O   UNL     1      48.137   8.695  17.887  0.00  0.00    +0.000 OA
ATOM     28  C   UNL     1      48.403   6.395  18.388  0.00  0.00    +0.000 A 
ATOM     29  H   UNL     1      47.273   8.909  20.176  0.00  0.00    +0.000 HD
ENDBRANCH  16  19
ENDBRANCH   1  15
BRANCH   1  30
ATOM     30  C   UNL     1      47.671   8.845  13.856  0.00  0.00    +0.000 C 
BRANCH  30  31
ATOM     31  C   UNL     1      48.883   9.639  13.368  0.00  0.00    +0.000 C 
BRANCH  31  32
ATOM     32  N   UNL     1      50.118   9.065  13.887  0.00  0.00    +0.000 NA
ATOM     33  H   UNL     1      50.043   8.049  13.889  0.00  0.00    +0.000 HD
ATOM     34  H   UNL     1      50.243   9.348  14.860  0.00  0.00    +0.000 HD
ENDBRANCH  31  32
ENDBRANCH  30  31
ENDBRANCH   1  30
TORSDOF 8
ENDMDL
MODEL 5
REMARK VINA RESULT:    -7.361      2.271      4.056
REMARK INTER + INTRA:         -11.767
REMARK INTER:                 -10.755
REMARK INTRA:                  -1.012
REMARK UNBOUND:                -1.179
REMARK  Name = 
REMARK  8 active torsions:
REMARK  status: ('A' for Active; 'I' for Inactive)
REMARK    1  A    between atoms: N_1  and  C_2
REMARK    2  A    between atoms: C_2  and  C_3
REMARK    3  A    between atoms: C_3  and  C_4
REMARK    4  A    between atoms: C_4  and  N_5
REMARK    5  A    between atoms: C_4  and  C_18
REMARK    6  A    between atoms: C_6  and  C_8
REMARK    7  A    between atoms: C_21  and  C_22
REMARK    8  A    between atoms: C_22  and  C_23
REMARK                            x       y       z     vdW  Elec       q    Type
REMARK                         _______ _______ _______ _____ _____    ______ ____
ROOT
ATOM      1  C   UNL     1      46.307   4.928  14.128  0.00  0.00    +0.000 C 
ENDROOT
BRANCH   1   2
ATOM      2  C   UNL     1      45.717   4.612  12.753  0.00  0.00    +0.000 A 
ATOM      3  C   UNL     1      45.273   3.308  12.483  0.00  0.00    +0.000 A 
ATOM      4  C   UNL     1      44.897   2.929  11.194  0.00  0.00    +0.000 A 
ATOM      5  C   UNL     1      44.898   3.857  10.145  0.00  0.00    +0.000 A 
ATOM      6  C   UNL     1      45.270   5.179  10.422  0.00  0.00    +0.000 A 
ATOM      7  C   UNL     1      45.696   5.547  11.703  0.00  0.00    +0.000 A 
BRANCH   5   8
ATOM      8  C   UNL     1      44.555   3.426   8.736  0.00  0.00    +0.000 C 
BRANCH   8   9
ATOM      9  C   UNL     1      45.680   2.818   7.928  0.00  0.00    +0.000 A 
ATOM     10  C   UNL     1      46.211   3.478   6.820  0.00  0.00    +0.000 A 
ATOM     11  C   UNL     1      47.161   2.831   6.034  0.00  0.00    +0.000 A 
ATOM     12  C   UNL     1      47.556   1.543   6.366  0.00  0.00    +0.000 A 
ATOM     13  C   UNL     1      46.990   0.957   7.484  0.00  0.00    +0.000 A 
ATOM     14  N   UNL     1      46.066   1.561   8.266  0.00  0.00    +0.000 NA
ENDBRANCH   8   9
ENDBRANCH   5   8
ENDBRANCH   1   2
BRANCH   1  15
ATOM     15  N   UNL     1      46.838   6.286  14.170  0.00  0.00    +0.000 N 
ATOM     16  C   UNL     1      48.068   6.633  13.668  0.00  0.00    +0.000 C 
ATOM     17  O   UNL     1      48.798   5.846  13.073  0.00  0.00    +0.000 OA
ATOM     18  H   UNL     1      46.432   6.891  14.875  0.00  0.00    +0.000 HD
BRANCH  16  19
ATOM     19  C   UNL     1      48.453   8.040  13.838  0.00  0.00    +0.000 A 
ATOM     20  C   UNL     1      48.496   8.891  12.743  0.00  0.00    +0.000 A 
ATOM     21  S   UNL     1      48.977  10.482  13.136  0.00  0.00    +0.000 S 
ATOM     22  C   UNL     1      49.188  10.072  14.776  0.00  0.00    +0.000 A 
ATOM     23  N   UNL     1      49.642  10.986  15.678  0.00  0.00    +0.000 NA
ATOM     24  C   UNL     1      49.788  10.522  16.872  0.00  0.00    +0.000 A 
ATOM     25  N   UNL     1      49.501   9.238  17.259  0.00  0.00    +0.000 N 
ATOM     26  C   UNL     1      48.985   8.301  16.398  0.00  0.00    +0.000 A 
ATOM     27  O   UNL     1      48.647   7.190  16.792  0.00  0.00    +0.000 OA
ATOM     28  C   UNL     1      48.850   8.755  15.026  0.00  0.00    +0.000 A 
ATOM     29  H   UNL     1      49.604   8.946  18.218  0.00  0.00    +0.000 HD
ENDBRANCH  16  19
ENDBRANCH   1  15
BRANCH   1  30
ATOM     30  C   UNL     1      47.383   3.887  14.521  0.00  0.00    +0.000 C 
BRANCH  30  31
ATOM     31  C   UNL     1      47.509   3.675  16.030  0.00  0.00    +0.000 C 
BRANCH  31  32
ATOM     32  N   UNL     1      46.981   4.823  16.757  0.00  0.00    +0.000 NA
ATOM     33  H   UNL     1      46.017   4.989  16.472  0.00  0.00    +0.000 HD
ATOM     34  H   UNL     1      47.507   5.660  16.502  0.00  0.00    +0.000 HD
ENDBRANCH  31  32
ENDBRANCH  30  31
ENDBRANCH   1  30
TORSDOF 8
ENDMDL
MODEL 6
REMARK VINA RESULT:    -6.890      2.666      4.700
REMARK INTER + INTRA:         -11.091
REMARK INTER:                  -9.566
REMARK INTRA:                  -1.525
REMARK UNBOUND:                -1.179
REMARK  Name = 
REMARK  8 active torsions:
REMARK  status: ('A' for Active; 'I' for Inactive)
REMARK    1  A    between atoms: N_1  and  C_2
REMARK    2  A    between atoms: C_2  and  C_3
REMARK    3  A    between atoms: C_3  and  C_4
REMARK    4  A    between atoms: C_4  and  N_5
REMARK    5  A    between atoms: C_4  and  C_18
REMARK    6  A    between atoms: C_6  and  C_8
REMARK    7  A    between atoms: C_21  and  C_22
REMARK    8  A    between atoms: C_22  and  C_23
REMARK                            x       y       z     vdW  Elec       q    Type
REMARK                         _______ _______ _______ _____ _____    ______ ____
ROOT
ATOM      1  C   UNL     1      47.128   5.523  14.763  0.00  0.00    +0.000 C 
ENDROOT
BRANCH   1   2
ATOM      2  C   UNL     1      46.569   5.015  13.433  0.00  0.00    +0.000 A 
ATOM      3  C   UNL     1      46.394   5.919  12.374  0.00  0.00    +0.000 A 
ATOM      4  C   UNL     1      45.723   5.542  11.210  0.00  0.00    +0.000 A 
ATOM      5  C   UNL     1      45.256   4.232  11.044  0.00  0.00    +0.000 A 
ATOM      6  C   UNL     1      45.491   3.304  12.066  0.00  0.00    +0.000 A 
ATOM      7  C   UNL     1      46.119   3.695  13.255  0.00  0.00    +0.000 A 
BRANCH   5   8
ATOM      8  C   UNL     1      44.471   3.846   9.810  0.00  0.00    +0.000 C 
BRANCH   8   9
ATOM      9  C   UNL     1      45.258   3.204   8.688  0.00  0.00    +0.000 A 
ATOM     10  C   UNL     1      45.632   1.862   8.745  0.00  0.00    +0.000 A 
ATOM     11  C   UNL     1      46.457   1.343   7.750  0.00  0.00    +0.000 A 
ATOM     12  C   UNL     1      46.893   2.172   6.727  0.00  0.00    +0.000 A 
ATOM     13  C   UNL     1      46.472   3.490   6.735  0.00  0.00    +0.000 A 
ATOM     14  N   UNL     1      45.672   4.021   7.687  0.00  0.00    +0.000 NA
ENDBRANCH   8   9
ENDBRANCH   5   8
ENDBRANCH   1   2
BRANCH   1  15
ATOM     15  N   UNL     1      48.458   6.094  14.588  0.00  0.00    +0.000 N 
ATOM     16  C   UNL     1      48.706   7.444  14.574  0.00  0.00    +0.000 C 
ATOM     17  O   UNL     1      47.841   8.290  14.778  0.00  0.00    +0.000 OA
ATOM     18  H   UNL     1      49.137   5.487  14.143  0.00  0.00    +0.000 HD
BRANCH  16  19
ATOM     19  C   UNL     1      50.104   7.834  14.345  0.00  0.00    +0.000 A 
ATOM     20  C   UNL     1      50.988   7.929  15.409  0.00  0.00    +0.000 A 
ATOM     21  S   UNL     1      52.561   8.408  14.948  0.00  0.00    +0.000 S 
ATOM     22  C   UNL     1      52.099   8.547  13.315  0.00  0.00    +0.000 A 
ATOM     23  N   UNL     1      52.980   8.972  12.367  0.00  0.00    +0.000 NA
ATOM     24  C   UNL     1      52.479   9.064  11.183  0.00  0.00    +0.000 A 
ATOM     25  N   UNL     1      51.186   8.750  10.848  0.00  0.00    +0.000 N 
ATOM     26  C   UNL     1      50.281   8.262  11.758  0.00  0.00    +0.000 A 
ATOM     27  O   UNL     1      49.162   7.899  11.412  0.00  0.00    +0.000 OA
ATOM     28  C   UNL     1      50.778   8.188  13.120  0.00  0.00    +0.000 A 
ATOM     29  H   UNL     1      50.864   8.811   9.895  0.00  0.00    +0.000 HD
ENDBRANCH  16  19
ENDBRANCH   1  15
BRANCH   1  30
ATOM     30  C   UNL     1      47.128   4.401  15.828  0.00  0.00    +0.000 C 
BRANCH  30  31
ATOM     31  C   UNL     1      48.089   4.657  16.990  0.00  0.00    +0.000 C 
BRANCH  31  32
ATOM     32  N   UNL     1      47.672   5.827  17.754  0.00  0.00    +0.000 NA
ATOM     33  H   UNL     1      46.888   5.576  18.354  0.00  0.00    +0.000 HD
ATOM     34  H   UNL     1      47.330   6.547  17.116  0.00  0.00    +0.000 HD
ENDBRANCH  31  32
ENDBRANCH  30  31
ENDBRANCH   1  30
TORSDOF 8
ENDMDL
MODEL 7
REMARK VINA RESULT:    -6.806      2.598      4.875
REMARK INTER + INTRA:         -10.970
REMARK INTER:                 -10.838
REMARK INTRA:                  -0.132
REMARK UNBOUND:                -1.179
REMARK  Name = 
REMARK  8 active torsions:
REMARK  status: ('A' for Active; 'I' for Inactive)
REMARK    1  A    between atoms: N_1  and  C_2
REMARK    2  A    between atoms: C_2  and  C_3
REMARK    3  A    between atoms: C_3  and  C_4
REMARK    4  A    between atoms: C_4  and  N_5
REMARK    5  A    between atoms: C_4  and  C_18
REMARK    6  A    between atoms: C_6  and  C_8
REMARK    7  A    between atoms: C_21  and  C_22
REMARK    8  A    between atoms: C_22  and  C_23
REMARK                            x       y       z     vdW  Elec       q    Type
REMARK                         _______ _______ _______ _____ _____    ______ ____
ROOT
ATOM      1  C   UNL     1      46.215   5.501  13.727  0.00  0.00    +0.000 C 
ENDROOT
BRANCH   1   2
ATOM      2  C   UNL     1      45.683   5.194  12.326  0.00  0.00    +0.000 A 
ATOM      3  C   UNL     1      44.904   4.045  12.127  0.00  0.00    +0.000 A 
ATOM      4  C   UNL     1      44.551   3.628  10.842  0.00  0.00    +0.000 A 
ATOM      5  C   UNL     1      44.917   4.381   9.719  0.00  0.00    +0.000 A 
ATOM      6  C   UNL     1      45.632   5.569   9.915  0.00  0.00    +0.000 A 
ATOM      7  C   UNL     1      46.030   5.960  11.199  0.00  0.00    +0.000 A 
BRANCH   5   8
ATOM      8  C   UNL     1      44.590   3.892   8.325  0.00  0.00    +0.000 C 
BRANCH   8   9
ATOM      9  C   UNL     1      45.672   3.103   7.621  0.00  0.00    +0.000 A 
ATOM     10  C   UNL     1      46.015   1.817   8.038  0.00  0.00    +0.000 A 
ATOM     11  C   UNL     1      47.097   1.175   7.440  0.00  0.00    +0.000 A 
ATOM     12  C   UNL     1      47.811   1.828   6.445  0.00  0.00    +0.000 A 
ATOM     13  C   UNL     1      47.404   3.099   6.080  0.00  0.00    +0.000 A 
ATOM     14  N   UNL     1      46.359   3.747   6.643  0.00  0.00    +0.000 NA
ENDBRANCH   8   9
ENDBRANCH   5   8
ENDBRANCH   1   2
BRANCH   1  15
ATOM     15  N   UNL     1      46.891   6.792  13.759  0.00  0.00    +0.000 N 
ATOM     16  C   UNL     1      48.225   6.954  13.477  0.00  0.00    +0.000 C 
ATOM     17  O   UNL     1      48.950   6.038  13.101  0.00  0.00    +0.000 OA
ATOM     18  H   UNL     1      46.440   7.506  14.320  0.00  0.00    +0.000 HD
BRANCH  16  19
ATOM     19  C   UNL     1      48.742   8.324  13.602  0.00  0.00    +0.000 A 
ATOM     20  C   UNL     1      48.326   9.137  14.646  0.00  0.00    +0.000 A 
ATOM     21  S   UNL     1      49.023  10.695  14.617  0.00  0.00    +0.000 S 
ATOM     22  C   UNL     1      49.869  10.349  13.179  0.00  0.00    +0.000 A 
ATOM     23  N   UNL     1      50.641  11.292  12.571  0.00  0.00    +0.000 NA
ATOM     24  C   UNL     1      51.189  10.898  11.473  0.00  0.00    +0.000 A 
ATOM     25  N   UNL     1      51.060   9.643  10.933  0.00  0.00    +0.000 N 
ATOM     26  C   UNL     1      50.341   8.644  11.542  0.00  0.00    +0.000 A 
ATOM     27  O   UNL     1      50.321   7.505  11.087  0.00  0.00    +0.000 OA
ATOM     28  C   UNL     1      49.659   9.049  12.757  0.00  0.00    +0.000 A 
ATOM     29  H   UNL     1      51.543   9.387  10.087  0.00  0.00    +0.000 HD
ENDBRANCH  16  19
ENDBRANCH   1  15
BRANCH   1  30
ATOM     30  C   UNL     1      47.138   4.365  14.228  0.00  0.00    +0.000 C 
BRANCH  30  31
ATOM     31  C   UNL     1      47.213   4.263  15.752  0.00  0.00    +0.000 C 
BRANCH  31  32
ATOM     32  N   UNL     1      48.087   3.168  16.153  0.00  0.00    +0.000 NA
ATOM     33  H   UNL     1      48.811   3.038  15.447  0.00  0.00    +0.000 HD
ATOM     34  H   UNL     1      47.554   2.299  16.184  0.00  0.00    +0.000 HD
ENDBRANCH  31  32
ENDBRANCH  30  31
ENDBRANCH   1  30
TORSDOF 8
ENDMDL
MODEL 8
REMARK VINA RESULT:    -6.702      2.635      4.618
REMARK INTER + INTRA:         -10.820
REMARK INTER:                  -9.585
REMARK INTRA:                  -1.235
REMARK UNBOUND:                -1.179
REMARK  Name = 
REMARK  8 active torsions:
REMARK  status: ('A' for Active; 'I' for Inactive)
REMARK    1  A    between atoms: N_1  and  C_2
REMARK    2  A    between atoms: C_2  and  C_3
REMARK    3  A    between atoms: C_3  and  C_4
REMARK    4  A    between atoms: C_4  and  N_5
REMARK    5  A    between atoms: C_4  and  C_18
REMARK    6  A    between atoms: C_6  and  C_8
REMARK    7  A    between atoms: C_21  and  C_22
REMARK    8  A    between atoms: C_22  and  C_23
REMARK                            x       y       z     vdW  Elec       q    Type
REMARK                         _______ _______ _______ _____ _____    ______ ____
ROOT
ATOM      1  C   UNL     1      47.486   4.730  15.720  0.00  0.00    +0.000 C 
ENDROOT
BRANCH   1   2
ATOM      2  C   UNL     1      46.924   4.752  14.298  0.00  0.00    +0.000 A 
ATOM      3  C   UNL     1      46.948   5.952  13.571  0.00  0.00    +0.000 A 
ATOM      4  C   UNL     1      46.287   6.066  12.347  0.00  0.00    +0.000 A 
ATOM      5  C   UNL     1      45.629   4.965  11.783  0.00  0.00    +0.000 A 
ATOM      6  C   UNL     1      45.663   3.743  12.468  0.00  0.00    +0.000 A 
ATOM      7  C   UNL     1      46.282   3.643  13.719  0.00  0.00    +0.000 A 
BRANCH   5   8
ATOM      8  C   UNL     1      44.858   5.109  10.490  0.00  0.00    +0.000 C 
BRANCH   8   9
ATOM      9  C   UNL     1      45.307   4.235   9.340  0.00  0.00    +0.000 A 
ATOM     10  C   UNL     1      45.079   2.858   9.349  0.00  0.00    +0.000 A 
ATOM     11  C   UNL     1      45.614   2.075   8.330  0.00  0.00    +0.000 A 
ATOM     12  C   UNL     1      46.365   2.677   7.330  0.00  0.00    +0.000 A 
ATOM     13  C   UNL     1      46.539   4.048   7.386  0.00  0.00    +0.000 A 
ATOM     14  N   UNL     1      46.032   4.835   8.362  0.00  0.00    +0.000 NA
ENDBRANCH   8   9
ENDBRANCH   5   8
ENDBRANCH   1   2
BRANCH   1  15
ATOM     15  N   UNL     1      48.408   5.839  15.936  0.00  0.00    +0.000 N 
ATOM     16  C   UNL     1      48.500   6.525  17.121  0.00  0.00    +0.000 C 
ATOM     17  O   UNL     1      47.866   6.221  18.127  0.00  0.00    +0.000 OA
ATOM     18  H   UNL     1      48.732   6.306  15.097  0.00  0.00    +0.000 HD
BRANCH  16  19
ATOM     19  C   UNL     1      49.457   7.641  17.140  0.00  0.00    +0.000 A 
ATOM     20  C   UNL     1      49.017   8.936  17.368  0.00  0.00    +0.000 A 
ATOM     21  S   UNL     1      50.270  10.095  17.340  0.00  0.00    +0.000 S 
ATOM     22  C   UNL     1      51.436   8.908  16.975  0.00  0.00    +0.000 A 
ATOM     23  N   UNL     1      52.740   9.240  16.767  0.00  0.00    +0.000 NA
ATOM     24  C   UNL     1      53.497   8.242  16.464  0.00  0.00    +0.000 A 
ATOM     25  N   UNL     1      53.083   6.938  16.369  0.00  0.00    +0.000 N 
ATOM     26  C   UNL     1      51.791   6.549  16.627  0.00  0.00    +0.000 A 
ATOM     27  O   UNL     1      51.470   5.366  16.629  0.00  0.00    +0.000 OA
ATOM     28  C   UNL     1      50.883   7.642  16.924  0.00  0.00    +0.000 A 
ATOM     29  H   UNL     1      53.733   6.197  16.160  0.00  0.00    +0.000 HD
ENDBRANCH  16  19
ENDBRANCH   1  15
BRANCH   1  30
ATOM     30  C   UNL     1      48.155   3.369  16.029  0.00  0.00    +0.000 C 
BRANCH  30  31
ATOM     31  C   UNL     1      47.932   2.888  17.463  0.00  0.00    +0.000 C 
BRANCH  31  32
ATOM     32  N   UNL     1      46.508   2.797  17.761  0.00  0.00    +0.000 NA
ATOM     33  H   UNL     1      46.061   2.177  17.087  0.00  0.00    +0.000 HD
ATOM     34  H   UNL     1      46.076   3.714  17.642  0.00  0.00    +0.000 HD
ENDBRANCH  31  32
ENDBRANCH  30  31
ENDBRANCH   1  30
TORSDOF 8
ENDMDL
MODEL 9
REMARK VINA RESULT:    -6.643      3.158      7.752
REMARK INTER + INTRA:         -10.735
REMARK INTER:                  -9.299
REMARK INTRA:                  -1.436
REMARK UNBOUND:                -1.179
REMARK  Name = 
REMARK  8 active torsions:
REMARK  status: ('A' for Active; 'I' for Inactive)
REMARK    1  A    between atoms: N_1  and  C_2
REMARK    2  A    between atoms: C_2  and  C_3
REMARK    3  A    between atoms: C_3  and  C_4
REMARK    4  A    between atoms: C_4  and  N_5
REMARK    5  A    between atoms: C_4  and  C_18
REMARK    6  A    between atoms: C_6  and  C_8
REMARK    7  A    between atoms: C_21  and  C_22
REMARK    8  A    between atoms: C_22  and  C_23
REMARK                            x       y       z     vdW  Elec       q    Type
REMARK                         _______ _______ _______ _____ _____    ______ ____
ROOT
ATOM      1  C   UNL     1      47.903   7.447  13.126  0.00  0.00    +0.000 C 
ENDROOT
BRANCH   1   2
ATOM      2  C   UNL     1      48.579   6.778  14.323  0.00  0.00    +0.000 A 
ATOM      3  C   UNL     1      47.896   5.768  15.018  0.00  0.00    +0.000 A 
ATOM      4  C   UNL     1      48.393   5.258  16.218  0.00  0.00    +0.000 A 
ATOM      5  C   UNL     1      49.619   5.701  16.732  0.00  0.00    +0.000 A 
ATOM      6  C   UNL     1      50.342   6.657  16.007  0.00  0.00    +0.000 A 
ATOM      7  C   UNL     1      49.819   7.206  14.830  0.00  0.00    +0.000 A 
BRANCH   5   8
ATOM      8  C   UNL     1      50.122   5.195  18.066  0.00  0.00    +0.000 C 
BRANCH   8   9
ATOM      9  C   UNL     1      50.904   3.900  18.040  0.00  0.00    +0.000 A 
ATOM     10  C   UNL     1      52.242   3.857  18.433  0.00  0.00    +0.000 A 
ATOM     11  C   UNL     1      52.957   2.672  18.280  0.00  0.00    +0.000 A 
ATOM     12  C   UNL     1      52.327   1.562  17.737  0.00  0.00    +0.000 A 
ATOM     13  C   UNL     1      50.996   1.680  17.379  0.00  0.00    +0.000 A 
ATOM     14  N   UNL     1      50.276   2.817  17.516  0.00  0.00    +0.000 NA
ENDBRANCH   8   9
ENDBRANCH   5   8
ENDBRANCH   1   2
BRANCH   1  15
ATOM     15  N   UNL     1      47.275   6.458  12.258  0.00  0.00    +0.000 N 
ATOM     16  C   UNL     1      46.055   6.646  11.657  0.00  0.00    +0.000 C 
ATOM     17  O   UNL     1      45.418   7.692  11.737  0.00  0.00    +0.000 OA
ATOM     18  H   UNL     1      47.595   5.505  12.382  0.00  0.00    +0.000 HD
BRANCH  16  19
ATOM     19  C   UNL     1      45.561   5.521  10.850  0.00  0.00    +0.000 A 
ATOM     20  C   UNL     1      45.702   5.534   9.471  0.00  0.00    +0.000 A 
ATOM     21  S   UNL     1      45.057   4.150   8.707  0.00  0.00    +0.000 S 
ATOM     22  C   UNL     1      44.526   3.509  10.194  0.00  0.00    +0.000 A 
ATOM     23  N   UNL     1      43.838   2.335  10.250  0.00  0.00    +0.000 NA
ATOM     24  C   UNL     1      43.470   1.996  11.438  0.00  0.00    +0.000 A 
ATOM     25  N   UNL     1      43.742   2.704  12.580  0.00  0.00    +0.000 N 
ATOM     26  C   UNL     1      44.483   3.861  12.578  0.00  0.00    +0.000 A 
ATOM     27  O   UNL     1      44.793   4.421  13.623  0.00  0.00    +0.000 OA
ATOM     28  C   UNL     1      44.879   4.317  11.258  0.00  0.00    +0.000 A 
ATOM     29  H   UNL     1      43.455   2.366  13.485  0.00  0.00    +0.000 HD
ENDBRANCH  16  19
ENDBRANCH   1  15
BRANCH   1  30
ATOM     30  C   UNL     1      48.907   8.329  12.345  0.00  0.00    +0.000 C 
BRANCH  30  31
ATOM     31  C   UNL     1      48.617   9.827  12.447  0.00  0.00    +0.000 C 
BRANCH  31  32
ATOM     32  N   UNL     1      47.351  10.152  11.801  0.00  0.00    +0.000 NA
ATOM     33  H   UNL     1      47.084  11.106  12.041  0.00  0.00    +0.000 HD
ATOM     34  H   UNL     1      46.616   9.545  12.167  0.00  0.00    +0.000 HD
ENDBRANCH  31  32
ENDBRANCH  30  31
ENDBRANCH   1  30
TORSDOF 8
ENDMDL
