MODEL 1
REMARK VINA RESULT:    -8.032      0.000      0.000
REMARK INTER + INTRA:         -13.326
REMARK INTER:                 -11.788
REMARK INTRA:                  -1.538
REMARK UNBOUND:                -1.538
REMARK  Name = 
REMARK  10 active torsions:
REMARK  status: ('A' for Active; 'I' for Inactive)
REMARK    1  A    between atoms: C_1  and  C_2
REMARK    2  A    between atoms: C_2  and  C_3
REMARK    3  A    between atoms: C_3  and  N_4
REMARK    4  A    between atoms: C_3  and  C_18
REMARK    5  A    between atoms: C_5  and  C_7
REMARK    6  A    between atoms: N_13  and  C_14
REMARK    7  A    between atoms: C_21  and  C_22
REMARK    8  A    between atoms: C_22  and  N_23
REMARK    9  A    between atoms: N_23  and  C_24
REMARK   10  A    between atoms: C_24  and  C_25
REMARK                            x       y       z     vdW  Elec       q    Type
REMARK                         _______ _______ _______ _____ _____    ______ ____
ROOT
ATOM      1  C   UNL     1      47.247   7.671  13.181  0.00  0.00    +0.000 C 
ENDROOT
BRANCH   1   2
ATOM      2  C   UNL     1      46.314   6.598  12.622  0.00  0.00    +0.000 A 
ATOM      3  C   UNL     1      46.442   5.275  13.040  0.00  0.00    +0.000 A 
ATOM      4  C   UNL     1      45.557   4.323  12.539  0.00  0.00    +0.000 A 
ATOM      5  C   UNL     1      44.567   4.697  11.626  0.00  0.00    +0.000 A 
ATOM      6  C   UNL     1      44.541   6.027  11.235  0.00  0.00    +0.000 A 
ATOM      7  N   UNL     1      45.387   6.972  11.701  0.00  0.00    +0.000 NA
BRANCH   5   8
ATOM      8  C   UNL     1      43.570   3.709  11.086  0.00  0.00    +0.000 C 
BRANCH   8   9
ATOM      9  N   UNL     1      43.824   3.437   9.676  0.00  0.00    +0.000 NA
ATOM     10  H   UNL     1      44.464   4.142   9.303  0.00  0.00    +0.000 HD
BRANCH   9  11
ATOM     11  C   UNL     1      44.455   2.129   9.482  0.00  0.00    +0.000 C 
BRANCH  11  12
ATOM     12  C   UNL     1      45.527   2.206   8.413  0.00  0.00    +0.000 A 
ATOM     13  C   UNL     1      45.743   3.398   7.724  0.00  0.00    +0.000 A 
ATOM     14  C   UNL     1      46.770   3.458   6.789  0.00  0.00    +0.000 A 
ATOM     15  C   UNL     1      47.562   2.336   6.577  0.00  0.00    +0.000 A 
ATOM     16  C   UNL     1      47.292   1.195   7.315  0.00  0.00    +0.000 A 
ATOM     17  N   UNL     1      46.297   1.103   8.224  0.00  0.00    +0.000 NA
ENDBRANCH  11  12
ENDBRANCH   9  11
ENDBRANCH   8   9
ENDBRANCH   5   8
ENDBRANCH   1   2
BRANCH   1  18
ATOM     18  N   UNL     1      48.272   7.069  14.017  0.00  0.00    +0.000 N 
ATOM     19  C   UNL     1      48.730   7.651  15.170  0.00  0.00    +0.000 C 
ATOM     20  O   UNL     1      48.393   8.780  15.515  0.00  0.00    +0.000 OA
ATOM     21  H   UNL     1      48.370   6.065  13.905  0.00  0.00    +0.000 HD
BRANCH  19  22
ATOM     22  C   UNL     1      49.698   6.871  15.951  0.00  0.00    +0.000 A 
ATOM     23  C   UNL     1      50.991   7.346  16.129  0.00  0.00    +0.000 A 
ATOM     24  S   UNL     1      51.968   6.324  17.084  0.00  0.00    +0.000 S 
ATOM     25  C   UNL     1      50.689   5.225  17.312  0.00  0.00    +0.000 A 
ATOM     26  N   UNL     1      50.848   4.121  18.085  0.00  0.00    +0.000 NA
ATOM     27  C   UNL     1      49.787   3.380  18.186  0.00  0.00    +0.000 A 
ATOM     28  N   UNL     1      48.578   3.631  17.577  0.00  0.00    +0.000 N 
ATOM     29  C   UNL     1      47.463   2.724  17.726  0.00  0.00    +0.000 C 
ATOM     30  C   UNL     1      48.400   4.726  16.740  0.00  0.00    +0.000 A 
ATOM     31  O   UNL     1      47.366   4.912  16.109  0.00  0.00    +0.000 OA
ATOM     32  C   UNL     1      49.548   5.608  16.638  0.00  0.00    +0.000 A 
ENDBRANCH  19  22
ENDBRANCH   1  18
BRANCH   1  34
ATOM     33  C   UNL     1      49.102   7.793  11.414  0.00  0.00    +0.000 C 
ATOM     34  C   UNL     1      47.890   8.476  12.031  0.00  0.00    +0.000 C 
ENDBRANCH   1  34
TORSDOF 8
ENDMDL
MODEL 2
REMARK VINA RESULT:    -7.814      2.684      3.649
REMARK INTER + INTRA:         -13.007
REMARK INTER:                 -11.579
REMARK INTRA:                  -1.429
REMARK UNBOUND:                -1.538
REMARK  Name = 
REMARK  10 active torsions:
REMARK  status: ('A' for Active; 'I' for Inactive)
REMARK    1  A    between atoms: C_1  and  C_2
REMARK    2  A    between atoms: C_2  and  C_3
REMARK    3  A    between atoms: C_3  and  N_4
REMARK    4  A    between atoms: C_3  and  C_18
REMARK    5  A    between atoms: C_5  and  C_7
REMARK    6  A    between atoms: N_13  and  C_14
REMARK    7  A    between atoms: C_21  and  C_22
REMARK    8  A    between atoms: C_22  and  N_23
REMARK    9  A    between atoms: N_23  and  C_24
REMARK   10  A    between atoms: C_24  and  C_25
REMARK                            x       y       z     vdW  Elec       q    Type
REMARK                         _______ _______ _______ _____ _____    ______ ____
ROOT
ATOM      1  C   UNL     1      47.593   5.065  14.734  0.00  0.00    +0.000 C 
ENDROOT
BRANCH   1   2
ATOM      2  C   UNL     1      46.544   5.068  13.623  0.00  0.00    +0.000 A 
ATOM      3  C   UNL     1      46.717   5.874  12.501  0.00  0.00    +0.000 A 
ATOM      4  C   UNL     1      45.761   5.833  11.488  0.00  0.00    +0.000 A 
ATOM      5  C   UNL     1      44.646   4.999  11.610  0.00  0.00    +0.000 A 
ATOM      6  C   UNL     1      44.535   4.263  12.780  0.00  0.00    +0.000 A 
ATOM      7  N   UNL     1      45.443   4.285  13.781  0.00  0.00    +0.000 NA
BRANCH   5   8
ATOM      8  C   UNL     1      43.608   4.897  10.527  0.00  0.00    +0.000 C 
BRANCH   8   9
ATOM      9  N   UNL     1      44.194   4.380   9.295  0.00  0.00    +0.000 NA
ATOM     10  H   UNL     1      45.076   4.863   9.109  0.00  0.00    +0.000 HD
BRANCH   9  11
ATOM     11  C   UNL     1      44.494   2.949   9.398  0.00  0.00    +0.000 C 
BRANCH  11  12
ATOM     12  C   UNL     1      45.516   2.541   8.356  0.00  0.00    +0.000 A 
ATOM     13  C   UNL     1      45.964   3.467   7.416  0.00  0.00    +0.000 A 
ATOM     14  C   UNL     1      46.944   3.082   6.507  0.00  0.00    +0.000 A 
ATOM     15  C   UNL     1      47.460   1.794   6.570  0.00  0.00    +0.000 A 
ATOM     16  C   UNL     1      46.973   0.940   7.545  0.00  0.00    +0.000 A 
ATOM     17  N   UNL     1      46.016   1.281   8.436  0.00  0.00    +0.000 NA
ENDBRANCH  11  12
ENDBRANCH   9  11
ENDBRANCH   8   9
ENDBRANCH   5   8
ENDBRANCH   1   2
BRANCH   1  18
ATOM     18  N   UNL     1      47.749   6.400  15.288  0.00  0.00    +0.000 N 
ATOM     19  C   UNL     1      48.910   7.119  15.182  0.00  0.00    +0.000 C 
ATOM     20  O   UNL     1      49.941   6.640  14.716  0.00  0.00    +0.000 OA
ATOM     21  H   UNL     1      46.878   6.899  15.437  0.00  0.00    +0.000 HD
BRANCH  19  22
ATOM     22  C   UNL     1      48.877   8.488  15.713  0.00  0.00    +0.000 A 
ATOM     23  C   UNL     1      49.181   9.561  14.886  0.00  0.00    +0.000 A 
ATOM     24  S   UNL     1      49.065  11.075  15.662  0.00  0.00    +0.000 S 
ATOM     25  C   UNL     1      48.579  10.350  17.123  0.00  0.00    +0.000 A 
ATOM     26  N   UNL     1      48.273  11.104  18.208  0.00  0.00    +0.000 NA
ATOM     27  C   UNL     1      47.901  10.422  19.248  0.00  0.00    +0.000 A 
ATOM     28  N   UNL     1      47.816   9.049  19.312  0.00  0.00    +0.000 N 
ATOM     29  C   UNL     1      47.422   8.380  20.531  0.00  0.00    +0.000 C 
ATOM     30  C   UNL     1      48.170   8.248  18.233  0.00  0.00    +0.000 A 
ATOM     31  O   UNL     1      48.199   7.025  18.302  0.00  0.00    +0.000 OA
ATOM     32  C   UNL     1      48.546   8.974  17.034  0.00  0.00    +0.000 A 
ENDBRANCH  19  22
ENDBRANCH   1  18
BRANCH   1  34
ATOM     33  C   UNL     1      48.329   3.763  16.817  0.00  0.00    +0.000 C 
ATOM     34  C   UNL     1      47.202   4.062  15.840  0.00  0.00    +0.000 C 
ENDBRANCH   1  34
TORSDOF 8
ENDMDL
MODEL 3
REMARK VINA RESULT:    -7.781      0.865      1.279
REMARK INTER + INTRA:         -12.959
REMARK INTER:                 -11.516
REMARK INTRA:                  -1.443
REMARK UNBOUND:                -1.538
REMARK  Name = 
REMARK  10 active torsions:
REMARK  status: ('A' for Active; 'I' for Inactive)
REMARK    1  A    between atoms: C_1  and  C_2
REMARK    2  A    between atoms: C_2  and  C_3
REMARK    3  A    between atoms: C_3  and  N_4
REMARK    4  A    between atoms: C_3  and  C_18
REMARK    5  A    between atoms: C_5  and  C_7
REMARK    6  A    between atoms: N_13  and  C_14
REMARK    7  A    between atoms: C_21  and  C_22
REMARK    8  A    between atoms: C_22  and  N_23
REMARK    9  A    between atoms: N_23  and  C_24
REMARK   10  A    between atoms: C_24  and  C_25
REMARK                            x       y       z     vdW  Elec       q    Type
REMARK                         _______ _______ _______ _____ _____    ______ ____
ROOT
ATOM      1  C   UNL     1      46.987   7.639  13.260  0.00  0.00    +0.000 C 
ENDROOT
BRANCH   1   2
ATOM      2  C   UNL     1      46.069   6.505  12.805  0.00  0.00    +0.000 A 
ATOM      3  C   UNL     1      44.855   6.794  12.186  0.00  0.00    +0.000 A 
ATOM      4  C   UNL     1      44.053   5.741  11.753  0.00  0.00    +0.000 A 
ATOM      5  C   UNL     1      44.465   4.419  11.948  0.00  0.00    +0.000 A 
ATOM      6  C   UNL     1      45.667   4.226  12.611  0.00  0.00    +0.000 A 
ATOM      7  N   UNL     1      46.464   5.227  13.046  0.00  0.00    +0.000 NA
BRANCH   5   8
ATOM      8  C   UNL     1      43.646   3.253  11.466  0.00  0.00    +0.000 C 
BRANCH   8   9
ATOM      9  N   UNL     1      44.313   2.577  10.359  0.00  0.00    +0.000 NA
ATOM     10  H   UNL     1      43.757   1.767  10.070  0.00  0.00    +0.000 HD
BRANCH   9  11
ATOM     11  C   UNL     1      44.446   3.452   9.191  0.00  0.00    +0.000 C 
BRANCH  11  12
ATOM     12  C   UNL     1      45.509   2.927   8.247  0.00  0.00    +0.000 A 
ATOM     13  C   UNL     1      45.985   1.624   8.386  0.00  0.00    +0.000 A 
ATOM     14  C   UNL     1      46.919   1.149   7.472  0.00  0.00    +0.000 A 
ATOM     15  C   UNL     1      47.339   1.976   6.438  0.00  0.00    +0.000 A 
ATOM     16  C   UNL     1      46.804   3.251   6.361  0.00  0.00    +0.000 A 
ATOM     17  N   UNL     1      45.903   3.745   7.237  0.00  0.00    +0.000 NA
ENDBRANCH  11  12
ENDBRANCH   9  11
ENDBRANCH   8   9
ENDBRANCH   5   8
ENDBRANCH   1   2
BRANCH   1  18
ATOM     18  N   UNL     1      48.103   7.113  14.027  0.00  0.00    +0.000 N 
ATOM     19  C   UNL     1      48.650   7.773  15.095  0.00  0.00    +0.000 C 
ATOM     20  O   UNL     1      48.314   8.913  15.407  0.00  0.00    +0.000 OA
ATOM     21  H   UNL     1      48.221   6.107  13.963  0.00  0.00    +0.000 HD
BRANCH  19  22
ATOM     22  C   UNL     1      49.711   7.065  15.823  0.00  0.00    +0.000 A 
ATOM     23  C   UNL     1      50.989   7.605  15.888  0.00  0.00    +0.000 A 
ATOM     24  S   UNL     1      52.083   6.662  16.795  0.00  0.00    +0.000 S 
ATOM     25  C   UNL     1      50.880   5.513  17.153  0.00  0.00    +0.000 A 
ATOM     26  N   UNL     1      51.149   4.444  17.944  0.00  0.00    +0.000 NA
ATOM     27  C   UNL     1      50.136   3.659  18.148  0.00  0.00    +0.000 A 
ATOM     28  N   UNL     1      48.875   3.834  17.625  0.00  0.00    +0.000 N 
ATOM     29  C   UNL     1      47.818   2.881  17.886  0.00  0.00    +0.000 C 
ATOM     30  C   UNL     1      48.581   4.891  16.773  0.00  0.00    +0.000 A 
ATOM     31  O   UNL     1      47.495   5.008  16.217  0.00  0.00    +0.000 OA
ATOM     32  C   UNL     1      49.674   5.820  16.557  0.00  0.00    +0.000 A 
ENDBRANCH  19  22
ENDBRANCH   1  18
BRANCH   1  34
ATOM     33  C   UNL     1      48.753   7.857  11.413  0.00  0.00    +0.000 C 
ATOM     34  C   UNL     1      47.496   8.440  12.042  0.00  0.00    +0.000 C 
ENDBRANCH   1  34
TORSDOF 8
ENDMDL
MODEL 4
REMARK VINA RESULT:    -7.313      1.674      2.781
REMARK INTER + INTRA:         -12.271
REMARK INTER:                 -10.977
REMARK INTRA:                  -1.294
REMARK UNBOUND:                -1.538
REMARK  Name = 
REMARK  10 active torsions:
REMARK  status: ('A' for Active; 'I' for Inactive)
REMARK    1  A    between atoms: C_1  and  C_2
REMARK    2  A    between atoms: C_2  and  C_3
REMARK    3  A    between atoms: C_3  and  N_4
REMARK    4  A    between atoms: C_3  and  C_18
REMARK    5  A    between atoms: C_5  and  C_7
REMARK    6  A    between atoms: N_13  and  C_14
REMARK    7  A    between atoms: C_21  and  C_22
REMARK    8  A    between atoms: C_22  and  N_23
REMARK    9  A    between atoms: N_23  and  C_24
REMARK   10  A    between atoms: C_24  and  C_25
REMARK                            x       y       z     vdW  Elec       q    Type
REMARK                         _______ _______ _______ _____ _____    ______ ____
ROOT
ATOM      1  C   UNL     1      48.150   7.639  13.271  0.00  0.00    +0.000 C 
ENDROOT
BRANCH   1   2
ATOM      2  C   UNL     1      47.084   6.683  12.736  0.00  0.00    +0.000 A 
ATOM      3  C   UNL     1      46.205   7.104  11.741  0.00  0.00    +0.000 A 
ATOM      4  C   UNL     1      45.264   6.203  11.249  0.00  0.00    +0.000 A 
ATOM      5  C   UNL     1      45.206   4.902  11.758  0.00  0.00    +0.000 A 
ATOM      6  C   UNL     1      46.091   4.585  12.777  0.00  0.00    +0.000 A 
ATOM      7  N   UNL     1      47.012   5.438  13.277  0.00  0.00    +0.000 NA
BRANCH   5   8
ATOM      8  C   UNL     1      44.229   3.886  11.233  0.00  0.00    +0.000 C 
BRANCH   8   9
ATOM      9  N   UNL     1      44.925   2.687  10.780  0.00  0.00    +0.000 NA
ATOM     10  H   UNL     1      44.780   1.933  11.456  0.00  0.00    +0.000 HD
BRANCH   9  11
ATOM     11  C   UNL     1      44.411   2.218   9.490  0.00  0.00    +0.000 C 
BRANCH  11  12
ATOM     12  C   UNL     1      45.507   2.229   8.443  0.00  0.00    +0.000 A 
ATOM     13  C   UNL     1      45.815   3.408   7.766  0.00  0.00    +0.000 A 
ATOM     14  C   UNL     1      46.863   3.404   6.851  0.00  0.00    +0.000 A 
ATOM     15  C   UNL     1      47.583   2.233   6.649  0.00  0.00    +0.000 A 
ATOM     16  C   UNL     1      47.223   1.109   7.374  0.00  0.00    +0.000 A 
ATOM     17  N   UNL     1      46.206   1.079   8.263  0.00  0.00    +0.000 NA
ENDBRANCH  11  12
ENDBRANCH   9  11
ENDBRANCH   8   9
ENDBRANCH   5   8
ENDBRANCH   1   2
BRANCH   1  18
ATOM     18  N   UNL     1      48.975   6.975  14.266  0.00  0.00    +0.000 N 
ATOM     19  C   UNL     1      48.987   7.337  15.587  0.00  0.00    +0.000 C 
ATOM     20  O   UNL     1      48.390   8.327  16.003  0.00  0.00    +0.000 OA
ATOM     21  H   UNL     1      49.260   6.033  14.016  0.00  0.00    +0.000 HD
BRANCH  19  22
ATOM     22  C   UNL     1      49.803   6.506  16.481  0.00  0.00    +0.000 A 
ATOM     23  C   UNL     1      49.192   5.713  17.444  0.00  0.00    +0.000 A 
ATOM     24  S   UNL     1      50.291   4.797  18.372  0.00  0.00    +0.000 S 
ATOM     25  C   UNL     1      51.620   5.409  17.502  0.00  0.00    +0.000 A 
ATOM     26  N   UNL     1      52.882   4.991  17.771  0.00  0.00    +0.000 NA
ATOM     27  C   UNL     1      53.795   5.526  17.020  0.00  0.00    +0.000 A 
ATOM     28  N   UNL     1      53.569   6.453  16.027  0.00  0.00    +0.000 N 
ATOM     29  C   UNL     1      54.662   7.016  15.266  0.00  0.00    +0.000 C 
ATOM     30  C   UNL     1      52.294   6.937  15.762  0.00  0.00    +0.000 A 
ATOM     31  O   UNL     1      52.084   7.834  14.953  0.00  0.00    +0.000 OA
ATOM     32  C   UNL     1      51.236   6.328  16.547  0.00  0.00    +0.000 A 
ENDBRANCH  19  22
ENDBRANCH   1  18
BRANCH   1  34
ATOM     33  C   UNL     1      48.762   9.638  11.785  0.00  0.00    +0.000 C 
ATOM     34  C   UNL     1      49.021   8.175  12.115  0.00  0.00    +0.000 C 
ENDBRANCH   1  34
TORSDOF 8
ENDMDL
MODEL 5
REMARK VINA RESULT:    -7.258      2.490      4.279
REMARK INTER + INTRA:         -12.191
REMARK INTER:                 -11.218
REMARK INTRA:                  -0.973
REMARK UNBOUND:                -1.538
REMARK  Name = 
REMARK  10 active torsions:
REMARK  status: ('A' for Active; 'I' for Inactive)
REMARK    1  A    between atoms: C_1  and  C_2
REMARK    2  A    between atoms: C_2  and  C_3
REMARK    3  A    between atoms: C_3  and  N_4
REMARK    4  A    between atoms: C_3  and  C_18
REMARK    5  A    between atoms: C_5  and  C_7
REMARK    6  A    between atoms: N_13  and  C_14
REMARK    7  A    between atoms: C_21  and  C_22
REMARK    8  A    between atoms: C_22  and  N_23
REMARK    9  A    between atoms: N_23  and  C_24
REMARK   10  A    between atoms: C_24  and  C_25
REMARK                            x       y       z     vdW  Elec       q    Type
REMARK                         _______ _______ _______ _____ _____    ______ ____
ROOT
ATOM      1  C   UNL     1      47.582   5.046  14.875  0.00  0.00    +0.000 C 
ENDROOT
BRANCH   1   2
ATOM      2  C   UNL     1      46.563   5.047  13.735  0.00  0.00    +0.000 A 
ATOM      3  C   UNL     1      46.569   6.074  12.795  0.00  0.00    +0.000 A 
ATOM      4  C   UNL     1      45.650   6.034  11.748  0.00  0.00    +0.000 A 
ATOM      5  C   UNL     1      44.735   4.980  11.659  0.00  0.00    +0.000 A 
ATOM      6  C   UNL     1      44.774   4.025  12.663  0.00  0.00    +0.000 A 
ATOM      7  N   UNL     1      45.651   4.039  13.691  0.00  0.00    +0.000 NA
BRANCH   5   8
ATOM      8  C   UNL     1      43.749   4.879  10.528  0.00  0.00    +0.000 C 
BRANCH   8   9
ATOM      9  N   UNL     1      44.407   4.431   9.306  0.00  0.00    +0.000 NA
ATOM     10  H   UNL     1      45.352   4.821   9.266  0.00  0.00    +0.000 HD
BRANCH   9  11
ATOM     11  C   UNL     1      44.536   2.972   9.264  0.00  0.00    +0.000 C 
BRANCH  11  12
ATOM     12  C   UNL     1      45.563   2.555   8.230  0.00  0.00    +0.000 A 
ATOM     13  C   UNL     1      45.984   3.462   7.259  0.00  0.00    +0.000 A 
ATOM     14  C   UNL     1      46.969   3.072   6.358  0.00  0.00    +0.000 A 
ATOM     15  C   UNL     1      47.517   1.799   6.458  0.00  0.00    +0.000 A 
ATOM     16  C   UNL     1      47.054   0.965   7.463  0.00  0.00    +0.000 A 
ATOM     17  N   UNL     1      46.094   1.311   8.348  0.00  0.00    +0.000 NA
ENDBRANCH  11  12
ENDBRANCH   9  11
ENDBRANCH   8   9
ENDBRANCH   5   8
ENDBRANCH   1   2
BRANCH   1  18
ATOM     18  N   UNL     1      47.859   6.404  15.310  0.00  0.00    +0.000 N 
ATOM     19  C   UNL     1      49.083   6.801  15.780  0.00  0.00    +0.000 C 
ATOM     20  O   UNL     1      50.000   6.008  15.980  0.00  0.00    +0.000 OA
ATOM     21  H   UNL     1      47.233   7.105  14.927  0.00  0.00    +0.000 HD
BRANCH  19  22
ATOM     22  C   UNL     1      49.228   8.228  16.091  0.00  0.00    +0.000 A 
ATOM     23  C   UNL     1      48.305   8.858  16.915  0.00  0.00    +0.000 A 
ATOM     24  S   UNL     1      48.645  10.506  17.189  0.00  0.00    +0.000 S 
ATOM     25  C   UNL     1      50.053  10.429  16.236  0.00  0.00    +0.000 A 
ATOM     26  N   UNL     1      50.854  11.514  16.085  0.00  0.00    +0.000 NA
ATOM     27  C   UNL     1      51.901  11.309  15.347  0.00  0.00    +0.000 A 
ATOM     28  N   UNL     1      52.222  10.120  14.732  0.00  0.00    +0.000 N 
ATOM     29  C   UNL     1      53.399  10.002  13.900  0.00  0.00    +0.000 C 
ATOM     30  C   UNL     1      51.398   9.006  14.827  0.00  0.00    +0.000 A 
ATOM     31  O   UNL     1      51.612   7.971  14.207  0.00  0.00    +0.000 OA
ATOM     32  C   UNL     1      50.238   9.179  15.684  0.00  0.00    +0.000 A 
ENDBRANCH  19  22
ENDBRANCH   1  18
BRANCH   1  34
ATOM     33  C   UNL     1      48.048   3.118  16.501  0.00  0.00    +0.000 C 
ATOM     34  C   UNL     1      47.068   4.193  16.054  0.00  0.00    +0.000 C 
ENDBRANCH   1  34
TORSDOF 8
ENDMDL
MODEL 6
REMARK VINA RESULT:    -6.620      2.635      5.231
REMARK INTER + INTRA:         -11.255
REMARK INTER:                 -10.151
REMARK INTRA:                  -1.104
REMARK UNBOUND:                -1.538
REMARK  Name = 
REMARK  10 active torsions:
REMARK  status: ('A' for Active; 'I' for Inactive)
REMARK    1  A    between atoms: C_1  and  C_2
REMARK    2  A    between atoms: C_2  and  C_3
REMARK    3  A    between atoms: C_3  and  N_4
REMARK    4  A    between atoms: C_3  and  C_18
REMARK    5  A    between atoms: C_5  and  C_7
REMARK    6  A    between atoms: N_13  and  C_14
REMARK    7  A    between atoms: C_21  and  C_22
REMARK    8  A    between atoms: C_22  and  N_23
REMARK    9  A    between atoms: N_23  and  C_24
REMARK   10  A    between atoms: C_24  and  C_25
REMARK                            x       y       z     vdW  Elec       q    Type
REMARK                         _______ _______ _______ _____ _____    ______ ____
ROOT
ATOM      1  C   UNL     1      48.120   3.881  17.996  0.00  0.00    +0.000 C 
ENDROOT
BRANCH   1   2
ATOM      2  C   UNL     1      47.875   4.503  16.622  0.00  0.00    +0.000 A 
ATOM      3  C   UNL     1      48.520   5.685  16.266  0.00  0.00    +0.000 A 
ATOM      4  C   UNL     1      48.304   6.213  14.995  0.00  0.00    +0.000 A 
ATOM      5  C   UNL     1      47.445   5.564  14.103  0.00  0.00    +0.000 A 
ATOM      6  C   UNL     1      46.813   4.416  14.559  0.00  0.00    +0.000 A 
ATOM      7  N   UNL     1      47.000   3.883  15.786  0.00  0.00    +0.000 NA
BRANCH   5   8
ATOM      8  C   UNL     1      47.209   6.080  12.710  0.00  0.00    +0.000 C 
BRANCH   8   9
ATOM      9  N   UNL     1      45.781   6.123  12.410  0.00  0.00    +0.000 NA
ATOM     10  H   UNL     1      45.347   6.889  12.931  0.00  0.00    +0.000 HD
BRANCH   9  11
ATOM     11  C   UNL     1      45.535   6.369  10.987  0.00  0.00    +0.000 C 
BRANCH  11  12
ATOM     12  C   UNL     1      45.297   5.065  10.253  0.00  0.00    +0.000 A 
ATOM     13  C   UNL     1      44.641   4.013  10.891  0.00  0.00    +0.000 A 
ATOM     14  C   UNL     1      44.385   2.848  10.176  0.00  0.00    +0.000 A 
ATOM     15  C   UNL     1      44.774   2.769   8.844  0.00  0.00    +0.000 A 
ATOM     16  C   UNL     1      45.405   3.865   8.280  0.00  0.00    +0.000 A 
ATOM     17  N   UNL     1      45.675   5.007   8.950  0.00  0.00    +0.000 NA
ENDBRANCH  11  12
ENDBRANCH   9  11
ENDBRANCH   8   9
ENDBRANCH   5   8
ENDBRANCH   1   2
BRANCH   1  18
ATOM     18  N   UNL     1      49.505   3.460  18.125  0.00  0.00    +0.000 N 
ATOM     19  C   UNL     1      50.075   2.515  17.314  0.00  0.00    +0.000 C 
ATOM     20  O   UNL     1      49.423   1.869  16.498  0.00  0.00    +0.000 OA
ATOM     21  H   UNL     1      50.108   4.132  18.589  0.00  0.00    +0.000 HD
BRANCH  19  22
ATOM     22  C   UNL     1      51.509   2.270  17.510  0.00  0.00    +0.000 A 
ATOM     23  C   UNL     1      51.995   0.969  17.540  0.00  0.00    +0.000 A 
ATOM     24  S   UNL     1      53.685   0.876  17.749  0.00  0.00    +0.000 S 
ATOM     25  C   UNL     1      53.829   2.571  17.781  0.00  0.00    +0.000 A 
ATOM     26  N   UNL     1      55.043   3.166  17.896  0.00  0.00    +0.000 NA
ATOM     27  C   UNL     1      55.008   4.463  17.889  0.00  0.00    +0.000 A 
ATOM     28  N   UNL     1      53.868   5.229  17.788  0.00  0.00    +0.000 N 
ATOM     29  C   UNL     1      53.931   6.673  17.824  0.00  0.00    +0.000 C 
ATOM     30  C   UNL     1      52.607   4.649  17.719  0.00  0.00    +0.000 A 
ATOM     31  O   UNL     1      51.575   5.311  17.732  0.00  0.00    +0.000 OA
ATOM     32  C   UNL     1      52.605   3.198  17.676  0.00  0.00    +0.000 A 
ENDBRANCH  19  22
ENDBRANCH   1  18
BRANCH   1  34
ATOM     33  C   UNL     1      48.685   4.825  20.313  0.00  0.00    +0.000 C 
ATOM     34  C   UNL     1      47.752   4.882  19.113  0.00  0.00    +0.000 C 
ENDBRANCH   1  34
TORSDOF 8
ENDMDL
MODEL 7
REMARK VINA RESULT:    -6.191      2.988      4.993
REMARK INTER + INTRA:         -10.624
REMARK INTER:                  -9.966
REMARK INTRA:                  -0.658
REMARK UNBOUND:                -1.538
REMARK  Name = 
REMARK  10 active torsions:
REMARK  status: ('A' for Active; 'I' for Inactive)
REMARK    1  A    between atoms: C_1  and  C_2
REMARK    2  A    between atoms: C_2  and  C_3
REMARK    3  A    between atoms: C_3  and  N_4
REMARK    4  A    between atoms: C_3  and  C_18
REMARK    5  A    between atoms: C_5  and  C_7
REMARK    6  A    between atoms: N_13  and  C_14
REMARK    7  A    between atoms: C_21  and  C_22
REMARK    8  A    between atoms: C_22  and  N_23
REMARK    9  A    between atoms: N_23  and  C_24
REMARK   10  A    between atoms: C_24  and  C_25
REMARK                            x       y       z     vdW  Elec       q    Type
REMARK                         _______ _______ _______ _____ _____    ______ ____
ROOT
ATOM      1  C   UNL     1      48.232   4.311  17.761  0.00  0.00    +0.000 C 
ENDROOT
BRANCH   1   2
ATOM      2  C   UNL     1      47.946   4.876  16.369  0.00  0.00    +0.000 A 
ATOM      3  C   UNL     1      48.541   6.068  15.964  0.00  0.00    +0.000 A 
ATOM      4  C   UNL     1      48.289   6.543  14.679  0.00  0.00    +0.000 A 
ATOM      5  C   UNL     1      47.444   5.832  13.822  0.00  0.00    +0.000 A 
ATOM      6  C   UNL     1      46.862   4.678  14.325  0.00  0.00    +0.000 A 
ATOM      7  N   UNL     1      47.085   4.195  15.567  0.00  0.00    +0.000 NA
BRANCH   5   8
ATOM      8  C   UNL     1      47.170   6.290  12.416  0.00  0.00    +0.000 C 
BRANCH   8   9
ATOM      9  N   UNL     1      45.884   5.783  11.948  0.00  0.00    +0.000 NA
ATOM     10  H   UNL     1      45.129   6.248  12.458  0.00  0.00    +0.000 HD
BRANCH   9  11
ATOM     11  C   UNL     1      45.681   6.058  10.523  0.00  0.00    +0.000 C 
BRANCH  11  12
ATOM     12  C   UNL     1      45.410   4.774   9.765  0.00  0.00    +0.000 A 
ATOM     13  C   UNL     1      44.715   3.733  10.378  0.00  0.00    +0.000 A 
ATOM     14  C   UNL     1      44.430   2.589   9.642  0.00  0.00    +0.000 A 
ATOM     15  C   UNL     1      44.830   2.519   8.313  0.00  0.00    +0.000 A 
ATOM     16  C   UNL     1      45.501   3.604   7.774  0.00  0.00    +0.000 A 
ATOM     17  N   UNL     1      45.800   4.725   8.465  0.00  0.00    +0.000 NA
ENDBRANCH  11  12
ENDBRANCH   9  11
ENDBRANCH   8   9
ENDBRANCH   5   8
ENDBRANCH   1   2
BRANCH   1  18
ATOM     18  N   UNL     1      49.663   4.270  18.008  0.00  0.00    +0.000 N 
ATOM     19  C   UNL     1      50.498   3.367  17.404  0.00  0.00    +0.000 C 
ATOM     20  O   UNL     1      50.079   2.451  16.702  0.00  0.00    +0.000 OA
ATOM     21  H   UNL     1      50.055   5.138  18.359  0.00  0.00    +0.000 HD
BRANCH  19  22
ATOM     22  C   UNL     1      51.931   3.517  17.688  0.00  0.00    +0.000 A 
ATOM     23  C   UNL     1      52.503   4.782  17.730  0.00  0.00    +0.000 A 
ATOM     24  S   UNL     1      54.168   4.767  18.099  0.00  0.00    +0.000 S 
ATOM     25  C   UNL     1      54.176   3.071  18.241  0.00  0.00    +0.000 A 
ATOM     26  N   UNL     1      55.307   2.405  18.586  0.00  0.00    +0.000 NA
ATOM     27  C   UNL     1      55.166   1.118  18.674  0.00  0.00    +0.000 A 
ATOM     28  N   UNL     1      53.999   0.426  18.437  0.00  0.00    +0.000 N 
ATOM     29  C   UNL     1      53.953  -1.016  18.529  0.00  0.00    +0.000 C 
ATOM     30  C   UNL     1      52.838   1.075  18.034  0.00  0.00    +0.000 A 
ATOM     31  O   UNL     1      51.820   0.470  17.721  0.00  0.00    +0.000 OA
ATOM     32  C   UNL     1      52.940   2.521  17.970  0.00  0.00    +0.000 A 
ENDBRANCH  19  22
ENDBRANCH   1  18
BRANCH   1  34
ATOM     33  C   UNL     1      48.475   5.854  19.795  0.00  0.00    +0.000 C 
ATOM     34  C   UNL     1      47.519   5.154  18.840  0.00  0.00    +0.000 C 
ENDBRANCH   1  34
TORSDOF 8
ENDMDL
MODEL 8
REMARK VINA RESULT:    -5.932      2.349      3.102
REMARK INTER + INTRA:         -10.245
REMARK INTER:                  -9.252
REMARK INTRA:                  -0.993
REMARK UNBOUND:                -1.538
REMARK  Name = 
REMARK  10 active torsions:
REMARK  status: ('A' for Active; 'I' for Inactive)
REMARK    1  A    between atoms: C_1  and  C_2
REMARK    2  A    between atoms: C_2  and  C_3
REMARK    3  A    between atoms: C_3  and  N_4
REMARK    4  A    between atoms: C_3  and  C_18
REMARK    5  A    between atoms: C_5  and  C_7
REMARK    6  A    between atoms: N_13  and  C_14
REMARK    7  A    between atoms: C_21  and  C_22
REMARK    8  A    between atoms: C_22  and  N_23
REMARK    9  A    between atoms: N_23  and  C_24
REMARK   10  A    between atoms: C_24  and  C_25
REMARK                            x       y       z     vdW  Elec       q    Type
REMARK                         _______ _______ _______ _____ _____    ______ ____
ROOT
ATOM      1  C   UNL     1      48.298   8.550  14.818  0.00  0.00    +0.000 C 
ENDROOT
BRANCH   1   2
ATOM      2  C   UNL     1      47.575   7.596  13.867  0.00  0.00    +0.000 A 
ATOM      3  C   UNL     1      46.989   8.083  12.702  0.00  0.00    +0.000 A 
ATOM      4  C   UNL     1      46.365   7.186  11.837  0.00  0.00    +0.000 A 
ATOM      5  C   UNL     1      46.325   5.824  12.149  0.00  0.00    +0.000 A 
ATOM      6  C   UNL     1      46.897   5.436  13.351  0.00  0.00    +0.000 A 
ATOM      7  N   UNL     1      47.506   6.283  14.210  0.00  0.00    +0.000 NA
BRANCH   5   8
ATOM      8  C   UNL     1      45.692   4.817  11.229  0.00  0.00    +0.000 C 
BRANCH   8   9
ATOM      9  N   UNL     1      44.467   5.351  10.643  0.00  0.00    +0.000 NA
ATOM     10  H   UNL     1      44.690   6.176  10.081  0.00  0.00    +0.000 HD
BRANCH   9  11
ATOM     11  C   UNL     1      43.824   4.380   9.754  0.00  0.00    +0.000 C 
BRANCH  11  12
ATOM     12  C   UNL     1      44.862   3.615   8.958  0.00  0.00    +0.000 A 
ATOM     13  C   UNL     1      45.027   2.246   9.158  0.00  0.00    +0.000 A 
ATOM     14  C   UNL     1      45.947   1.558   8.374  0.00  0.00    +0.000 A 
ATOM     15  C   UNL     1      46.663   2.248   7.404  0.00  0.00    +0.000 A 
ATOM     16  C   UNL     1      46.427   3.605   7.258  0.00  0.00    +0.000 A 
ATOM     17  N   UNL     1      45.547   4.302   8.008  0.00  0.00    +0.000 NA
ENDBRANCH  11  12
ENDBRANCH   9  11
ENDBRANCH   8   9
ENDBRANCH   5   8
ENDBRANCH   1   2
BRANCH   1  18
ATOM     18  N   UNL     1      48.422   7.956  16.138  0.00  0.00    +0.000 N 
ATOM     19  C   UNL     1      48.359   8.689  17.294  0.00  0.00    +0.000 C 
ATOM     20  O   UNL     1      48.315   9.917  17.293  0.00  0.00    +0.000 OA
ATOM     21  H   UNL     1      48.203   6.965  16.176  0.00  0.00    +0.000 HD
BRANCH  19  22
ATOM     22  C   UNL     1      48.407   7.928  18.549  0.00  0.00    +0.000 A 
ATOM     23  C   UNL     1      47.462   8.162  19.540  0.00  0.00    +0.000 A 
ATOM     24  S   UNL     1      47.654   7.170  20.914  0.00  0.00    +0.000 S 
ATOM     25  C   UNL     1      48.991   6.376  20.221  0.00  0.00    +0.000 A 
ATOM     26  N   UNL     1      49.616   5.364  20.873  0.00  0.00    +0.000 NA
ATOM     27  C   UNL     1      50.608   4.838  20.222  0.00  0.00    +0.000 A 
ATOM     28  N   UNL     1      51.045   5.236  18.978  0.00  0.00    +0.000 N 
ATOM     29  C   UNL     1      52.185   4.606  18.349  0.00  0.00    +0.000 C 
ATOM     30  C   UNL     1      50.457   6.301  18.307  0.00  0.00    +0.000 A 
ATOM     31  O   UNL     1      50.894   6.735  17.248  0.00  0.00    +0.000 OA
ATOM     32  C   UNL     1      49.312   6.887  18.980  0.00  0.00    +0.000 A 
ENDBRANCH  19  22
ENDBRANCH   1  18
BRANCH   1  34
ATOM     33  C   UNL     1      49.847  10.397  13.939  0.00  0.00    +0.000 C 
ATOM     34  C   UNL     1      49.689   8.917  14.256  0.00  0.00    +0.000 C 
ENDBRANCH   1  34
TORSDOF 8
ENDMDL
MODEL 9
REMARK VINA RESULT:    -5.605      3.587      5.958
REMARK INTER + INTRA:          -9.765
REMARK INTER:                  -8.184
REMARK INTRA:                  -1.581
REMARK UNBOUND:                -1.538
REMARK  Name = 
REMARK  10 active torsions:
REMARK  status: ('A' for Active; 'I' for Inactive)
REMARK    1  A    between atoms: C_1  and  C_2
REMARK    2  A    between atoms: C_2  and  C_3
REMARK    3  A    between atoms: C_3  and  N_4
REMARK    4  A    between atoms: C_3  and  C_18
REMARK    5  A    between atoms: C_5  and  C_7
REMARK    6  A    between atoms: N_13  and  C_14
REMARK    7  A    between atoms: C_21  and  C_22
REMARK    8  A    between atoms: C_22  and  N_23
REMARK    9  A    between atoms: N_23  and  C_24
REMARK   10  A    between atoms: C_24  and  C_25
REMARK                            x       y       z     vdW  Elec       q    Type
REMARK                         _______ _______ _______ _____ _____    ______ ____
ROOT
ATOM      1  C   UNL     1      46.385   5.362  13.373  0.00  0.00    +0.000 C 
ENDROOT
BRANCH   1   2
ATOM      2  C   UNL     1      47.092   6.587  12.794  0.00  0.00    +0.000 A 
ATOM      3  C   UNL     1      46.378   7.759  12.560  0.00  0.00    +0.000 A 
ATOM      4  C   UNL     1      47.054   8.871  12.062  0.00  0.00    +0.000 A 
ATOM      5  C   UNL     1      48.424   8.798  11.797  0.00  0.00    +0.000 A 
ATOM      6  C   UNL     1      49.044   7.578  12.020  0.00  0.00    +0.000 A 
ATOM      7  N   UNL     1      48.415   6.482  12.498  0.00  0.00    +0.000 NA
BRANCH   5   8
ATOM      8  C   UNL     1      49.200   9.983  11.291  0.00  0.00    +0.000 C 
BRANCH   8   9
ATOM      9  N   UNL     1      50.613   9.859  11.630  0.00  0.00    +0.000 NA
ATOM     10  H   UNL     1      50.837   8.875  11.801  0.00  0.00    +0.000 HD
BRANCH   9  11
ATOM     11  C   UNL     1      51.475  10.317  10.536  0.00  0.00    +0.000 C 
BRANCH  11  12
ATOM     12  C   UNL     1      52.222   9.152   9.920  0.00  0.00    +0.000 A 
ATOM     13  C   UNL     1      52.197   7.901  10.536  0.00  0.00    +0.000 A 
ATOM     14  C   UNL     1      52.844   6.836   9.919  0.00  0.00    +0.000 A 
ATOM     15  C   UNL     1      53.484   7.041   8.703  0.00  0.00    +0.000 A 
ATOM     16  C   UNL     1      53.447   8.310   8.150  0.00  0.00    +0.000 A 
ATOM     17  N   UNL     1      52.835   9.367   8.728  0.00  0.00    +0.000 NA
ENDBRANCH  11  12
ENDBRANCH   9  11
ENDBRANCH   8   9
ENDBRANCH   5   8
ENDBRANCH   1   2
BRANCH   1  18
ATOM     18  N   UNL     1      46.796   5.142  14.749  0.00  0.00    +0.000 N 
ATOM     19  C   UNL     1      47.405   3.989  15.170  0.00  0.00    +0.000 C 
ATOM     20  O   UNL     1      47.539   3.011  14.439  0.00  0.00    +0.000 OA
ATOM     21  H   UNL     1      46.932   5.991  15.289  0.00  0.00    +0.000 HD
BRANCH  19  22
ATOM     22  C   UNL     1      47.842   3.960  16.572  0.00  0.00    +0.000 A 
ATOM     23  C   UNL     1      47.315   3.018  17.445  0.00  0.00    +0.000 A 
ATOM     24  S   UNL     1      47.958   3.114  19.022  0.00  0.00    +0.000 S 
ATOM     25  C   UNL     1      48.980   4.402  18.585  0.00  0.00    +0.000 A 
ATOM     26  N   UNL     1      49.844   4.941  19.482  0.00  0.00    +0.000 NA
ATOM     27  C   UNL     1      50.575   5.904  19.009  0.00  0.00    +0.000 A 
ATOM     28  N   UNL     1      50.518   6.390  17.722  0.00  0.00    +0.000 N 
ATOM     29  C   UNL     1      51.355   7.492  17.301  0.00  0.00    +0.000 C 
ATOM     30  C   UNL     1      49.610   5.892  16.796  0.00  0.00    +0.000 A 
ATOM     31  O   UNL     1      49.474   6.377  15.679  0.00  0.00    +0.000 OA
ATOM     32  C   UNL     1      48.806   4.781  17.270  0.00  0.00    +0.000 A 
ENDBRANCH  19  22
ENDBRANCH   1  18
BRANCH   1  34
ATOM     33  C   UNL     1      44.117   4.250  12.931  0.00  0.00    +0.000 C 
ATOM     34  C   UNL     1      44.854   5.533  13.285  0.00  0.00    +0.000 C 
ENDBRANCH   1  34
TORSDOF 8
ENDMDL
