MODEL 1
REMARK VINA RESULT:    -7.947      0.000      0.000
REMARK INTER + INTRA:         -10.802
REMARK INTER:                 -10.038
REMARK INTRA:                  -0.763
REMARK UNBOUND:                -0.763
REMARK  Name = 
REMARK  5 active torsions:
REMARK  status: ('A' for Active; 'I' for Inactive)
REMARK    1  A    between atoms: C_2  and  C_4
REMARK    2  A    between atoms: C_7  and  C_8
REMARK    3  A    between atoms: C_8  and  C_9
REMARK    4  A    between atoms: C_9  and  C_10
REMARK    5  A    between atoms: C_17  and  N_18
REMARK                            x       y       z     vdW  Elec       q    Type
REMARK                         _______ _______ _______ _____ _____    ______ ____
ROOT
ATOM      1  C   UNL     1      46.341   4.629  13.594  0.00  0.00    +0.000 A 
ATOM      2  N   UNL     1      46.052   3.336  13.245  0.00  0.00    +0.000 NA
ATOM      3  C   UNL     1      45.350   3.162  12.102  0.00  0.00    +0.000 A 
ATOM      4  C   UNL     1      44.926   4.198  11.272  0.00  0.00    +0.000 A 
ATOM      5  C   UNL     1      45.216   5.503  11.692  0.00  0.00    +0.000 A 
ATOM      6  C   UNL     1      45.978   5.752  12.838  0.00  0.00    +0.000 A 
ENDROOT
BRANCH   1   8
ATOM      7  N   UNL     1      46.802   3.972  15.890  0.00  0.00    +0.000 N 
ATOM      8  C   UNL     1      47.165   4.781  14.845  0.00  0.00    +0.000 C 
ATOM      9  O   UNL     1      48.125   5.540  14.938  0.00  0.00    +0.000 OA
ATOM     10  H   UNL     1      47.340   3.981  16.742  0.00  0.00    +0.000 HD
ATOM     11  H   UNL     1      46.051   3.301  15.757  0.00  0.00    +0.000 HD
ENDBRANCH   1   8
BRANCH   6  12
ATOM     12  N   UNL     1      46.136   7.083  13.263  0.00  0.00    +0.000 N 
ATOM     13  H   UNL     1      45.271   7.575  13.455  0.00  0.00    +0.000 HD
ATOM     14  H   UNL     1      46.762   7.615  12.646  0.00  0.00    +0.000 HD
ENDBRANCH   6  12
BRANCH   4  15
ATOM     15  C   UNL     1      44.127   3.898  10.021  0.00  0.00    +0.000 C 
BRANCH  15  16
ATOM     16  C   UNL     1      44.811   4.347   8.721  0.00  0.00    +0.000 C 
BRANCH  16  17
ATOM     17  C   UNL     1      45.640   3.277   8.056  0.00  0.00    +0.000 A 
ATOM     18  C   UNL     1      46.472   3.599   6.975  0.00  0.00    +0.000 A 
ATOM     19  C   UNL     1      47.307   2.634   6.411  0.00  0.00    +0.000 A 
ATOM     20  C   UNL     1      47.308   1.333   6.912  0.00  0.00    +0.000 A 
ATOM     21  C   UNL     1      46.464   0.997   7.972  0.00  0.00    +0.000 A 
ATOM     22  C   UNL     1      45.630   1.962   8.539  0.00  0.00    +0.000 A 
ENDBRANCH  16  17
ENDBRANCH  15  16
ENDBRANCH   4  15
TORSDOF 5
ENDMDL
MODEL 2
REMARK VINA RESULT:    -7.722      1.049      2.270
REMARK INTER + INTRA:         -10.517
REMARK INTER:                  -9.726
REMARK INTRA:                  -0.790
REMARK UNBOUND:                -0.763
REMARK  Name = 
REMARK  5 active torsions:
REMARK  status: ('A' for Active; 'I' for Inactive)
REMARK    1  A    between atoms: C_2  and  C_4
REMARK    2  A    between atoms: C_7  and  C_8
REMARK    3  A    between atoms: C_8  and  C_9
REMARK    4  A    between atoms: C_9  and  C_10
REMARK    5  A    between atoms: C_17  and  N_18
REMARK                            x       y       z     vdW  Elec       q    Type
REMARK                         _______ _______ _______ _____ _____    ______ ____
ROOT
ATOM      1  C   UNL     1      46.676   5.865  12.688  0.00  0.00    +0.000 A 
ATOM      2  N   UNL     1      46.466   6.431  11.459  0.00  0.00    +0.000 NA
ATOM      3  C   UNL     1      45.642   5.764  10.619  0.00  0.00    +0.000 A 
ATOM      4  C   UNL     1      45.000   4.567  10.930  0.00  0.00    +0.000 A 
ATOM      5  C   UNL     1      45.277   4.010  12.187  0.00  0.00    +0.000 A 
ATOM      6  C   UNL     1      46.081   4.671  13.120  0.00  0.00    +0.000 A 
ENDROOT
BRANCH   1   8
ATOM      7  N   UNL     1      47.083   7.897  13.960  0.00  0.00    +0.000 N 
ATOM      8  C   UNL     1      47.559   6.660  13.613  0.00  0.00    +0.000 C 
ATOM      9  O   UNL     1      48.618   6.238  14.069  0.00  0.00    +0.000 OA
ATOM     10  H   UNL     1      47.595   8.464  14.618  0.00  0.00    +0.000 HD
ATOM     11  H   UNL     1      46.169   8.186  13.625  0.00  0.00    +0.000 HD
ENDBRANCH   1   8
BRANCH   6  12
ATOM     12  N   UNL     1      46.408   4.005  14.314  0.00  0.00    +0.000 N 
ATOM     13  H   UNL     1      46.238   3.006  14.307  0.00  0.00    +0.000 HD
ATOM     14  H   UNL     1      46.004   4.467  15.138  0.00  0.00    +0.000 HD
ENDBRANCH   6  12
BRANCH   4  15
ATOM     15  C   UNL     1      44.110   3.888   9.911  0.00  0.00    +0.000 C 
BRANCH  15  16
ATOM     16  C   UNL     1      44.561   2.469   9.535  0.00  0.00    +0.000 C 
BRANCH  16  17
ATOM     17  C   UNL     1      45.562   2.416   8.408  0.00  0.00    +0.000 A 
ATOM     18  C   UNL     1      46.279   1.237   8.156  0.00  0.00    +0.000 A 
ATOM     19  C   UNL     1      47.141   1.153   7.063  0.00  0.00    +0.000 A 
ATOM     20  C   UNL     1      47.308   2.250   6.218  0.00  0.00    +0.000 A 
ATOM     21  C   UNL     1      46.617   3.435   6.476  0.00  0.00    +0.000 A 
ATOM     22  C   UNL     1      45.752   3.521   7.569  0.00  0.00    +0.000 A 
ENDBRANCH  16  17
ENDBRANCH  15  16
ENDBRANCH   4  15
TORSDOF 5
ENDMDL
MODEL 3
REMARK VINA RESULT:    -7.584      3.582      6.153
REMARK INTER + INTRA:         -10.343
REMARK INTER:                  -9.565
REMARK INTRA:                  -0.778
REMARK UNBOUND:                -0.763
REMARK  Name = 
REMARK  5 active torsions:
REMARK  status: ('A' for Active; 'I' for Inactive)
REMARK    1  A    between atoms: C_2  and  C_4
REMARK    2  A    between atoms: C_7  and  C_8
REMARK    3  A    between atoms: C_8  and  C_9
REMARK    4  A    between atoms: C_9  and  C_10
REMARK    5  A    between atoms: C_17  and  N_18
REMARK                            x       y       z     vdW  Elec       q    Type
REMARK                         _______ _______ _______ _____ _____    ______ ____
ROOT
ATOM      1  C   UNL     1      46.247   2.039   8.020  0.00  0.00    +0.000 A 
ATOM      2  N   UNL     1      45.438   1.573   9.021  0.00  0.00    +0.000 NA
ATOM      3  C   UNL     1      44.653   2.487   9.638  0.00  0.00    +0.000 A 
ATOM      4  C   UNL     1      44.614   3.841   9.311  0.00  0.00    +0.000 A 
ATOM      5  C   UNL     1      45.488   4.273   8.304  0.00  0.00    +0.000 A 
ATOM      6  C   UNL     1      46.290   3.374   7.594  0.00  0.00    +0.000 A 
ENDROOT
BRANCH   1   8
ATOM      7  N   UNL     1      46.759  -0.309   7.646  0.00  0.00    +0.000 N 
ATOM      8  C   UNL     1      47.069   0.986   7.324  0.00  0.00    +0.000 C 
ATOM      9  O   UNL     1      47.936   1.241   6.494  0.00  0.00    +0.000 OA
ATOM     10  H   UNL     1      47.232  -1.068   7.180  0.00  0.00    +0.000 HD
ATOM     11  H   UNL     1      45.986  -0.489   8.280  0.00  0.00    +0.000 HD
ENDBRANCH   1   8
BRANCH   6  12
ATOM     12  N   UNL     1      47.224   3.888   6.677  0.00  0.00    +0.000 N 
ATOM     13  H   UNL     1      48.098   3.378   6.626  0.00  0.00    +0.000 HD
ATOM     14  H   UNL     1      47.365   4.899   6.794  0.00  0.00    +0.000 HD
ENDBRANCH   6  12
BRANCH   4  15
ATOM     15  C   UNL     1      43.713   4.787  10.076  0.00  0.00    +0.000 C 
BRANCH  15  16
ATOM     16  C   UNL     1      43.919   4.753  11.598  0.00  0.00    +0.000 C 
BRANCH  16  17
ATOM     17  C   UNL     1      45.240   5.317  12.056  0.00  0.00    +0.000 A 
ATOM     18  C   UNL     1      45.921   4.733  13.134  0.00  0.00    +0.000 A 
ATOM     19  C   UNL     1      47.183   5.194  13.508  0.00  0.00    +0.000 A 
ATOM     20  C   UNL     1      47.773   6.253  12.819  0.00  0.00    +0.000 A 
ATOM     21  C   UNL     1      47.092   6.856  11.760  0.00  0.00    +0.000 A 
ATOM     22  C   UNL     1      45.829   6.395  11.383  0.00  0.00    +0.000 A 
ENDBRANCH  16  17
ENDBRANCH  15  16
ENDBRANCH   4  15
TORSDOF 5
ENDMDL
MODEL 4
REMARK VINA RESULT:    -7.430      3.713      6.450
REMARK INTER + INTRA:         -10.148
REMARK INTER:                  -9.341
REMARK INTRA:                  -0.807
REMARK UNBOUND:                -0.763
REMARK  Name = 
REMARK  5 active torsions:
REMARK  status: ('A' for Active; 'I' for Inactive)
REMARK    1  A    between atoms: C_2  and  C_4
REMARK    2  A    between atoms: C_7  and  C_8
REMARK    3  A    between atoms: C_8  and  C_9
REMARK    4  A    between atoms: C_9  and  C_10
REMARK    5  A    between atoms: C_17  and  N_18
REMARK                            x       y       z     vdW  Elec       q    Type
REMARK                         _______ _______ _______ _____ _____    ______ ____
ROOT
ATOM      1  C   UNL     1      46.555   2.710   7.376  0.00  0.00    +0.000 A 
ATOM      2  N   UNL     1      46.188   4.024   7.499  0.00  0.00    +0.000 NA
ATOM      3  C   UNL     1      45.316   4.317   8.490  0.00  0.00    +0.000 A 
ATOM      4  C   UNL     1      44.792   3.382   9.381  0.00  0.00    +0.000 A 
ATOM      5  C   UNL     1      45.171   2.046   9.190  0.00  0.00    +0.000 A 
ATOM      6  C   UNL     1      46.105   1.681   8.215  0.00  0.00    +0.000 A 
ENDROOT
BRANCH   1   8
ATOM      7  N   UNL     1      47.386   3.131   5.129  0.00  0.00    +0.000 N 
ATOM      8  C   UNL     1      47.563   2.429   6.293  0.00  0.00    +0.000 C 
ATOM      9  O   UNL     1      48.510   1.660   6.430  0.00  0.00    +0.000 OA
ATOM     10  H   UNL     1      48.053   3.034   4.379  0.00  0.00    +0.000 HD
ATOM     11  H   UNL     1      46.637   3.815   5.074  0.00  0.00    +0.000 HD
ENDBRANCH   1   8
BRANCH   6  12
ATOM     12  N   UNL     1      46.354   0.314   8.003  0.00  0.00    +0.000 N 
ATOM     13  H   UNL     1      47.106   0.112   7.355  0.00  0.00    +0.000 HD
ATOM     14  H   UNL     1      45.495  -0.206   7.784  0.00  0.00    +0.000 HD
ENDBRANCH   6  12
BRANCH   4  15
ATOM     15  C   UNL     1      43.806   3.810  10.448  0.00  0.00    +0.000 C 
BRANCH  15  16
ATOM     16  C   UNL     1      44.031   5.236  10.971  0.00  0.00    +0.000 C 
BRANCH  16  17
ATOM     17  C   UNL     1      45.275   5.400  11.806  0.00  0.00    +0.000 A 
ATOM     18  C   UNL     1      46.218   6.386  11.481  0.00  0.00    +0.000 A 
ATOM     19  C   UNL     1      47.328   6.601  12.297  0.00  0.00    +0.000 A 
ATOM     20  C   UNL     1      47.516   5.824  13.440  0.00  0.00    +0.000 A 
ATOM     21  C   UNL     1      46.596   4.824  13.757  0.00  0.00    +0.000 A 
ATOM     22  C   UNL     1      45.484   4.608  12.942  0.00  0.00    +0.000 A 
ENDBRANCH  16  17
ENDBRANCH  15  16
ENDBRANCH   4  15
TORSDOF 5
ENDMDL
MODEL 5
REMARK VINA RESULT:    -6.574      1.783      2.061
REMARK INTER + INTRA:          -9.067
REMARK INTER:                  -8.441
REMARK INTRA:                  -0.626
REMARK UNBOUND:                -0.763
REMARK  Name = 
REMARK  5 active torsions:
REMARK  status: ('A' for Active; 'I' for Inactive)
REMARK    1  A    between atoms: C_2  and  C_4
REMARK    2  A    between atoms: C_7  and  C_8
REMARK    3  A    between atoms: C_8  and  C_9
REMARK    4  A    between atoms: C_9  and  C_10
REMARK    5  A    between atoms: C_17  and  N_18
REMARK                            x       y       z     vdW  Elec       q    Type
REMARK                         _______ _______ _______ _____ _____    ______ ____
ROOT
ATOM      1  C   UNL     1      45.836   6.558  12.453  0.00  0.00    +0.000 A 
ATOM      2  N   UNL     1      46.242   5.251  12.502  0.00  0.00    +0.000 NA
ATOM      3  C   UNL     1      45.612   4.392  11.669  0.00  0.00    +0.000 A 
ATOM      4  C   UNL     1      44.607   4.755  10.775  0.00  0.00    +0.000 A 
ATOM      5  C   UNL     1      44.203   6.097  10.789  0.00  0.00    +0.000 A 
ATOM      6  C   UNL     1      44.844   7.047  11.592  0.00  0.00    +0.000 A 
ENDROOT
BRANCH   1   8
ATOM      7  N   UNL     1      47.582   6.914  14.109  0.00  0.00    +0.000 N 
ATOM      8  C   UNL     1      46.592   7.494  13.359  0.00  0.00    +0.000 C 
ATOM      9  O   UNL     1      46.384   8.702  13.414  0.00  0.00    +0.000 OA
ATOM     10  H   UNL     1      48.165   7.487  14.699  0.00  0.00    +0.000 HD
ATOM     11  H   UNL     1      47.780   5.925  13.986  0.00  0.00    +0.000 HD
ENDBRANCH   1   8
BRANCH   6  12
ATOM     12  N   UNL     1      44.316   8.349  11.641  0.00  0.00    +0.000 N 
ATOM     13  H   UNL     1      43.662   8.573  10.900  0.00  0.00    +0.000 HD
ATOM     14  H   UNL     1      45.049   9.060  11.747  0.00  0.00    +0.000 HD
ENDBRANCH   6  12
BRANCH   4  15
ATOM     15  C   UNL     1      43.950   3.711   9.896  0.00  0.00    +0.000 C 
BRANCH  15  16
ATOM     16  C   UNL     1      44.776   2.427   9.728  0.00  0.00    +0.000 C 
BRANCH  16  17
ATOM     17  C   UNL     1      45.610   2.387   8.473  0.00  0.00    +0.000 A 
ATOM     18  C   UNL     1      45.670   3.506   7.630  0.00  0.00    +0.000 A 
ATOM     19  C   UNL     1      46.508   3.508   6.515  0.00  0.00    +0.000 A 
ATOM     20  C   UNL     1      47.283   2.387   6.221  0.00  0.00    +0.000 A 
ATOM     21  C   UNL     1      47.211   1.259   7.040  0.00  0.00    +0.000 A 
ATOM     22  C   UNL     1      46.375   1.256   8.159  0.00  0.00    +0.000 A 
ENDBRANCH  16  17
ENDBRANCH  15  16
ENDBRANCH   4  15
TORSDOF 5
ENDMDL
MODEL 6
REMARK VINA RESULT:    -6.347      1.523      2.221
REMARK INTER + INTRA:          -8.781
REMARK INTER:                  -8.078
REMARK INTRA:                  -0.702
REMARK UNBOUND:                -0.763
REMARK  Name = 
REMARK  5 active torsions:
REMARK  status: ('A' for Active; 'I' for Inactive)
REMARK    1  A    between atoms: C_2  and  C_4
REMARK    2  A    between atoms: C_7  and  C_8
REMARK    3  A    between atoms: C_8  and  C_9
REMARK    4  A    between atoms: C_9  and  C_10
REMARK    5  A    between atoms: C_17  and  N_18
REMARK                            x       y       z     vdW  Elec       q    Type
REMARK                         _______ _______ _______ _____ _____    ______ ____
ROOT
ATOM      1  C   UNL     1      47.194   4.758  15.123  0.00  0.00    +0.000 A 
ATOM      2  N   UNL     1      46.331   3.980  14.398  0.00  0.00    +0.000 NA
ATOM      3  C   UNL     1      46.004   4.430  13.165  0.00  0.00    +0.000 A 
ATOM      4  C   UNL     1      46.494   5.604  12.599  0.00  0.00    +0.000 A 
ATOM      5  C   UNL     1      47.345   6.383  13.395  0.00  0.00    +0.000 A 
ATOM      6  C   UNL     1      47.760   5.954  14.660  0.00  0.00    +0.000 A 
ENDROOT
BRANCH   1   8
ATOM      7  N   UNL     1      47.988   2.896  16.472  0.00  0.00    +0.000 N 
ATOM      8  C   UNL     1      47.573   4.202  16.471  0.00  0.00    +0.000 C 
ATOM      9  O   UNL     1      47.558   4.862  17.506  0.00  0.00    +0.000 OA
ATOM     10  H   UNL     1      48.307   2.473  17.329  0.00  0.00    +0.000 HD
ATOM     11  H   UNL     1      48.060   2.400  15.589  0.00  0.00    +0.000 HD
ENDBRANCH   1   8
BRANCH   6  12
ATOM     12  N   UNL     1      48.522   6.833  15.450  0.00  0.00    +0.000 N 
ATOM     13  H   UNL     1      49.305   6.406  15.931  0.00  0.00    +0.000 HD
ATOM     14  H   UNL     1      47.935   7.397  16.077  0.00  0.00    +0.000 HD
ENDBRANCH   6  12
BRANCH   4  15
ATOM     15  C   UNL     1      46.051   6.031  11.215  0.00  0.00    +0.000 C 
BRANCH  15  16
ATOM     16  C   UNL     1      44.819   5.275  10.693  0.00  0.00    +0.000 C 
BRANCH  16  17
ATOM     17  C   UNL     1      45.130   4.225   9.657  0.00  0.00    +0.000 A 
ATOM     18  C   UNL     1      45.789   4.579   8.470  0.00  0.00    +0.000 A 
ATOM     19  C   UNL     1      46.157   3.601   7.547  0.00  0.00    +0.000 A 
ATOM     20  C   UNL     1      45.858   2.261   7.791  0.00  0.00    +0.000 A 
ATOM     21  C   UNL     1      45.180   1.903   8.957  0.00  0.00    +0.000 A 
ATOM     22  C   UNL     1      44.812   2.880   9.884  0.00  0.00    +0.000 A 
ENDBRANCH  16  17
ENDBRANCH  15  16
ENDBRANCH   4  15
TORSDOF 5
ENDMDL
MODEL 7
REMARK VINA RESULT:    -5.766      4.000      6.132
REMARK INTER + INTRA:          -8.046
REMARK INTER:                  -7.318
REMARK INTRA:                  -0.728
REMARK UNBOUND:                -0.763
REMARK  Name = 
REMARK  5 active torsions:
REMARK  status: ('A' for Active; 'I' for Inactive)
REMARK    1  A    between atoms: C_2  and  C_4
REMARK    2  A    between atoms: C_7  and  C_8
REMARK    3  A    between atoms: C_8  and  C_9
REMARK    4  A    between atoms: C_9  and  C_10
REMARK    5  A    between atoms: C_17  and  N_18
REMARK                            x       y       z     vdW  Elec       q    Type
REMARK                         _______ _______ _______ _____ _____    ______ ____
ROOT
ATOM      1  C   UNL     1      44.922   4.042  11.401  0.00  0.00    +0.000 A 
ATOM      2  N   UNL     1      45.195   3.986  12.742  0.00  0.00    +0.000 NA
ATOM      3  C   UNL     1      45.903   5.016  13.258  0.00  0.00    +0.000 A 
ATOM      4  C   UNL     1      46.349   6.112  12.523  0.00  0.00    +0.000 A 
ATOM      5  C   UNL     1      46.075   6.105  11.148  0.00  0.00    +0.000 A 
ATOM      6  C   UNL     1      45.307   5.094  10.560  0.00  0.00    +0.000 A 
ENDROOT
BRANCH   1   8
ATOM      7  N   UNL     1      43.350   2.231  11.810  0.00  0.00    +0.000 N 
ATOM      8  C   UNL     1      44.091   2.903  10.873  0.00  0.00    +0.000 C 
ATOM      9  O   UNL     1      44.032   2.600   9.685  0.00  0.00    +0.000 OA
ATOM     10  H   UNL     1      42.730   1.491  11.522  0.00  0.00    +0.000 HD
ATOM     11  H   UNL     1      43.363   2.553  12.773  0.00  0.00    +0.000 HD
ENDBRANCH   1   8
BRANCH   6  12
ATOM     12  N   UNL     1      45.167   5.088   9.161  0.00  0.00    +0.000 N 
ATOM     13  H   UNL     1      45.419   5.956   8.702  0.00  0.00    +0.000 HD
ATOM     14  H   UNL     1      44.246   4.741   8.866  0.00  0.00    +0.000 HD
ENDBRANCH   6  12
BRANCH   4  15
ATOM     15  C   UNL     1      47.152   7.208  13.192  0.00  0.00    +0.000 C 
BRANCH  15  16
ATOM     16  C   UNL     1      47.252   8.501  12.369  0.00  0.00    +0.000 C 
BRANCH  16  17
ATOM     17  C   UNL     1      48.627   8.780  11.818  0.00  0.00    +0.000 A 
ATOM     18  C   UNL     1      48.993  10.086  11.462  0.00  0.00    +0.000 A 
ATOM     19  C   UNL     1      50.291  10.366  11.034  0.00  0.00    +0.000 A 
ATOM     20  C   UNL     1      51.233   9.342  10.944  0.00  0.00    +0.000 A 
ATOM     21  C   UNL     1      50.871   8.035  11.273  0.00  0.00    +0.000 A 
ATOM     22  C   UNL     1      49.573   7.753  11.703  0.00  0.00    +0.000 A 
ENDBRANCH  16  17
ENDBRANCH  15  16
ENDBRANCH   4  15
TORSDOF 5
ENDMDL
MODEL 8
REMARK VINA RESULT:    -5.476      3.784      6.373
REMARK INTER + INTRA:          -7.680
REMARK INTER:                  -7.110
REMARK INTRA:                  -0.570
REMARK UNBOUND:                -0.763
REMARK  Name = 
REMARK  5 active torsions:
REMARK  status: ('A' for Active; 'I' for Inactive)
REMARK    1  A    between atoms: C_2  and  C_4
REMARK    2  A    between atoms: C_7  and  C_8
REMARK    3  A    between atoms: C_8  and  C_9
REMARK    4  A    between atoms: C_9  and  C_10
REMARK    5  A    between atoms: C_17  and  N_18
REMARK                            x       y       z     vdW  Elec       q    Type
REMARK                         _______ _______ _______ _____ _____    ______ ____
ROOT
ATOM      1  C   UNL     1      44.416   4.366  11.665  0.00  0.00    +0.000 A 
ATOM      2  N   UNL     1      43.755   5.439  11.129  0.00  0.00    +0.000 NA
ATOM      3  C   UNL     1      44.159   6.663  11.539  0.00  0.00    +0.000 A 
ATOM      4  C   UNL     1      45.192   6.889  12.446  0.00  0.00    +0.000 A 
ATOM      5  C   UNL     1      45.812   5.757  12.993  0.00  0.00    +0.000 A 
ATOM      6  C   UNL     1      45.476   4.465  12.577  0.00  0.00    +0.000 A 
ENDROOT
BRANCH   1   8
ATOM      7  N   UNL     1      44.764   2.478  10.171  0.00  0.00    +0.000 N 
ATOM      8  C   UNL     1      43.972   3.023  11.149  0.00  0.00    +0.000 C 
ATOM      9  O   UNL     1      42.997   2.417  11.582  0.00  0.00    +0.000 OA
ATOM     10  H   UNL     1      44.559   1.558   9.815  0.00  0.00    +0.000 HD
ATOM     11  H   UNL     1      45.606   2.970   9.887  0.00  0.00    +0.000 HD
ENDBRANCH   1   8
BRANCH   6  12
ATOM     12  N   UNL     1      46.055   3.373  13.247  0.00  0.00    +0.000 N 
ATOM     13  H   UNL     1      45.420   2.847  13.836  0.00  0.00    +0.000 HD
ATOM     14  H   UNL     1      46.920   3.634  13.737  0.00  0.00    +0.000 HD
ENDBRANCH   6  12
BRANCH   4  15
ATOM     15  C   UNL     1      45.556   8.301  12.856  0.00  0.00    +0.000 C 
BRANCH  15  16
ATOM     16  C   UNL     1      46.949   8.428  13.491  0.00  0.00    +0.000 C 
BRANCH  16  17
ATOM     17  C   UNL     1      47.997   9.007  12.574  0.00  0.00    +0.000 A 
ATOM     18  C   UNL     1      47.746  10.200  11.882  0.00  0.00    +0.000 A 
ATOM     19  C   UNL     1      48.741  10.787  11.100  0.00  0.00    +0.000 A 
ATOM     20  C   UNL     1      49.992  10.181  10.990  0.00  0.00    +0.000 A 
ATOM     21  C   UNL     1      50.242   8.981  11.656  0.00  0.00    +0.000 A 
ATOM     22  C   UNL     1      49.248   8.392  12.440  0.00  0.00    +0.000 A 
ENDBRANCH  16  17
ENDBRANCH  15  16
ENDBRANCH   4  15
TORSDOF 5
ENDMDL
MODEL 9
REMARK VINA RESULT:    -5.297      3.318      6.708
REMARK INTER + INTRA:          -7.454
REMARK INTER:                  -6.782
REMARK INTRA:                  -0.672
REMARK UNBOUND:                -0.763
REMARK  Name = 
REMARK  5 active torsions:
REMARK  status: ('A' for Active; 'I' for Inactive)
REMARK    1  A    between atoms: C_2  and  C_4
REMARK    2  A    between atoms: C_7  and  C_8
REMARK    3  A    between atoms: C_8  and  C_9
REMARK    4  A    between atoms: C_9  and  C_10
REMARK    5  A    between atoms: C_17  and  N_18
REMARK                            x       y       z     vdW  Elec       q    Type
REMARK                         _______ _______ _______ _____ _____    ______ ____
ROOT
ATOM      1  C   UNL     1      44.878   4.123  11.361  0.00  0.00    +0.000 A 
ATOM      2  N   UNL     1      45.024   4.169  12.722  0.00  0.00    +0.000 NA
ATOM      3  C   UNL     1      45.611   5.277  13.229  0.00  0.00    +0.000 A 
ATOM      4  C   UNL     1      46.053   6.355  12.464  0.00  0.00    +0.000 A 
ATOM      5  C   UNL     1      45.913   6.243  11.074  0.00  0.00    +0.000 A 
ATOM      6  C   UNL     1      45.274   5.146  10.488  0.00  0.00    +0.000 A 
ENDROOT
BRANCH   1   8
ATOM      7  N   UNL     1      43.344   2.271  11.727  0.00  0.00    +0.000 N 
ATOM      8  C   UNL     1      44.178   2.897  10.837  0.00  0.00    +0.000 C 
ATOM      9  O   UNL     1      44.297   2.487   9.686  0.00  0.00    +0.000 OA
ATOM     10  H   UNL     1      42.802   1.475  11.431  0.00  0.00    +0.000 HD
ATOM     11  H   UNL     1      43.211   2.678  12.648  0.00  0.00    +0.000 HD
ENDBRANCH   1   8
BRANCH   6  12
ATOM     12  N   UNL     1      45.269   5.043   9.086  0.00  0.00    +0.000 N 
ATOM     13  H   UNL     1      46.098   5.403   8.628  0.00  0.00    +0.000 HD
ATOM     14  H   UNL     1      44.402   5.410   8.674  0.00  0.00    +0.000 HD
ENDBRANCH   6  12
BRANCH   4  15
ATOM     15  C   UNL     1      46.715   7.544  13.128  0.00  0.00    +0.000 C 
BRANCH  15  16
ATOM     16  C   UNL     1      48.219   7.664  12.837  0.00  0.00    +0.000 C 
BRANCH  16  17
ATOM     17  C   UNL     1      49.104   7.354  14.017  0.00  0.00    +0.000 A 
ATOM     18  C   UNL     1      50.417   7.844  14.063  0.00  0.00    +0.000 A 
ATOM     19  C   UNL     1      51.213   7.635  15.189  0.00  0.00    +0.000 A 
ATOM     20  C   UNL     1      50.710   6.921  16.277  0.00  0.00    +0.000 A 
ATOM     21  C   UNL     1      49.413   6.408  16.230  0.00  0.00    +0.000 A 
ATOM     22  C   UNL     1      48.614   6.618  15.104  0.00  0.00    +0.000 A 
ENDBRANCH  16  17
ENDBRANCH  15  16
ENDBRANCH   4  15
TORSDOF 5
ENDMDL
