MODEL 1
REMARK VINA RESULT:    -7.410      0.000      0.000
REMARK INTER + INTRA:         -10.413
REMARK INTER:                  -9.576
REMARK INTRA:                  -0.836
REMARK UNBOUND:                -0.836
REMARK  Name = 
REMARK  6 active torsions:
REMARK  status: ('A' for Active; 'I' for Inactive)
REMARK    1  A    between atoms: C_1  and  O_2
REMARK    2  A    between atoms: O_2  and  C_3
REMARK    3  A    between atoms: C_6  and  C_7
REMARK    4  A    between atoms: C_7  and  O_8
REMARK    5  A    between atoms: O_8  and  C_9
REMARK    6  A    between atoms: C_13  and  C_14
REMARK                            x       y       z     vdW  Elec       q    Type
REMARK                         _______ _______ _______ _____ _____    ______ ____
ROOT
ATOM      1  C   UNL     1      45.002   4.446  12.002  0.00  0.00    +0.000 A 
ATOM      2  C   UNL     1      45.703   3.596  12.836  0.00  0.00    +0.000 A 
ATOM      3  C   UNL     1      46.767   4.123  13.558  0.00  0.00    +0.000 A 
ATOM      4  C   UNL     1      47.092   5.469  13.408  0.00  0.00    +0.000 A 
ATOM      5  C   UNL     1      46.342   6.260  12.542  0.00  0.00    +0.000 A 
ATOM      6  N   UNL     1      45.293   5.758  11.855  0.00  0.00    +0.000 NA
ENDROOT
BRANCH   5   7
ATOM      7  C   UNL     1      46.623   7.684  12.305  0.00  0.00    +0.000 A 
ATOM      8  C   UNL     1      47.917   8.169  12.073  0.00  0.00    +0.000 A 
ATOM      9  C   UNL     1      48.140   9.532  11.883  0.00  0.00    +0.000 A 
ATOM     10  C   UNL     1      47.054  10.386  11.922  0.00  0.00    +0.000 A 
ATOM     11  N   UNL     1      45.787   9.972  12.116  0.00  0.00    +0.000 NA
ATOM     12  C   UNL     1      45.604   8.639  12.294  0.00  0.00    +0.000 A 
ENDBRANCH   5   7
BRANCH   1  13
ATOM     13  O   UNL     1      43.960   3.901  11.282  0.00  0.00    +0.000 OA
BRANCH  13  14
ATOM     14  C   UNL     1      43.961   4.346   9.922  0.00  0.00    +0.000 C 
BRANCH  14  18
ATOM     15  C   UNL     1      46.654   2.063   7.423  0.00  0.00    +0.000 A 
ATOM     16  C   UNL     1      45.882   1.415   8.388  0.00  0.00    +0.000 A 
ATOM     17  C   UNL     1      45.019   2.147   9.208  0.00  0.00    +0.000 A 
ATOM     18  C   UNL     1      44.925   3.537   9.086  0.00  0.00    +0.000 A 
ATOM     19  C   UNL     1      45.696   4.180   8.106  0.00  0.00    +0.000 A 
ATOM     20  C   UNL     1      46.556   3.447   7.286  0.00  0.00    +0.000 A 
BRANCH  15  22
ATOM     21  C   UNL     1      48.006   2.258   5.484  0.00  0.00    +0.000 C 
ATOM     22  O   UNL     1      47.524   1.457   6.557  0.00  0.00    +0.000 OA
ENDBRANCH  15  22
ENDBRANCH  14  18
ENDBRANCH  13  14
ENDBRANCH   1  13
TORSDOF 5
ENDMDL
MODEL 2
REMARK VINA RESULT:    -7.135      1.979      3.552
REMARK INTER + INTRA:         -10.056
REMARK INTER:                  -9.367
REMARK INTRA:                  -0.689
REMARK UNBOUND:                -0.836
REMARK  Name = 
REMARK  6 active torsions:
REMARK  status: ('A' for Active; 'I' for Inactive)
REMARK    1  A    between atoms: C_1  and  O_2
REMARK    2  A    between atoms: O_2  and  C_3
REMARK    3  A    between atoms: C_6  and  C_7
REMARK    4  A    between atoms: C_7  and  O_8
REMARK    5  A    between atoms: O_8  and  C_9
REMARK    6  A    between atoms: C_13  and  C_14
REMARK                            x       y       z     vdW  Elec       q    Type
REMARK                         _______ _______ _______ _____ _____    ______ ____
ROOT
ATOM      1  C   UNL     1      45.061   5.306  12.078  0.00  0.00    +0.000 A 
ATOM      2  C   UNL     1      45.336   6.480  11.403  0.00  0.00    +0.000 A 
ATOM      3  C   UNL     1      46.386   7.266  11.865  0.00  0.00    +0.000 A 
ATOM      4  C   UNL     1      47.105   6.852  12.985  0.00  0.00    +0.000 A 
ATOM      5  C   UNL     1      46.760   5.659  13.615  0.00  0.00    +0.000 A 
ATOM      6  N   UNL     1      45.755   4.881  13.156  0.00  0.00    +0.000 NA
ENDROOT
BRANCH   5   7
ATOM      7  C   UNL     1      47.448   5.154  14.812  0.00  0.00    +0.000 A 
ATOM      8  C   UNL     1      47.197   3.883  15.347  0.00  0.00    +0.000 A 
ATOM      9  C   UNL     1      47.853   3.457  16.501  0.00  0.00    +0.000 A 
ATOM     10  C   UNL     1      48.758   4.316  17.096  0.00  0.00    +0.000 A 
ATOM     11  N   UNL     1      49.056   5.537  16.611  0.00  0.00    +0.000 NA
ATOM     12  C   UNL     1      48.404   5.920  15.485  0.00  0.00    +0.000 A 
ENDBRANCH   5   7
BRANCH   1  13
ATOM     13  O   UNL     1      44.005   4.549  11.614  0.00  0.00    +0.000 OA
BRANCH  13  14
ATOM     14  C   UNL     1      43.790   4.735  10.211  0.00  0.00    +0.000 C 
BRANCH  14  18
ATOM     15  C   UNL     1      46.264   2.146   7.783  0.00  0.00    +0.000 A 
ATOM     16  C   UNL     1      45.429   1.599   8.757  0.00  0.00    +0.000 A 
ATOM     17  C   UNL     1      44.635   2.429   9.555  0.00  0.00    +0.000 A 
ATOM     18  C   UNL     1      44.677   3.818   9.400  0.00  0.00    +0.000 A 
ATOM     19  C   UNL     1      45.510   4.361   8.412  0.00  0.00    +0.000 A 
ATOM     20  C   UNL     1      46.299   3.530   7.615  0.00  0.00    +0.000 A 
BRANCH  15  22
ATOM     21  C   UNL     1      47.960   2.206   6.127  0.00  0.00    +0.000 C 
ATOM     22  O   UNL     1      47.075   1.440   6.937  0.00  0.00    +0.000 OA
ENDBRANCH  15  22
ENDBRANCH  14  18
ENDBRANCH  13  14
ENDBRANCH   1  13
TORSDOF 5
ENDMDL
MODEL 3
REMARK VINA RESULT:    -7.127      1.640      2.197
REMARK INTER + INTRA:         -10.047
REMARK INTER:                  -9.325
REMARK INTRA:                  -0.722
REMARK UNBOUND:                -0.836
REMARK  Name = 
REMARK  6 active torsions:
REMARK  status: ('A' for Active; 'I' for Inactive)
REMARK    1  A    between atoms: C_1  and  O_2
REMARK    2  A    between atoms: O_2  and  C_3
REMARK    3  A    between atoms: C_6  and  C_7
REMARK    4  A    between atoms: C_7  and  O_8
REMARK    5  A    between atoms: O_8  and  C_9
REMARK    6  A    between atoms: C_13  and  C_14
REMARK                            x       y       z     vdW  Elec       q    Type
REMARK                         _______ _______ _______ _____ _____    ______ ____
ROOT
ATOM      1  C   UNL     1      45.340   5.394  11.660  0.00  0.00    +0.000 A 
ATOM      2  C   UNL     1      45.046   4.444  12.620  0.00  0.00    +0.000 A 
ATOM      3  C   UNL     1      45.918   4.311  13.694  0.00  0.00    +0.000 A 
ATOM      4  C   UNL     1      47.050   5.121  13.757  0.00  0.00    +0.000 A 
ATOM      5  C   UNL     1      47.281   6.050  12.746  0.00  0.00    +0.000 A 
ATOM      6  N   UNL     1      46.425   6.199  11.712  0.00  0.00    +0.000 NA
ENDROOT
BRANCH   5   7
ATOM      7  C   UNL     1      48.457   6.932  12.719  0.00  0.00    +0.000 A 
ATOM      8  C   UNL     1      48.891   7.575  11.551  0.00  0.00    +0.000 A 
ATOM      9  C   UNL     1      50.029   8.380  11.566  0.00  0.00    +0.000 A 
ATOM     10  C   UNL     1      50.710   8.532  12.760  0.00  0.00    +0.000 A 
ATOM     11  N   UNL     1      50.323   7.959  13.916  0.00  0.00    +0.000 NA
ATOM     12  C   UNL     1      49.210   7.185  13.868  0.00  0.00    +0.000 A 
ENDBRANCH   5   7
BRANCH   1  13
ATOM     13  O   UNL     1      44.472   5.499  10.595  0.00  0.00    +0.000 OA
BRANCH  13  14
ATOM     14  C   UNL     1      43.978   4.221  10.180  0.00  0.00    +0.000 C 
BRANCH  14  18
ATOM     15  C   UNL     1      46.739   2.319   7.446  0.00  0.00    +0.000 A 
ATOM     16  C   UNL     1      46.575   3.705   7.420  0.00  0.00    +0.000 A 
ATOM     17  C   UNL     1      45.676   4.326   8.291  0.00  0.00    +0.000 A 
ATOM     18  C   UNL     1      44.916   3.571   9.190  0.00  0.00    +0.000 A 
ATOM     19  C   UNL     1      45.093   2.180   9.219  0.00  0.00    +0.000 A 
ATOM     20  C   UNL     1      45.994   1.562   8.349  0.00  0.00    +0.000 A 
BRANCH  15  22
ATOM     21  C   UNL     1      47.948   2.193   5.411  0.00  0.00    +0.000 C 
ATOM     22  O   UNL     1      47.592   1.600   6.654  0.00  0.00    +0.000 OA
ENDBRANCH  15  22
ENDBRANCH  14  18
ENDBRANCH  13  14
ENDBRANCH   1  13
TORSDOF 5
ENDMDL
MODEL 4
REMARK VINA RESULT:    -6.923      2.647      6.803
REMARK INTER + INTRA:          -9.783
REMARK INTER:                  -9.101
REMARK INTRA:                  -0.682
REMARK UNBOUND:                -0.836
REMARK  Name = 
REMARK  6 active torsions:
REMARK  status: ('A' for Active; 'I' for Inactive)
REMARK    1  A    between atoms: C_1  and  O_2
REMARK    2  A    between atoms: O_2  and  C_3
REMARK    3  A    between atoms: C_6  and  C_7
REMARK    4  A    between atoms: C_7  and  O_8
REMARK    5  A    between atoms: O_8  and  C_9
REMARK    6  A    between atoms: C_13  and  C_14
REMARK                            x       y       z     vdW  Elec       q    Type
REMARK                         _______ _______ _______ _____ _____    ______ ____
ROOT
ATOM      1  C   UNL     1      44.223   5.100  10.909  0.00  0.00    +0.000 A 
ATOM      2  C   UNL     1      43.421   4.316  11.716  0.00  0.00    +0.000 A 
ATOM      3  C   UNL     1      43.366   2.952  11.452  0.00  0.00    +0.000 A 
ATOM      4  C   UNL     1      44.103   2.433  10.389  0.00  0.00    +0.000 A 
ATOM      5  C   UNL     1      44.882   3.291   9.617  0.00  0.00    +0.000 A 
ATOM      6  N   UNL     1      44.956   4.613   9.883  0.00  0.00    +0.000 NA
ENDROOT
BRANCH   5   7
ATOM      7  C   UNL     1      45.676   2.838   8.465  0.00  0.00    +0.000 A 
ATOM      8  C   UNL     1      46.040   3.693   7.416  0.00  0.00    +0.000 A 
ATOM      9  C   UNL     1      46.770   3.211   6.329  0.00  0.00    +0.000 A 
ATOM     10  C   UNL     1      47.129   1.876   6.319  0.00  0.00    +0.000 A 
ATOM     11  N   UNL     1      46.828   1.017   7.313  0.00  0.00    +0.000 NA
ATOM     12  C   UNL     1      46.120   1.517   8.356  0.00  0.00    +0.000 A 
ENDBRANCH   5   7
BRANCH   1  13
ATOM     13  O   UNL     1      44.251   6.452  11.176  0.00  0.00    +0.000 OA
BRANCH  13  14
ATOM     14  C   UNL     1      44.912   6.740  12.412  0.00  0.00    +0.000 C 
BRANCH  14  18
ATOM     15  C   UNL     1      48.547   9.018  11.854  0.00  0.00    +0.000 A 
ATOM     16  C   UNL     1      47.355   9.673  12.168  0.00  0.00    +0.000 A 
ATOM     17  C   UNL     1      46.174   8.946  12.338  0.00  0.00    +0.000 A 
ATOM     18  C   UNL     1      46.163   7.556  12.181  0.00  0.00    +0.000 A 
ATOM     19  C   UNL     1      47.366   6.903  11.875  0.00  0.00    +0.000 A 
ATOM     20  C   UNL     1      48.545   7.632  11.709  0.00  0.00    +0.000 A 
BRANCH  15  22
ATOM     21  C   UNL     1      50.842   8.759  11.317  0.00  0.00    +0.000 C 
ATOM     22  O   UNL     1      49.764   9.617  11.674  0.00  0.00    +0.000 OA
ENDBRANCH  15  22
ENDBRANCH  14  18
ENDBRANCH  13  14
ENDBRANCH   1  13
TORSDOF 5
ENDMDL
MODEL 5
REMARK VINA RESULT:    -6.761      2.688      6.986
REMARK INTER + INTRA:          -9.573
REMARK INTER:                  -9.078
REMARK INTRA:                  -0.496
REMARK UNBOUND:                -0.836
REMARK  Name = 
REMARK  6 active torsions:
REMARK  status: ('A' for Active; 'I' for Inactive)
REMARK    1  A    between atoms: C_1  and  O_2
REMARK    2  A    between atoms: O_2  and  C_3
REMARK    3  A    between atoms: C_6  and  C_7
REMARK    4  A    between atoms: C_7  and  O_8
REMARK    5  A    between atoms: O_8  and  C_9
REMARK    6  A    between atoms: C_13  and  C_14
REMARK                            x       y       z     vdW  Elec       q    Type
REMARK                         _______ _______ _______ _____ _____    ______ ____
ROOT
ATOM      1  C   UNL     1      44.475   4.736  10.831  0.00  0.00    +0.000 A 
ATOM      2  C   UNL     1      43.586   3.928  11.514  0.00  0.00    +0.000 A 
ATOM      3  C   UNL     1      43.443   2.613  11.089  0.00  0.00    +0.000 A 
ATOM      4  C   UNL     1      44.184   2.165   9.997  0.00  0.00    +0.000 A 
ATOM      5  C   UNL     1      45.054   3.044   9.357  0.00  0.00    +0.000 A 
ATOM      6  N   UNL     1      45.212   4.316   9.779  0.00  0.00    +0.000 NA
ENDROOT
BRANCH   5   7
ATOM      7  C   UNL     1      45.860   2.666   8.186  0.00  0.00    +0.000 A 
ATOM      8  C   UNL     1      46.119   3.552   7.131  0.00  0.00    +0.000 A 
ATOM      9  C   UNL     1      46.865   3.141   6.027  0.00  0.00    +0.000 A 
ATOM     10  C   UNL     1      47.345   1.845   6.005  0.00  0.00    +0.000 A 
ATOM     11  N   UNL     1      47.147   0.960   7.002  0.00  0.00    +0.000 NA
ATOM     12  C   UNL     1      46.421   1.393   8.063  0.00  0.00    +0.000 A 
ENDBRANCH   5   7
BRANCH   1  13
ATOM     13  O   UNL     1      44.590   6.043  11.257  0.00  0.00    +0.000 OA
BRANCH  13  14
ATOM     14  C   UNL     1      45.915   6.550  11.073  0.00  0.00    +0.000 C 
BRANCH  14  18
ATOM     15  C   UNL     1      48.339   6.169  14.636  0.00  0.00    +0.000 A 
ATOM     16  C   UNL     1      47.301   5.266  14.400  0.00  0.00    +0.000 A 
ATOM     17  C   UNL     1      46.505   5.390  13.257  0.00  0.00    +0.000 A 
ATOM     18  C   UNL     1      46.725   6.426  12.343  0.00  0.00    +0.000 A 
ATOM     19  C   UNL     1      47.776   7.323  12.582  0.00  0.00    +0.000 A 
ATOM     20  C   UNL     1      48.572   7.196  13.722  0.00  0.00    +0.000 A 
BRANCH  15  22
ATOM     21  C   UNL     1      50.069   7.256  15.838  0.00  0.00    +0.000 C 
ATOM     22  O   UNL     1      49.190   6.145  15.708  0.00  0.00    +0.000 OA
ENDBRANCH  15  22
ENDBRANCH  14  18
ENDBRANCH  13  14
ENDBRANCH   1  13
TORSDOF 5
ENDMDL
MODEL 6
REMARK VINA RESULT:    -6.641      3.458      7.575
REMARK INTER + INTRA:          -9.418
REMARK INTER:                  -8.931
REMARK INTRA:                  -0.487
REMARK UNBOUND:                -0.836
REMARK  Name = 
REMARK  6 active torsions:
REMARK  status: ('A' for Active; 'I' for Inactive)
REMARK    1  A    between atoms: C_1  and  O_2
REMARK    2  A    between atoms: O_2  and  C_3
REMARK    3  A    between atoms: C_6  and  C_7
REMARK    4  A    between atoms: C_7  and  O_8
REMARK    5  A    between atoms: O_8  and  C_9
REMARK    6  A    between atoms: C_13  and  C_14
REMARK                            x       y       z     vdW  Elec       q    Type
REMARK                         _______ _______ _______ _____ _____    ______ ____
ROOT
ATOM      1  C   UNL     1      44.813   4.304  12.894  0.00  0.00    +0.000 A 
ATOM      2  C   UNL     1      43.606   4.970  12.983  0.00  0.00    +0.000 A 
ATOM      3  C   UNL     1      42.889   5.177  11.811  0.00  0.00    +0.000 A 
ATOM      4  C   UNL     1      43.411   4.722  10.602  0.00  0.00    +0.000 A 
ATOM      5  C   UNL     1      44.639   4.065  10.595  0.00  0.00    +0.000 A 
ATOM      6  N   UNL     1      45.330   3.842  11.734  0.00  0.00    +0.000 NA
ENDROOT
BRANCH   5   7
ATOM      7  C   UNL     1      45.277   3.568   9.367  0.00  0.00    +0.000 A 
ATOM      8  C   UNL     1      45.483   2.203   9.123  0.00  0.00    +0.000 A 
ATOM      9  C   UNL     1      46.119   1.779   7.956  0.00  0.00    +0.000 A 
ATOM     10  C   UNL     1      46.532   2.737   7.049  0.00  0.00    +0.000 A 
ATOM     11  N   UNL     1      46.337   4.059   7.221  0.00  0.00    +0.000 NA
ATOM     12  C   UNL     1      45.713   4.438   8.364  0.00  0.00    +0.000 A 
ENDBRANCH   5   7
BRANCH   1  13
ATOM     13  O   UNL     1      45.518   4.124  14.066  0.00  0.00    +0.000 OA
BRANCH  13  14
ATOM     14  C   UNL     1      46.705   4.922  14.103  0.00  0.00    +0.000 C 
BRANCH  14  18
ATOM     15  C   UNL     1      49.016   4.278  17.704  0.00  0.00    +0.000 A 
ATOM     16  C   UNL     1      48.213   3.254  17.198  0.00  0.00    +0.000 A 
ATOM     17  C   UNL     1      47.454   3.458  16.042  0.00  0.00    +0.000 A 
ATOM     18  C   UNL     1      47.473   4.692  15.384  0.00  0.00    +0.000 A 
ATOM     19  C   UNL     1      48.290   5.713  15.891  0.00  0.00    +0.000 A 
ATOM     20  C   UNL     1      49.050   5.507  17.044  0.00  0.00    +0.000 A 
BRANCH  15  22
ATOM     21  C   UNL     1      51.176   4.553  18.642  0.00  0.00    +0.000 C 
ATOM     22  O   UNL     1      49.809   4.197  18.816  0.00  0.00    +0.000 OA
ENDBRANCH  15  22
ENDBRANCH  14  18
ENDBRANCH  13  14
ENDBRANCH   1  13
TORSDOF 5
ENDMDL
MODEL 7
REMARK VINA RESULT:    -6.610      2.100      3.074
REMARK INTER + INTRA:          -9.378
REMARK INTER:                  -8.668
REMARK INTRA:                  -0.710
REMARK UNBOUND:                -0.836
REMARK  Name = 
REMARK  6 active torsions:
REMARK  status: ('A' for Active; 'I' for Inactive)
REMARK    1  A    between atoms: C_1  and  O_2
REMARK    2  A    between atoms: O_2  and  C_3
REMARK    3  A    between atoms: C_6  and  C_7
REMARK    4  A    between atoms: C_7  and  O_8
REMARK    5  A    between atoms: O_8  and  C_9
REMARK    6  A    between atoms: C_13  and  C_14
REMARK                            x       y       z     vdW  Elec       q    Type
REMARK                         _______ _______ _______ _____ _____    ______ ____
ROOT
ATOM      1  C   UNL     1      45.450   5.775  12.187  0.00  0.00    +0.000 A 
ATOM      2  C   UNL     1      44.807   6.889  11.683  0.00  0.00    +0.000 A 
ATOM      3  C   UNL     1      45.346   8.138  11.970  0.00  0.00    +0.000 A 
ATOM      4  C   UNL     1      46.493   8.221  12.757  0.00  0.00    +0.000 A 
ATOM      5  C   UNL     1      47.078   7.051  13.234  0.00  0.00    +0.000 A 
ATOM      6  N   UNL     1      46.572   5.834  12.939  0.00  0.00    +0.000 NA
ENDROOT
BRANCH   5   7
ATOM      7  C   UNL     1      48.277   7.042  14.086  0.00  0.00    +0.000 A 
ATOM      8  C   UNL     1      49.396   7.843  13.823  0.00  0.00    +0.000 A 
ATOM      9  C   UNL     1      50.522   7.780  14.642  0.00  0.00    +0.000 A 
ATOM     10  C   UNL     1      50.502   6.915  15.720  0.00  0.00    +0.000 A 
ATOM     11  N   UNL     1      49.445   6.141  16.034  0.00  0.00    +0.000 NA
ATOM     12  C   UNL     1      48.364   6.228  15.219  0.00  0.00    +0.000 A 
ENDBRANCH   5   7
BRANCH   1  13
ATOM     13  O   UNL     1      44.891   4.547  11.905  0.00  0.00    +0.000 OA
BRANCH  13  14
ATOM     14  C   UNL     1      44.156   4.563  10.677  0.00  0.00    +0.000 C 
BRANCH  14  18
ATOM     15  C   UNL     1      46.398   2.462   7.632  0.00  0.00    +0.000 A 
ATOM     16  C   UNL     1      46.391   3.858   7.654  0.00  0.00    +0.000 A 
ATOM     17  C   UNL     1      45.659   4.544   8.627  0.00  0.00    +0.000 A 
ATOM     18  C   UNL     1      44.912   3.848   9.582  0.00  0.00    +0.000 A 
ATOM     19  C   UNL     1      44.931   2.446   9.560  0.00  0.00    +0.000 A 
ATOM     20  C   UNL     1      45.666   1.761   8.589  0.00  0.00    +0.000 A 
BRANCH  15  22
ATOM     21  C   UNL     1      47.651   2.350   5.622  0.00  0.00    +0.000 C 
ATOM     22  O   UNL     1      47.081   1.680   6.740  0.00  0.00    +0.000 OA
ENDBRANCH  15  22
ENDBRANCH  14  18
ENDBRANCH  13  14
ENDBRANCH   1  13
TORSDOF 5
ENDMDL
MODEL 8
REMARK VINA RESULT:    -6.323      2.642      6.916
REMARK INTER + INTRA:          -9.008
REMARK INTER:                  -8.371
REMARK INTRA:                  -0.637
REMARK UNBOUND:                -0.836
REMARK  Name = 
REMARK  6 active torsions:
REMARK  status: ('A' for Active; 'I' for Inactive)
REMARK    1  A    between atoms: C_1  and  O_2
REMARK    2  A    between atoms: O_2  and  C_3
REMARK    3  A    between atoms: C_6  and  C_7
REMARK    4  A    between atoms: C_7  and  O_8
REMARK    5  A    between atoms: O_8  and  C_9
REMARK    6  A    between atoms: C_13  and  C_14
REMARK                            x       y       z     vdW  Elec       q    Type
REMARK                         _______ _______ _______ _____ _____    ______ ____
ROOT
ATOM      1  C   UNL     1      44.893   5.074  12.787  0.00  0.00    +0.000 A 
ATOM      2  C   UNL     1      43.552   5.366  12.944  0.00  0.00    +0.000 A 
ATOM      3  C   UNL     1      42.695   5.078  11.889  0.00  0.00    +0.000 A 
ATOM      4  C   UNL     1      43.214   4.522  10.721  0.00  0.00    +0.000 A 
ATOM      5  C   UNL     1      44.579   4.265  10.637  0.00  0.00    +0.000 A 
ATOM      6  N   UNL     1      45.413   4.522  11.668  0.00  0.00    +0.000 NA
ENDROOT
BRANCH   5   7
ATOM      7  C   UNL     1      45.219   3.699   9.439  0.00  0.00    +0.000 A 
ATOM      8  C   UNL     1      45.372   2.320   9.246  0.00  0.00    +0.000 A 
ATOM      9  C   UNL     1      46.011   1.830   8.107  0.00  0.00    +0.000 A 
ATOM     10  C   UNL     1      46.480   2.738   7.176  0.00  0.00    +0.000 A 
ATOM     11  N   UNL     1      46.338   4.072   7.299  0.00  0.00    +0.000 NA
ATOM     12  C   UNL     1      45.709   4.516   8.417  0.00  0.00    +0.000 A 
ENDBRANCH   5   7
BRANCH   1  13
ATOM     13  O   UNL     1      45.730   5.383  13.838  0.00  0.00    +0.000 OA
BRANCH  13  14
ATOM     14  C   UNL     1      47.100   5.109  13.529  0.00  0.00    +0.000 C 
BRANCH  14  18
ATOM     15  C   UNL     1      49.244   8.835  13.037  0.00  0.00    +0.000 A 
ATOM     16  C   UNL     1      48.576   8.266  11.951  0.00  0.00    +0.000 A 
ATOM     17  C   UNL     1      47.892   7.057  12.099  0.00  0.00    +0.000 A 
ATOM     18  C   UNL     1      47.877   6.390  13.328  0.00  0.00    +0.000 A 
ATOM     19  C   UNL     1      48.541   6.972  14.417  0.00  0.00    +0.000 A 
ATOM     20  C   UNL     1      49.222   8.182  14.269  0.00  0.00    +0.000 A 
BRANCH  15  22
ATOM     21  C   UNL     1      49.293  11.132  13.623  0.00  0.00    +0.000 C 
ATOM     22  O   UNL     1      49.936  10.015  13.021  0.00  0.00    +0.000 OA
ENDBRANCH  15  22
ENDBRANCH  14  18
ENDBRANCH  13  14
ENDBRANCH   1  13
TORSDOF 5
ENDMDL
MODEL 9
REMARK VINA RESULT:    -6.299      3.044      4.439
REMARK INTER + INTRA:          -8.977
REMARK INTER:                  -8.539
REMARK INTRA:                  -0.438
REMARK UNBOUND:                -0.836
REMARK  Name = 
REMARK  6 active torsions:
REMARK  status: ('A' for Active; 'I' for Inactive)
REMARK    1  A    between atoms: C_1  and  O_2
REMARK    2  A    between atoms: O_2  and  C_3
REMARK    3  A    between atoms: C_6  and  C_7
REMARK    4  A    between atoms: C_7  and  O_8
REMARK    5  A    between atoms: O_8  and  C_9
REMARK    6  A    between atoms: C_13  and  C_14
REMARK                            x       y       z     vdW  Elec       q    Type
REMARK                         _______ _______ _______ _____ _____    ______ ____
ROOT
ATOM      1  C   UNL     1      46.213   4.556  13.425  0.00  0.00    +0.000 A 
ATOM      2  C   UNL     1      46.532   5.699  12.718  0.00  0.00    +0.000 A 
ATOM      3  C   UNL     1      47.432   6.590  13.290  0.00  0.00    +0.000 A 
ATOM      4  C   UNL     1      47.964   6.308  14.546  0.00  0.00    +0.000 A 
ATOM      5  C   UNL     1      47.587   5.137  15.200  0.00  0.00    +0.000 A 
ATOM      6  N   UNL     1      46.730   4.258  14.638  0.00  0.00    +0.000 NA
ENDROOT
BRANCH   5   7
ATOM      7  C   UNL     1      48.081   4.767  16.535  0.00  0.00    +0.000 A 
ATOM      8  C   UNL     1      48.912   5.605  17.291  0.00  0.00    +0.000 A 
ATOM      9  C   UNL     1      49.380   5.199  18.540  0.00  0.00    +0.000 A 
ATOM     10  C   UNL     1      48.998   3.957  19.013  0.00  0.00    +0.000 A 
ATOM     11  N   UNL     1      48.181   3.123  18.340  0.00  0.00    +0.000 NA
ATOM     12  C   UNL     1      47.740   3.549  17.129  0.00  0.00    +0.000 A 
ENDBRANCH   5   7
BRANCH   1  13
ATOM     13  O   UNL     1      45.305   3.693  12.848  0.00  0.00    +0.000 OA
BRANCH  13  14
ATOM     14  C   UNL     1      44.531   4.335  11.829  0.00  0.00    +0.000 C 
BRANCH  14  18
ATOM     15  C   UNL     1      45.700   3.146   7.838  0.00  0.00    +0.000 A 
ATOM     16  C   UNL     1      45.228   2.190   8.740  0.00  0.00    +0.000 A 
ATOM     17  C   UNL     1      44.860   2.564  10.035  0.00  0.00    +0.000 A 
ATOM     18  C   UNL     1      44.973   3.894  10.453  0.00  0.00    +0.000 A 
ATOM     19  C   UNL     1      45.438   4.850   9.539  0.00  0.00    +0.000 A 
ATOM     20  C   UNL     1      45.802   4.475   8.244  0.00  0.00    +0.000 A 
BRANCH  15  22
ATOM     21  C   UNL     1      47.455   2.610   6.337  0.00  0.00    +0.000 C 
ATOM     22  O   UNL     1      46.080   2.905   6.545  0.00  0.00    +0.000 OA
ENDBRANCH  15  22
ENDBRANCH  14  18
ENDBRANCH  13  14
ENDBRANCH   1  13
TORSDOF 5
ENDMDL
