MODEL 1
REMARK VINA RESULT:    -8.666      0.000      0.000
REMARK INTER + INTRA:         -13.165
REMARK INTER:                 -11.958
REMARK INTRA:                  -1.207
REMARK UNBOUND:                -1.207
REMARK  Name = 
REMARK  7 active torsions:
REMARK  status: ('A' for Active; 'I' for Inactive)
REMARK    1  A    between atoms: C_2  and  C_20
REMARK    2  A    between atoms: N_3  and  C_4
REMARK    3  A    between atoms: C_4  and  C_5
REMARK    4  A    between atoms: C_8  and  C_9
REMARK    5  A    between atoms: C_9  and  C_10
REMARK    6  A    between atoms: C_10  and  O_11
REMARK    7  A    between atoms: C_10  and  C_12
REMARK                            x       y       z     vdW  Elec       q    Type
REMARK                         _______ _______ _______ _____ _____    ______ ____
ROOT
ATOM      1  C   UNL     1      46.764   8.008  13.238  0.00  0.00    +0.000 C 
ENDROOT
BRANCH   1   2
ATOM      2  C   UNL     1      46.119   7.025  12.310  0.00  0.00    +0.000 A 
ATOM      3  C   UNL     1      46.647   6.753  11.047  0.00  0.00    +0.000 A 
ATOM      4  C   UNL     1      46.013   5.833  10.217  0.00  0.00    +0.000 A 
ATOM      5  C   UNL     1      44.873   5.179  10.679  0.00  0.00    +0.000 A 
ATOM      6  N   UNL     1      44.352   5.417  11.906  0.00  0.00    +0.000 NA
ATOM      7  C   UNL     1      44.982   6.322  12.692  0.00  0.00    +0.000 A 
BRANCH   5   8
ATOM      8  C   UNL     1      44.156   4.160   9.823  0.00  0.00    +0.000 C 
BRANCH   8   9
ATOM      9  C   UNL     1      44.837   2.779   9.845  0.00  0.00    +0.000 C 
BRANCH   9  10
ATOM     10  C   UNL     1      45.622   2.455   8.582  0.00  0.00    +0.000 A 
ATOM     11  C   UNL     1      45.784   3.448   7.612  0.00  0.00    +0.000 A 
ATOM     12  C   UNL     1      46.516   3.169   6.462  0.00  0.00    +0.000 A 
ATOM     13  C   UNL     1      47.073   1.909   6.308  0.00  0.00    +0.000 A 
ATOM     14  C   UNL     1      46.870   0.978   7.312  0.00  0.00    +0.000 A 
ATOM     15  N   UNL     1      46.161   1.221   8.439  0.00  0.00    +0.000 NA
ENDBRANCH   9  10
BRANCH   9  16
ATOM     16  O   UNL     1      43.875   1.734  10.045  0.00  0.00    +0.000 OA
ATOM     17  H   UNL     1      44.036   1.381  10.939  0.00  0.00    +0.000 HD
ENDBRANCH   9  16
ENDBRANCH   8   9
ENDBRANCH   5   8
ENDBRANCH   1   2
BRANCH   1  20
ATOM     18  O   UNL     1      49.293   6.815  13.482  0.00  0.00    +0.000 OA
ATOM     19  C   UNL     1      48.556   6.838  14.462  0.00  0.00    +0.000 C 
ATOM     20  N   UNL     1      47.287   7.358  14.413  0.00  0.00    +0.000 N 
ATOM     21  H   UNL     1      46.793   7.531  15.281  0.00  0.00    +0.000 HD
BRANCH  19  22
ATOM     22  C   UNL     1      48.957   6.244  15.743  0.00  0.00    +0.000 A 
ATOM     23  C   UNL     1      49.989   6.817  16.475  0.00  0.00    +0.000 A 
ATOM     24  S   UNL     1      50.364   5.968  17.907  0.00  0.00    +0.000 S 
ATOM     25  C   UNL     1      49.120   4.840  17.631  0.00  0.00    +0.000 A 
ATOM     26  N   UNL     1      48.881   3.832  18.512  0.00  0.00    +0.000 NA
ATOM     27  C   UNL     1      47.872   3.086  18.207  0.00  0.00    +0.000 A 
ATOM     28  N   UNL     1      47.086   3.252  17.096  0.00  0.00    +0.000 N 
ATOM     29  C   UNL     1      47.342   4.202  16.138  0.00  0.00    +0.000 A 
ATOM     30  O   UNL     1      46.708   4.234  15.087  0.00  0.00    +0.000 OA
ATOM     31  C   UNL     1      48.440   5.097  16.453  0.00  0.00    +0.000 A 
ATOM     32  H   UNL     1      46.324   2.618  16.903  0.00  0.00    +0.000 HD
ENDBRANCH  19  22
ENDBRANCH   1  20
TORSDOF 7
ENDMDL
MODEL 2
REMARK VINA RESULT:    -7.856      1.765      2.255
REMARK INTER + INTRA:         -12.047
REMARK INTER:                 -10.761
REMARK INTRA:                  -1.287
REMARK UNBOUND:                -1.207
REMARK  Name = 
REMARK  7 active torsions:
REMARK  status: ('A' for Active; 'I' for Inactive)
REMARK    1  A    between atoms: C_2  and  C_20
REMARK    2  A    between atoms: N_3  and  C_4
REMARK    3  A    between atoms: C_4  and  C_5
REMARK    4  A    between atoms: C_8  and  C_9
REMARK    5  A    between atoms: C_9  and  C_10
REMARK    6  A    between atoms: C_10  and  O_11
REMARK    7  A    between atoms: C_10  and  C_12
REMARK                            x       y       z     vdW  Elec       q    Type
REMARK                         _______ _______ _______ _____ _____    ______ ____
ROOT
ATOM      1  C   UNL     1      45.941   8.518  12.802  0.00  0.00    +0.000 C 
ENDROOT
BRANCH   1   2
ATOM      2  C   UNL     1      45.577   7.132  12.367  0.00  0.00    +0.000 A 
ATOM      3  C   UNL     1      44.538   6.423  12.971  0.00  0.00    +0.000 A 
ATOM      4  C   UNL     1      44.235   5.136  12.534  0.00  0.00    +0.000 A 
ATOM      5  C   UNL     1      44.963   4.591  11.479  0.00  0.00    +0.000 A 
ATOM      6  N   UNL     1      45.966   5.267  10.869  0.00  0.00    +0.000 NA
ATOM      7  C   UNL     1      46.247   6.514  11.318  0.00  0.00    +0.000 A 
BRANCH   5   8
ATOM      8  C   UNL     1      44.664   3.204  10.958  0.00  0.00    +0.000 C 
BRANCH   8   9
ATOM      9  C   UNL     1      44.231   3.204   9.481  0.00  0.00    +0.000 C 
BRANCH   9  10
ATOM     10  C   UNL     1      45.310   2.728   8.518  0.00  0.00    +0.000 A 
ATOM     11  C   UNL     1      45.812   3.622   7.570  0.00  0.00    +0.000 A 
ATOM     12  C   UNL     1      46.812   3.203   6.697  0.00  0.00    +0.000 A 
ATOM     13  C   UNL     1      47.291   1.907   6.794  0.00  0.00    +0.000 A 
ATOM     14  C   UNL     1      46.744   1.079   7.760  0.00  0.00    +0.000 A 
ATOM     15  N   UNL     1      45.770   1.458   8.619  0.00  0.00    +0.000 NA
ENDBRANCH   9  10
BRANCH   9  16
ATOM     16  O   UNL     1      43.817   4.513   9.066  0.00  0.00    +0.000 OA
ATOM     17  H   UNL     1      43.969   4.557   8.104  0.00  0.00    +0.000 HD
ENDBRANCH   9  16
ENDBRANCH   8   9
ENDBRANCH   5   8
ENDBRANCH   1   2
BRANCH   1  20
ATOM     18  O   UNL     1      48.701   8.996  12.994  0.00  0.00    +0.000 OA
ATOM     19  C   UNL     1      48.065   8.792  14.023  0.00  0.00    +0.000 C 
ATOM     20  N   UNL     1      46.723   8.502  14.011  0.00  0.00    +0.000 N 
ATOM     21  H   UNL     1      46.206   8.533  14.883  0.00  0.00    +0.000 HD
BRANCH  19  22
ATOM     22  C   UNL     1      48.715   8.774  15.339  0.00  0.00    +0.000 A 
ATOM     23  C   UNL     1      49.126   9.966  15.921  0.00  0.00    +0.000 A 
ATOM     24  S   UNL     1      49.912   9.759  17.422  0.00  0.00    +0.000 S 
ATOM     25  C   UNL     1      49.676   8.074  17.376  0.00  0.00    +0.000 A 
ATOM     26  N   UNL     1      50.105   7.280  18.393  0.00  0.00    +0.000 NA
ATOM     27  C   UNL     1      49.808   6.031  18.255  0.00  0.00    +0.000 A 
ATOM     28  N   UNL     1      49.130   5.503  17.187  0.00  0.00    +0.000 N 
ATOM     29  C   UNL     1      48.752   6.253  16.100  0.00  0.00    +0.000 A 
ATOM     30  O   UNL     1      48.273   5.728  15.099  0.00  0.00    +0.000 OA
ATOM     31  C   UNL     1      49.022   7.674  16.224  0.00  0.00    +0.000 A 
ATOM     32  H   UNL     1      48.949   4.511  17.128  0.00  0.00    +0.000 HD
ENDBRANCH  19  22
ENDBRANCH   1  20
TORSDOF 7
ENDMDL
MODEL 3
REMARK VINA RESULT:    -7.819      2.006      2.406
REMARK INTER + INTRA:         -11.996
REMARK INTER:                 -11.015
REMARK INTRA:                  -0.981
REMARK UNBOUND:                -1.207
REMARK  Name = 
REMARK  7 active torsions:
REMARK  status: ('A' for Active; 'I' for Inactive)
REMARK    1  A    between atoms: C_2  and  C_20
REMARK    2  A    between atoms: N_3  and  C_4
REMARK    3  A    between atoms: C_4  and  C_5
REMARK    4  A    between atoms: C_8  and  C_9
REMARK    5  A    between atoms: C_9  and  C_10
REMARK    6  A    between atoms: C_10  and  O_11
REMARK    7  A    between atoms: C_10  and  C_12
REMARK                            x       y       z     vdW  Elec       q    Type
REMARK                         _______ _______ _______ _____ _____    ______ ____
ROOT
ATOM      1  C   UNL     1      47.656   7.204  13.695  0.00  0.00    +0.000 C 
ENDROOT
BRANCH   1   2
ATOM      2  C   UNL     1      46.826   6.350  12.787  0.00  0.00    +0.000 A 
ATOM      3  C   UNL     1      46.279   5.140  13.216  0.00  0.00    +0.000 A 
ATOM      4  C   UNL     1      45.514   4.377  12.337  0.00  0.00    +0.000 A 
ATOM      5  C   UNL     1      45.286   4.856  11.049  0.00  0.00    +0.000 A 
ATOM      6  N   UNL     1      45.795   6.035  10.617  0.00  0.00    +0.000 NA
ATOM      7  C   UNL     1      46.543   6.753  11.487  0.00  0.00    +0.000 A 
BRANCH   5   8
ATOM      8  C   UNL     1      44.451   4.074  10.062  0.00  0.00    +0.000 C 
BRANCH   8   9
ATOM      9  C   UNL     1      44.972   2.642   9.843  0.00  0.00    +0.000 C 
BRANCH   9  10
ATOM     10  C   UNL     1      45.752   2.457   8.549  0.00  0.00    +0.000 A 
ATOM     11  C   UNL     1      45.870   3.537   7.670  0.00  0.00    +0.000 A 
ATOM     12  C   UNL     1      46.596   3.385   6.493  0.00  0.00    +0.000 A 
ATOM     13  C   UNL     1      47.192   2.164   6.222  0.00  0.00    +0.000 A 
ATOM     14  C   UNL     1      47.031   1.140   7.141  0.00  0.00    +0.000 A 
ATOM     15  N   UNL     1      46.328   1.259   8.292  0.00  0.00    +0.000 NA
ENDBRANCH   9  10
BRANCH   9  16
ATOM     16  O   UNL     1      43.894   1.695   9.846  0.00  0.00    +0.000 OA
ATOM     17  H   UNL     1      44.128   1.016  10.505  0.00  0.00    +0.000 HD
ENDBRANCH   9  16
ENDBRANCH   8   9
ENDBRANCH   5   8
ENDBRANCH   1   2
BRANCH   1  20
ATOM     18  O   UNL     1      50.009   6.650  15.121  0.00  0.00    +0.000 OA
ATOM     19  C   UNL     1      48.928   6.446  15.665  0.00  0.00    +0.000 C 
ATOM     20  N   UNL     1      47.733   6.645  15.020  0.00  0.00    +0.000 N 
ATOM     21  H   UNL     1      46.877   6.651  15.562  0.00  0.00    +0.000 HD
BRANCH  19  22
ATOM     22  C   UNL     1      48.840   5.906  17.027  0.00  0.00    +0.000 A 
ATOM     23  C   UNL     1      49.237   4.599  17.278  0.00  0.00    +0.000 A 
ATOM     24  S   UNL     1      49.016   4.117  18.900  0.00  0.00    +0.000 S 
ATOM     25  C   UNL     1      48.438   5.657  19.338  0.00  0.00    +0.000 A 
ATOM     26  N   UNL     1      48.080   5.931  20.621  0.00  0.00    +0.000 NA
ATOM     27  C   UNL     1      47.716   7.154  20.822  0.00  0.00    +0.000 A 
ATOM     28  N   UNL     1      47.670   8.124  19.856  0.00  0.00    +0.000 N 
ATOM     29  C   UNL     1      47.942   7.871  18.533  0.00  0.00    +0.000 A 
ATOM     30  O   UNL     1      47.755   8.724  17.670  0.00  0.00    +0.000 OA
ATOM     31  C   UNL     1      48.400   6.522  18.258  0.00  0.00    +0.000 A 
ATOM     32  H   UNL     1      47.353   9.058  20.075  0.00  0.00    +0.000 HD
ENDBRANCH  19  22
ENDBRANCH   1  20
TORSDOF 7
ENDMDL
MODEL 4
REMARK VINA RESULT:    -7.733      2.442      4.159
REMARK INTER + INTRA:         -11.879
REMARK INTER:                 -10.601
REMARK INTRA:                  -1.277
REMARK UNBOUND:                -1.207
REMARK  Name = 
REMARK  7 active torsions:
REMARK  status: ('A' for Active; 'I' for Inactive)
REMARK    1  A    between atoms: C_2  and  C_20
REMARK    2  A    between atoms: N_3  and  C_4
REMARK    3  A    between atoms: C_4  and  C_5
REMARK    4  A    between atoms: C_8  and  C_9
REMARK    5  A    between atoms: C_9  and  C_10
REMARK    6  A    between atoms: C_10  and  O_11
REMARK    7  A    between atoms: C_10  and  C_12
REMARK                            x       y       z     vdW  Elec       q    Type
REMARK                         _______ _______ _______ _____ _____    ______ ____
ROOT
ATOM      1  C   UNL     1      47.122   4.899  14.624  0.00  0.00    +0.000 C 
ENDROOT
BRANCH   1   2
ATOM      2  C   UNL     1      46.332   4.600  13.386  0.00  0.00    +0.000 A 
ATOM      3  C   UNL     1      46.047   3.291  12.996  0.00  0.00    +0.000 A 
ATOM      4  C   UNL     1      45.311   3.060  11.837  0.00  0.00    +0.000 A 
ATOM      5  C   UNL     1      44.847   4.149  11.103  0.00  0.00    +0.000 A 
ATOM      6  N   UNL     1      45.099   5.428  11.472  0.00  0.00    +0.000 NA
ATOM      7  C   UNL     1      45.825   5.626  12.598  0.00  0.00    +0.000 A 
BRANCH   5   8
ATOM      8  C   UNL     1      44.030   3.952   9.847  0.00  0.00    +0.000 C 
BRANCH   8   9
ATOM      9  C   UNL     1      44.811   4.307   8.567  0.00  0.00    +0.000 C 
BRANCH   9  10
ATOM     10  C   UNL     1      45.701   3.185   8.053  0.00  0.00    +0.000 A 
ATOM     11  C   UNL     1      46.718   3.491   7.146  0.00  0.00    +0.000 A 
ATOM     12  C   UNL     1      47.551   2.476   6.684  0.00  0.00    +0.000 A 
ATOM     13  C   UNL     1      47.354   1.183   7.141  0.00  0.00    +0.000 A 
ATOM     14  C   UNL     1      46.325   0.958   8.040  0.00  0.00    +0.000 A 
ATOM     15  N   UNL     1      45.500   1.924   8.504  0.00  0.00    +0.000 NA
ENDBRANCH   9  10
BRANCH   9  16
ATOM     16  O   UNL     1      45.634   5.464   8.771  0.00  0.00    +0.000 OA
ATOM     17  H   UNL     1      46.266   5.485   8.031  0.00  0.00    +0.000 HD
ENDBRANCH   9  16
ENDBRANCH   8   9
ENDBRANCH   5   8
ENDBRANCH   1   2
BRANCH   1  20
ATOM     18  O   UNL     1      49.442   5.929  15.821  0.00  0.00    +0.000 OA
ATOM     19  C   UNL     1      48.679   6.703  15.251  0.00  0.00    +0.000 C 
ATOM     20  N   UNL     1      47.501   6.287  14.684  0.00  0.00    +0.000 N 
ATOM     21  H   UNL     1      47.005   6.917  14.063  0.00  0.00    +0.000 HD
BRANCH  19  22
ATOM     22  C   UNL     1      48.944   8.146  15.199  0.00  0.00    +0.000 A 
ATOM     23  C   UNL     1      49.157   8.852  16.376  0.00  0.00    +0.000 A 
ATOM     24  S   UNL     1      49.392  10.525  16.137  0.00  0.00    +0.000 S 
ATOM     25  C   UNL     1      49.277  10.356  14.447  0.00  0.00    +0.000 A 
ATOM     26  N   UNL     1      49.412  11.432  13.626  0.00  0.00    +0.000 NA
ATOM     27  C   UNL     1      49.362  11.150  12.367  0.00  0.00    +0.000 A 
ATOM     28  N   UNL     1      49.179   9.892  11.855  0.00  0.00    +0.000 N 
ATOM     29  C   UNL     1      48.956   8.791  12.646  0.00  0.00    +0.000 A 
ATOM     30  O   UNL     1      48.655   7.706  12.156  0.00  0.00    +0.000 OA
ATOM     31  C   UNL     1      49.047   9.044  14.072  0.00  0.00    +0.000 A 
ATOM     32  H   UNL     1      49.126   9.742  10.858  0.00  0.00    +0.000 HD
ENDBRANCH  19  22
ENDBRANCH   1  20
TORSDOF 7
ENDMDL
MODEL 5
REMARK VINA RESULT:    -7.567      2.650      3.757
REMARK INTER + INTRA:         -11.649
REMARK INTER:                 -10.710
REMARK INTRA:                  -0.939
REMARK UNBOUND:                -1.207
REMARK  Name = 
REMARK  7 active torsions:
REMARK  status: ('A' for Active; 'I' for Inactive)
REMARK    1  A    between atoms: C_2  and  C_20
REMARK    2  A    between atoms: N_3  and  C_4
REMARK    3  A    between atoms: C_4  and  C_5
REMARK    4  A    between atoms: C_8  and  C_9
REMARK    5  A    between atoms: C_9  and  C_10
REMARK    6  A    between atoms: C_10  and  O_11
REMARK    7  A    between atoms: C_10  and  C_12
REMARK                            x       y       z     vdW  Elec       q    Type
REMARK                         _______ _______ _______ _____ _____    ______ ____
ROOT
ATOM      1  C   UNL     1      47.507   4.084  15.627  0.00  0.00    +0.000 C 
ENDROOT
BRANCH   1   2
ATOM      2  C   UNL     1      46.970   4.525  14.300  0.00  0.00    +0.000 A 
ATOM      3  C   UNL     1      47.301   5.763  13.748  0.00  0.00    +0.000 A 
ATOM      4  C   UNL     1      46.776   6.132  12.512  0.00  0.00    +0.000 A 
ATOM      5  C   UNL     1      45.948   5.239  11.836  0.00  0.00    +0.000 A 
ATOM      6  N   UNL     1      45.625   4.027  12.346  0.00  0.00    +0.000 NA
ATOM      7  C   UNL     1      46.141   3.695  13.553  0.00  0.00    +0.000 A 
BRANCH   5   8
ATOM      8  C   UNL     1      45.366   5.585  10.485  0.00  0.00    +0.000 C 
BRANCH   8   9
ATOM      9  C   UNL     1      44.624   4.402   9.836  0.00  0.00    +0.000 C 
BRANCH   9  10
ATOM     10  C   UNL     1      45.457   3.628   8.823  0.00  0.00    +0.000 A 
ATOM     11  C   UNL     1      45.556   2.241   8.948  0.00  0.00    +0.000 A 
ATOM     12  C   UNL     1      46.300   1.521   8.017  0.00  0.00    +0.000 A 
ATOM     13  C   UNL     1      46.921   2.201   6.982  0.00  0.00    +0.000 A 
ATOM     14  C   UNL     1      46.777   3.577   6.924  0.00  0.00    +0.000 A 
ATOM     15  N   UNL     1      46.063   4.302   7.816  0.00  0.00    +0.000 NA
ENDBRANCH   9  10
BRANCH   9  16
ATOM     16  O   UNL     1      43.429   4.843   9.177  0.00  0.00    +0.000 OA
ATOM     17  H   UNL     1      42.759   4.960   9.875  0.00  0.00    +0.000 HD
ENDBRANCH   9  16
ENDBRANCH   8   9
ENDBRANCH   5   8
ENDBRANCH   1   2
BRANCH   1  20
ATOM     18  O   UNL     1      49.696   5.470  16.707  0.00  0.00    +0.000 OA
ATOM     19  C   UNL     1      48.564   5.802  17.044  0.00  0.00    +0.000 C 
ATOM     20  N   UNL     1      47.444   5.145  16.599  0.00  0.00    +0.000 N 
ATOM     21  H   UNL     1      46.535   5.570  16.744  0.00  0.00    +0.000 HD
BRANCH  19  22
ATOM     22  C   UNL     1      48.333   6.888  18.004  0.00  0.00    +0.000 A 
ATOM     23  C   UNL     1      48.262   6.604  19.362  0.00  0.00    +0.000 A 
ATOM     24  S   UNL     1      47.932   7.970  20.330  0.00  0.00    +0.000 S 
ATOM     25  C   UNL     1      47.932   9.000  18.974  0.00  0.00    +0.000 A 
ATOM     26  N   UNL     1      47.725  10.337  19.111  0.00  0.00    +0.000 NA
ATOM     27  C   UNL     1      47.811  11.005  18.009  0.00  0.00    +0.000 A 
ATOM     28  N   UNL     1      48.075  10.455  16.782  0.00  0.00    +0.000 N 
ATOM     29  C   UNL     1      48.207   9.102  16.584  0.00  0.00    +0.000 A 
ATOM     30  O   UNL     1      48.302   8.630  15.455  0.00  0.00    +0.000 OA
ATOM     31  C   UNL     1      48.164   8.308  17.798  0.00  0.00    +0.000 A 
ATOM     32  H   UNL     1      48.105  11.031  15.953  0.00  0.00    +0.000 HD
ENDBRANCH  19  22
ENDBRANCH   1  20
TORSDOF 7
ENDMDL
MODEL 6
REMARK VINA RESULT:    -7.093      1.978      2.939
REMARK INTER + INTRA:         -10.995
REMARK INTER:                 -10.207
REMARK INTRA:                  -0.789
REMARK UNBOUND:                -1.207
REMARK  Name = 
REMARK  7 active torsions:
REMARK  status: ('A' for Active; 'I' for Inactive)
REMARK    1  A    between atoms: C_2  and  C_20
REMARK    2  A    between atoms: N_3  and  C_4
REMARK    3  A    between atoms: C_4  and  C_5
REMARK    4  A    between atoms: C_8  and  C_9
REMARK    5  A    between atoms: C_9  and  C_10
REMARK    6  A    between atoms: C_10  and  O_11
REMARK    7  A    between atoms: C_10  and  C_12
REMARK                            x       y       z     vdW  Elec       q    Type
REMARK                         _______ _______ _______ _____ _____    ______ ____
ROOT
ATOM      1  C   UNL     1      46.936   7.969  13.453  0.00  0.00    +0.000 C 
ENDROOT
BRANCH   1   2
ATOM      2  C   UNL     1      46.194   7.039  12.543  0.00  0.00    +0.000 A 
ATOM      3  C   UNL     1      44.876   6.658  12.799  0.00  0.00    +0.000 A 
ATOM      4  C   UNL     1      44.226   5.790  11.926  0.00  0.00    +0.000 A 
ATOM      5  C   UNL     1      44.901   5.339  10.794  0.00  0.00    +0.000 A 
ATOM      6  N   UNL     1      46.175   5.708  10.518  0.00  0.00    +0.000 NA
ATOM      7  C   UNL     1      46.788   6.546  11.387  0.00  0.00    +0.000 A 
BRANCH   5   8
ATOM      8  C   UNL     1      44.235   4.408   9.807  0.00  0.00    +0.000 C 
BRANCH   8   9
ATOM      9  C   UNL     1      44.848   2.995   9.815  0.00  0.00    +0.000 C 
BRANCH   9  10
ATOM     10  C   UNL     1      45.658   2.665   8.570  0.00  0.00    +0.000 A 
ATOM     11  C   UNL     1      45.850   3.656   7.604  0.00  0.00    +0.000 A 
ATOM     12  C   UNL     1      46.605   3.371   6.471  0.00  0.00    +0.000 A 
ATOM     13  C   UNL     1      47.156   2.108   6.330  0.00  0.00    +0.000 A 
ATOM     14  C   UNL     1      46.923   1.178   7.329  0.00  0.00    +0.000 A 
ATOM     15  N   UNL     1      46.191   1.426   8.439  0.00  0.00    +0.000 NA
ENDBRANCH   9  10
BRANCH   9  16
ATOM     16  O   UNL     1      43.830   1.994   9.956  0.00  0.00    +0.000 OA
ATOM     17  H   UNL     1      43.592   1.976  10.901  0.00  0.00    +0.000 HD
ENDBRANCH   9  16
ENDBRANCH   8   9
ENDBRANCH   5   8
ENDBRANCH   1   2
BRANCH   1  20
ATOM     18  O   UNL     1      48.359   9.018  15.633  0.00  0.00    +0.000 OA
ATOM     19  C   UNL     1      48.521   7.839  15.336  0.00  0.00    +0.000 C 
ATOM     20  N   UNL     1      47.900   7.263  14.256  0.00  0.00    +0.000 N 
ATOM     21  H   UNL     1      47.909   6.253  14.165  0.00  0.00    +0.000 HD
BRANCH  19  22
ATOM     22  C   UNL     1      49.448   6.977  16.080  0.00  0.00    +0.000 A 
ATOM     23  C   UNL     1      48.953   6.069  17.006  0.00  0.00    +0.000 A 
ATOM     24  S   UNL     1      50.168   5.190  17.820  0.00  0.00    +0.000 S 
ATOM     25  C   UNL     1      51.397   5.948  16.919  0.00  0.00    +0.000 A 
ATOM     26  N   UNL     1      52.705   5.628  17.111  0.00  0.00    +0.000 NA
ATOM     27  C   UNL     1      53.524   6.237  16.320  0.00  0.00    +0.000 A 
ATOM     28  N   UNL     1      53.155   7.143  15.361  0.00  0.00    +0.000 N 
ATOM     29  C   UNL     1      51.856   7.558  15.188  0.00  0.00    +0.000 A 
ATOM     30  O   UNL     1      51.577   8.473  14.418  0.00  0.00    +0.000 OA
ATOM     31  C   UNL     1      50.887   6.871  16.022  0.00  0.00    +0.000 A 
ATOM     32  H   UNL     1      53.849   7.602  14.788  0.00  0.00    +0.000 HD
ENDBRANCH  19  22
ENDBRANCH   1  20
TORSDOF 7
ENDMDL
MODEL 7
REMARK VINA RESULT:    -6.946      2.815      8.250
REMARK INTER + INTRA:         -10.792
REMARK INTER:                  -9.617
REMARK INTRA:                  -1.175
REMARK UNBOUND:                -1.207
REMARK  Name = 
REMARK  7 active torsions:
REMARK  status: ('A' for Active; 'I' for Inactive)
REMARK    1  A    between atoms: C_2  and  C_20
REMARK    2  A    between atoms: N_3  and  C_4
REMARK    3  A    between atoms: C_4  and  C_5
REMARK    4  A    between atoms: C_8  and  C_9
REMARK    5  A    between atoms: C_9  and  C_10
REMARK    6  A    between atoms: C_10  and  O_11
REMARK    7  A    between atoms: C_10  and  C_12
REMARK                            x       y       z     vdW  Elec       q    Type
REMARK                         _______ _______ _______ _____ _____    ______ ____
ROOT
ATOM      1  C   UNL     1      47.365   7.768  11.974  0.00  0.00    +0.000 C 
ENDROOT
BRANCH   1   2
ATOM      2  C   UNL     1      48.009   7.749  13.326  0.00  0.00    +0.000 A 
ATOM      3  C   UNL     1      47.982   8.863  14.167  0.00  0.00    +0.000 A 
ATOM      4  C   UNL     1      48.596   8.800  15.415  0.00  0.00    +0.000 A 
ATOM      5  C   UNL     1      49.204   7.611  15.811  0.00  0.00    +0.000 A 
ATOM      6  N   UNL     1      49.229   6.514  15.016  0.00  0.00    +0.000 NA
ATOM      7  C   UNL     1      48.633   6.603  13.804  0.00  0.00    +0.000 A 
BRANCH   5   8
ATOM      8  C   UNL     1      49.870   7.487  17.162  0.00  0.00    +0.000 C 
BRANCH   8   9
ATOM      9  C   UNL     1      49.192   6.442  18.067  0.00  0.00    +0.000 C 
BRANCH   9  10
ATOM     10  C   UNL     1      49.629   5.009  17.796  0.00  0.00    +0.000 A 
ATOM     11  C   UNL     1      50.989   4.695  17.855  0.00  0.00    +0.000 A 
ATOM     12  C   UNL     1      51.399   3.385  17.627  0.00  0.00    +0.000 A 
ATOM     13  C   UNL     1      50.444   2.419  17.352  0.00  0.00    +0.000 A 
ATOM     14  C   UNL     1      49.116   2.806  17.311  0.00  0.00    +0.000 A 
ATOM     15  N   UNL     1      48.689   4.073  17.525  0.00  0.00    +0.000 NA
ENDBRANCH   9  10
BRANCH   9  16
ATOM     16  O   UNL     1      47.764   6.498  17.937  0.00  0.00    +0.000 OA
ATOM     17  H   UNL     1      47.527   5.863  17.236  0.00  0.00    +0.000 HD
ENDBRANCH   9  16
ENDBRANCH   8   9
ENDBRANCH   5   8
ENDBRANCH   1   2
BRANCH   1  20
ATOM     18  O   UNL     1      44.585   7.383  12.033  0.00  0.00    +0.000 OA
ATOM     19  C   UNL     1      45.304   6.442  11.710  0.00  0.00    +0.000 C 
ATOM     20  N   UNL     1      46.673   6.534  11.702  0.00  0.00    +0.000 N 
ATOM     21  H   UNL     1      47.213   5.806  11.248  0.00  0.00    +0.000 HD
BRANCH  19  22
ATOM     22  C   UNL     1      44.747   5.126  11.373  0.00  0.00    +0.000 A 
ATOM     23  C   UNL     1      43.934   4.467  12.287  0.00  0.00    +0.000 A 
ATOM     24  S   UNL     1      43.421   2.928  11.760  0.00  0.00    +0.000 S 
ATOM     25  C   UNL     1      44.216   3.113  10.266  0.00  0.00    +0.000 A 
ATOM     26  N   UNL     1      44.158   2.140   9.318  0.00  0.00    +0.000 NA
ATOM     27  C   UNL     1      44.757   2.437   8.213  0.00  0.00    +0.000 A 
ATOM     28  N   UNL     1      45.416   3.615   7.974  0.00  0.00    +0.000 N 
ATOM     29  C   UNL     1      45.570   4.590   8.930  0.00  0.00    +0.000 A 
ATOM     30  O   UNL     1      46.284   5.568   8.733  0.00  0.00    +0.000 OA
ATOM     31  C   UNL     1      44.878   4.326  10.178  0.00  0.00    +0.000 A 
ATOM     32  H   UNL     1      45.884   3.777   7.094  0.00  0.00    +0.000 HD
ENDBRANCH  19  22
ENDBRANCH   1  20
TORSDOF 7
ENDMDL
MODEL 8
REMARK VINA RESULT:    -6.648      1.786      2.256
REMARK INTER + INTRA:         -10.381
REMARK INTER:                  -9.560
REMARK INTRA:                  -0.821
REMARK UNBOUND:                -1.207
REMARK  Name = 
REMARK  7 active torsions:
REMARK  status: ('A' for Active; 'I' for Inactive)
REMARK    1  A    between atoms: C_2  and  C_20
REMARK    2  A    between atoms: N_3  and  C_4
REMARK    3  A    between atoms: C_4  and  C_5
REMARK    4  A    between atoms: C_8  and  C_9
REMARK    5  A    between atoms: C_9  and  C_10
REMARK    6  A    between atoms: C_10  and  O_11
REMARK    7  A    between atoms: C_10  and  C_12
REMARK                            x       y       z     vdW  Elec       q    Type
REMARK                         _______ _______ _______ _____ _____    ______ ____
ROOT
ATOM      1  C   UNL     1      49.320   7.593  13.462  0.00  0.00    +0.000 C 
ENDROOT
BRANCH   1   2
ATOM      2  C   UNL     1      48.008   7.091  12.942  0.00  0.00    +0.000 A 
ATOM      3  C   UNL     1      47.595   5.773  13.141  0.00  0.00    +0.000 A 
ATOM      4  C   UNL     1      46.368   5.350  12.638  0.00  0.00    +0.000 A 
ATOM      5  C   UNL     1      45.560   6.265  11.967  0.00  0.00    +0.000 A 
ATOM      6  N   UNL     1      45.934   7.552  11.775  0.00  0.00    +0.000 NA
ATOM      7  C   UNL     1      47.137   7.937  12.266  0.00  0.00    +0.000 A 
BRANCH   5   8
ATOM      8  C   UNL     1      44.213   5.860  11.416  0.00  0.00    +0.000 C 
BRANCH   8   9
ATOM      9  C   UNL     1      44.041   4.332  11.326  0.00  0.00    +0.000 C 
BRANCH   9  10
ATOM     10  C   UNL     1      44.664   3.710  10.085  0.00  0.00    +0.000 A 
ATOM     11  C   UNL     1      45.255   4.545   9.134  0.00  0.00    +0.000 A 
ATOM     12  C   UNL     1      45.844   3.986   8.004  0.00  0.00    +0.000 A 
ATOM     13  C   UNL     1      45.835   2.608   7.852  0.00  0.00    +0.000 A 
ATOM     14  C   UNL     1      45.230   1.846   8.837  0.00  0.00    +0.000 A 
ATOM     15  N   UNL     1      44.648   2.363   9.943  0.00  0.00    +0.000 NA
ENDBRANCH   9  10
BRANCH   9  16
ATOM     16  O   UNL     1      42.653   3.968  11.352  0.00  0.00    +0.000 OA
ATOM     17  H   UNL     1      42.349   3.980  10.427  0.00  0.00    +0.000 HD
ENDBRANCH   9  16
ENDBRANCH   8   9
ENDBRANCH   5   8
ENDBRANCH   1   2
BRANCH   1  20
ATOM     18  O   UNL     1      48.146   8.971  15.606  0.00  0.00    +0.000 OA
ATOM     19  C   UNL     1      48.836   7.986  15.846  0.00  0.00    +0.000 C 
ATOM     20  N   UNL     1      49.484   7.286  14.860  0.00  0.00    +0.000 N 
ATOM     21  H   UNL     1      49.878   6.378  15.079  0.00  0.00    +0.000 HD
BRANCH  19  22
ATOM     22  C   UNL     1      49.074   7.528  17.221  0.00  0.00    +0.000 A 
ATOM     23  C   UNL     1      49.504   8.431  18.185  0.00  0.00    +0.000 A 
ATOM     24  S   UNL     1      49.785   7.720  19.710  0.00  0.00    +0.000 S 
ATOM     25  C   UNL     1      49.284   6.192  19.153  0.00  0.00    +0.000 A 
ATOM     26  N   UNL     1      49.264   5.116  19.985  0.00  0.00    +0.000 NA
ATOM     27  C   UNL     1      48.807   4.035  19.446  0.00  0.00    +0.000 A 
ATOM     28  N   UNL     1      48.377   3.930  18.149  0.00  0.00    +0.000 N 
ATOM     29  C   UNL     1      48.458   4.968  17.251  0.00  0.00    +0.000 A 
ATOM     30  O   UNL     1      48.198   4.803  16.063  0.00  0.00    +0.000 OA
ATOM     31  C   UNL     1      48.923   6.220  17.817  0.00  0.00    +0.000 A 
ATOM     32  H   UNL     1      48.052   3.048  17.781  0.00  0.00    +0.000 HD
ENDBRANCH  19  22
ENDBRANCH   1  20
TORSDOF 7
ENDMDL
MODEL 9
REMARK VINA RESULT:    -6.312      3.754      9.602
REMARK INTER + INTRA:          -9.917
REMARK INTER:                  -8.764
REMARK INTRA:                  -1.153
REMARK UNBOUND:                -1.207
REMARK  Name = 
REMARK  7 active torsions:
REMARK  status: ('A' for Active; 'I' for Inactive)
REMARK    1  A    between atoms: C_2  and  C_20
REMARK    2  A    between atoms: N_3  and  C_4
REMARK    3  A    between atoms: C_4  and  C_5
REMARK    4  A    between atoms: C_8  and  C_9
REMARK    5  A    between atoms: C_9  and  C_10
REMARK    6  A    between atoms: C_10  and  O_11
REMARK    7  A    between atoms: C_10  and  C_12
REMARK                            x       y       z     vdW  Elec       q    Type
REMARK                         _______ _______ _______ _____ _____    ______ ____
ROOT
ATOM      1  C   UNL     1      47.524   3.735  16.474  0.00  0.00    +0.000 C 
ENDROOT
BRANCH   1   2
ATOM      2  C   UNL     1      48.040   4.496  17.657  0.00  0.00    +0.000 A 
ATOM      3  C   UNL     1      47.180   5.134  18.551  0.00  0.00    +0.000 A 
ATOM      4  C   UNL     1      47.704   5.831  19.637  0.00  0.00    +0.000 A 
ATOM      5  C   UNL     1      49.085   5.853  19.822  0.00  0.00    +0.000 A 
ATOM      6  N   UNL     1      49.937   5.229  18.975  0.00  0.00    +0.000 NA
ATOM      7  C   UNL     1      49.403   4.565  17.922  0.00  0.00    +0.000 A 
BRANCH   5   8
ATOM      8  C   UNL     1      49.703   6.583  20.993  0.00  0.00    +0.000 C 
BRANCH   8   9
ATOM      9  C   UNL     1      50.272   7.960  20.603  0.00  0.00    +0.000 C 
BRANCH   9  10
ATOM     10  C   UNL     1      49.274   8.865  19.895  0.00  0.00    +0.000 A 
ATOM     11  C   UNL     1      48.192   9.375  20.619  0.00  0.00    +0.000 A 
ATOM     12  C   UNL     1      47.284  10.219  19.988  0.00  0.00    +0.000 A 
ATOM     13  C   UNL     1      47.478  10.539  18.653  0.00  0.00    +0.000 A 
ATOM     14  C   UNL     1      48.573   9.996  18.003  0.00  0.00    +0.000 A 
ATOM     15  N   UNL     1      49.470   9.171  18.591  0.00  0.00    +0.000 NA
ENDBRANCH   9  10
BRANCH   9  16
ATOM     16  O   UNL     1      51.419   7.820  19.753  0.00  0.00    +0.000 OA
ATOM     17  H   UNL     1      52.191   7.750  20.343  0.00  0.00    +0.000 HD
ENDBRANCH   9  16
ENDBRANCH   8   9
ENDBRANCH   5   8
ENDBRANCH   1   2
BRANCH   1  20
ATOM     18  O   UNL     1      47.229   3.216  13.732  0.00  0.00    +0.000 OA
ATOM     19  C   UNL     1      46.779   4.263  14.185  0.00  0.00    +0.000 C 
ATOM     20  N   UNL     1      46.924   4.614  15.504  0.00  0.00    +0.000 N 
ATOM     21  H   UNL     1      46.375   5.383  15.871  0.00  0.00    +0.000 HD
BRANCH  19  22
ATOM     22  C   UNL     1      46.110   5.249  13.328  0.00  0.00    +0.000 A 
ATOM     23  C   UNL     1      46.760   6.433  13.002  0.00  0.00    +0.000 A 
ATOM     24  S   UNL     1      45.820   7.489  12.047  0.00  0.00    +0.000 S 
ATOM     25  C   UNL     1      44.533   6.376  11.985  0.00  0.00    +0.000 A 
ATOM     26  N   UNL     1      43.397   6.658  11.292  0.00  0.00    +0.000 NA
ATOM     27  C   UNL     1      42.529   5.702  11.280  0.00  0.00    +0.000 A 
ATOM     28  N   UNL     1      42.690   4.494  11.907  0.00  0.00    +0.000 N 
ATOM     29  C   UNL     1      43.783   4.198  12.686  0.00  0.00    +0.000 A 
ATOM     30  O   UNL     1      43.833   3.165  13.347  0.00  0.00    +0.000 OA
ATOM     31  C   UNL     1      44.811   5.222  12.696  0.00  0.00    +0.000 A 
ATOM     32  H   UNL     1      41.962   3.795  11.878  0.00  0.00    +0.000 HD
ENDBRANCH  19  22
ENDBRANCH   1  20
TORSDOF 7
ENDMDL
