MODEL 1
REMARK VINA RESULT:    -9.831      0.000      0.000
REMARK INTER + INTRA:         -11.499
REMARK INTER:                 -11.555
REMARK INTRA:                   0.056
REMARK UNBOUND:                 0.056
REMARK  Name = 
REMARK  5 active torsions:
REMARK  status: ('A' for Active; 'I' for Inactive)
REMARK    1  A    between atoms: C_1  and  C_2
REMARK    2  A    between atoms: C_6  and  C_7
REMARK    3  A    between atoms: C_13  and  C_14
REMARK    4  A    between atoms: C_14  and  N_15
REMARK    5  A    between atoms: C_19  and  C_20
REMARK                            x       y       z     vdW  Elec       q    Type
REMARK                         _______ _______ _______ _____ _____    ______ ____
ROOT
ATOM      1  C   UNL     1      43.979   5.079  11.256  0.00  0.00    +0.000 C 
ATOM      2  C   UNL     1      42.618   5.588  11.692  0.00  0.00    +0.000 C 
ATOM      3  C   UNL     1      42.824   4.115  11.561  0.00  0.00    +0.000 C 
ENDROOT
BRANCH   1  16
ATOM      4  C   UNL     1      49.678   7.531  14.983  0.00  0.00    +0.000 C 
ATOM      5  C   UNL     1      49.155   7.059  13.625  0.00  0.00    +0.000 C 
ATOM      6  C   UNL     1      49.905   7.735  12.456  0.00  0.00    +0.000 C 
ATOM      7  O   UNL     1      49.597   9.128  12.343  0.00  0.00    +0.000 OA
ATOM      8  C   UNL     1      48.193   9.303  12.094  0.00  0.00    +0.000 C 
ATOM      9  C   UNL     1      47.335   8.735  13.244  0.00  0.00    +0.000 C 
ATOM     10  C   UNL     1      45.859   9.033  13.006  0.00  0.00    +0.000 C 
ATOM     11  N   UNL     1      47.695   7.322  13.537  0.00  0.00    +0.000 N 
ATOM     12  C   UNL     1      46.861   6.226  13.381  0.00  0.00    +0.000 A 
ATOM     13  C   UNL     1      47.059   5.056  14.131  0.00  0.00    +0.000 A 
ATOM     14  N   UNL     1      46.362   3.906  13.978  0.00  0.00    +0.000 NA
ATOM     15  C   UNL     1      45.403   3.961  13.030  0.00  0.00    +0.000 A 
ATOM     16  C   UNL     1      45.115   5.101  12.288  0.00  0.00    +0.000 A 
ATOM     17  N   UNL     1      45.851   6.242  12.483  0.00  0.00    +0.000 NA
ENDBRANCH   1  16
BRANCH   1  18
ATOM     18  N   UNL     1      44.375   5.113   9.831  0.00  0.00    +0.000 N 
ATOM     19  C   UNL     1      45.130   4.173   9.132  0.00  0.00    +0.000 A 
ATOM     20  C   UNL     1      45.213   2.821   9.446  0.00  0.00    +0.000 A 
ATOM     21  C   UNL     1      45.933   1.951   8.621  0.00  0.00    +0.000 A 
ATOM     22  C   UNL     1      46.565   2.457   7.490  0.00  0.00    +0.000 A 
ATOM     23  C   UNL     1      46.425   3.809   7.231  0.00  0.00    +0.000 A 
ATOM     24  N   UNL     1      45.734   4.666   8.027  0.00  0.00    +0.000 NA
ATOM     25  H   UNL     1      44.599   6.014   9.417  0.00  0.00    +0.000 HD
BRANCH  22  26
ATOM     26  C   UNL     1      47.343   1.619   6.555  0.00  0.00    +0.000 C 
ATOM     27  N   UNL     1      48.307   2.236   5.808  0.00  0.00    +0.000 N 
ATOM     28  O   UNL     1      47.114   0.425   6.426  0.00  0.00    +0.000 OA
ATOM     29  H   UNL     1      48.369   3.240   5.710  0.00  0.00    +0.000 HD
ATOM     30  H   UNL     1      48.757   1.669   5.100  0.00  0.00    +0.000 HD
ENDBRANCH  22  26
ENDBRANCH   1  18
TORSDOF 3
ENDMDL
MODEL 2
REMARK VINA RESULT:    -7.482      1.670      2.238
REMARK INTER + INTRA:          -8.739
REMARK INTER:                  -8.132
REMARK INTRA:                  -0.607
REMARK UNBOUND:                 0.056
REMARK  Name = 
REMARK  5 active torsions:
REMARK  status: ('A' for Active; 'I' for Inactive)
REMARK    1  A    between atoms: C_1  and  C_2
REMARK    2  A    between atoms: C_6  and  C_7
REMARK    3  A    between atoms: C_13  and  C_14
REMARK    4  A    between atoms: C_14  and  N_15
REMARK    5  A    between atoms: C_19  and  C_20
REMARK                            x       y       z     vdW  Elec       q    Type
REMARK                         _______ _______ _______ _____ _____    ______ ____
ROOT
ATOM      1  C   UNL     1      44.198   5.378  11.555  0.00  0.00    +0.000 C 
ATOM      2  C   UNL     1      43.024   6.182  11.030  0.00  0.00    +0.000 C 
ATOM      3  C   UNL     1      42.831   5.347  12.253  0.00  0.00    +0.000 C 
ENDROOT
BRANCH   1  16
ATOM      4  C   UNL     1      48.543  10.840  13.471  0.00  0.00    +0.000 C 
ATOM      5  C   UNL     1      48.146   9.859  12.366  0.00  0.00    +0.000 C 
ATOM      6  C   UNL     1      48.378  10.456  10.961  0.00  0.00    +0.000 C 
ATOM      7  O   UNL     1      47.464  11.516  10.660  0.00  0.00    +0.000 OA
ATOM      8  C   UNL     1      46.115  11.023  10.686  0.00  0.00    +0.000 C 
ATOM      9  C   UNL     1      45.736  10.471  12.077  0.00  0.00    +0.000 C 
ATOM     10  C   UNL     1      44.269  10.061  12.106  0.00  0.00    +0.000 C 
ATOM     11  N   UNL     1      46.724   9.463  12.543  0.00  0.00    +0.000 N 
ATOM     12  C   UNL     1      46.464   8.121  12.772  0.00  0.00    +0.000 A 
ATOM     13  C   UNL     1      47.249   7.376  13.666  0.00  0.00    +0.000 A 
ATOM     14  N   UNL     1      47.134   6.045  13.880  0.00  0.00    +0.000 NA
ATOM     15  C   UNL     1      46.157   5.451  13.162  0.00  0.00    +0.000 A 
ATOM     16  C   UNL     1      45.307   6.134  12.301  0.00  0.00    +0.000 A 
ATOM     17  N   UNL     1      45.464   7.485  12.121  0.00  0.00    +0.000 NA
ENDBRANCH   1  16
BRANCH   1  18
ATOM     18  N   UNL     1      44.578   4.098  10.920  0.00  0.00    +0.000 N 
ATOM     19  C   UNL     1      45.200   3.908   9.687  0.00  0.00    +0.000 A 
ATOM     20  C   UNL     1      46.041   4.824   9.065  0.00  0.00    +0.000 A 
ATOM     21  C   UNL     1      46.681   4.491   7.868  0.00  0.00    +0.000 A 
ATOM     22  C   UNL     1      46.462   3.237   7.308  0.00  0.00    +0.000 A 
ATOM     23  C   UNL     1      45.626   2.370   7.990  0.00  0.00    +0.000 A 
ATOM     24  N   UNL     1      44.994   2.683   9.151  0.00  0.00    +0.000 NA
ATOM     25  H   UNL     1      43.963   3.297  11.048  0.00  0.00    +0.000 HD
BRANCH  22  26
ATOM     26  C   UNL     1      47.095   2.790   6.051  0.00  0.00    +0.000 C 
ATOM     27  N   UNL     1      48.428   2.488   6.089  0.00  0.00    +0.000 N 
ATOM     28  O   UNL     1      46.464   2.725   5.006  0.00  0.00    +0.000 OA
ATOM     29  H   UNL     1      49.029   2.750   6.858  0.00  0.00    +0.000 HD
ATOM     30  H   UNL     1      48.867   2.285   5.200  0.00  0.00    +0.000 HD
ENDBRANCH  22  26
ENDBRANCH   1  18
TORSDOF 3
ENDMDL
MODEL 3
REMARK VINA RESULT:    -7.353      4.966      8.094
REMARK INTER + INTRA:          -8.587
REMARK INTER:                  -8.217
REMARK INTRA:                  -0.370
REMARK UNBOUND:                 0.056
REMARK  Name = 
REMARK  5 active torsions:
REMARK  status: ('A' for Active; 'I' for Inactive)
REMARK    1  A    between atoms: C_1  and  C_2
REMARK    2  A    between atoms: C_6  and  C_7
REMARK    3  A    between atoms: C_13  and  C_14
REMARK    4  A    between atoms: C_14  and  N_15
REMARK    5  A    between atoms: C_19  and  C_20
REMARK                            x       y       z     vdW  Elec       q    Type
REMARK                         _______ _______ _______ _____ _____    ______ ____
ROOT
ATOM      1  C   UNL     1      49.118   5.352  17.529  0.00  0.00    +0.000 C 
ATOM      2  C   UNL     1      48.401   5.330  18.866  0.00  0.00    +0.000 C 
ATOM      3  C   UNL     1      48.808   6.647  18.292  0.00  0.00    +0.000 C 
ENDROOT
BRANCH   1  16
ATOM      4  C   UNL     1      46.011   6.670  11.127  0.00  0.00    +0.000 C 
ATOM      5  C   UNL     1      46.059   7.026  12.613  0.00  0.00    +0.000 C 
ATOM      6  C   UNL     1      45.665   8.499  12.862  0.00  0.00    +0.000 C 
ATOM      7  O   UNL     1      46.651   9.417  12.378  0.00  0.00    +0.000 OA
ATOM      8  C   UNL     1      47.899   9.199  13.056  0.00  0.00    +0.000 C 
ATOM      9  C   UNL     1      48.439   7.775  12.812  0.00  0.00    +0.000 C 
ATOM     10  C   UNL     1      49.814   7.610  13.448  0.00  0.00    +0.000 C 
ATOM     11  N   UNL     1      47.418   6.747  13.146  0.00  0.00    +0.000 N 
ATOM     12  C   UNL     1      47.521   5.801  14.154  0.00  0.00    +0.000 A 
ATOM     13  C   UNL     1      46.812   4.592  14.084  0.00  0.00    +0.000 A 
ATOM     14  N   UNL     1      46.773   3.655  15.060  0.00  0.00    +0.000 NA
ATOM     15  C   UNL     1      47.511   3.959  16.149  0.00  0.00    +0.000 A 
ATOM     16  C   UNL     1      48.280   5.110  16.264  0.00  0.00    +0.000 A 
ATOM     17  N   UNL     1      48.287   6.028  15.245  0.00  0.00    +0.000 NA
ENDBRANCH   1  16
BRANCH   1  18
ATOM     18  N   UNL     1      50.560   5.035  17.441  0.00  0.00    +0.000 N 
ATOM     19  C   UNL     1      51.171   3.792  17.589  0.00  0.00    +0.000 A 
ATOM     20  C   UNL     1      50.568   2.567  17.324  0.00  0.00    +0.000 A 
ATOM     21  C   UNL     1      51.306   1.384  17.423  0.00  0.00    +0.000 A 
ATOM     22  C   UNL     1      52.645   1.449  17.793  0.00  0.00    +0.000 A 
ATOM     23  C   UNL     1      53.184   2.703  18.025  0.00  0.00    +0.000 A 
ATOM     24  N   UNL     1      52.476   3.860  17.938  0.00  0.00    +0.000 NA
ATOM     25  H   UNL     1      51.223   5.717  17.803  0.00  0.00    +0.000 HD
BRANCH  22  26
ATOM     26  C   UNL     1      53.509   0.258  17.919  0.00  0.00    +0.000 C 
ATOM     27  N   UNL     1      53.876  -0.380  16.767  0.00  0.00    +0.000 N 
ATOM     28  O   UNL     1      53.855  -0.167  19.012  0.00  0.00    +0.000 OA
ATOM     29  H   UNL     1      53.429  -0.209  15.878  0.00  0.00    +0.000 HD
ATOM     30  H   UNL     1      54.380  -1.251  16.878  0.00  0.00    +0.000 HD
ENDBRANCH  22  26
ENDBRANCH   1  18
TORSDOF 3
ENDMDL
MODEL 4
REMARK VINA RESULT:    -7.303      3.914      6.165
REMARK INTER + INTRA:          -8.528
REMARK INTER:                  -8.124
REMARK INTRA:                  -0.404
REMARK UNBOUND:                 0.056
REMARK  Name = 
REMARK  5 active torsions:
REMARK  status: ('A' for Active; 'I' for Inactive)
REMARK    1  A    between atoms: C_1  and  C_2
REMARK    2  A    between atoms: C_6  and  C_7
REMARK    3  A    between atoms: C_13  and  C_14
REMARK    4  A    between atoms: C_14  and  N_15
REMARK    5  A    between atoms: C_19  and  C_20
REMARK                            x       y       z     vdW  Elec       q    Type
REMARK                         _______ _______ _______ _____ _____    ______ ____
ROOT
ATOM      1  C   UNL     1      48.525   7.831  13.368  0.00  0.00    +0.000 C 
ATOM      2  C   UNL     1      49.137   7.903  11.983  0.00  0.00    +0.000 C 
ATOM      3  C   UNL     1      48.877   9.176  12.717  0.00  0.00    +0.000 C 
ENDROOT
BRANCH   1  16
ATOM      4  C   UNL     1      50.440   5.080  19.782  0.00  0.00    +0.000 C 
ATOM      5  C   UNL     1      49.700   6.200  19.050  0.00  0.00    +0.000 C 
ATOM      6  C   UNL     1      48.517   6.744  19.882  0.00  0.00    +0.000 C 
ATOM      7  O   UNL     1      47.446   5.801  19.990  0.00  0.00    +0.000 OA
ATOM      8  C   UNL     1      46.931   5.490  18.686  0.00  0.00    +0.000 C 
ATOM      9  C   UNL     1      48.010   4.858  17.782  0.00  0.00    +0.000 C 
ATOM     10  C   UNL     1      47.407   4.438  16.446  0.00  0.00    +0.000 C 
ATOM     11  N   UNL     1      49.231   5.705  17.730  0.00  0.00    +0.000 N 
ATOM     12  C   UNL     1      49.729   6.337  16.602  0.00  0.00    +0.000 A 
ATOM     13  C   UNL     1      51.092   6.662  16.499  0.00  0.00    +0.000 A 
ATOM     14  N   UNL     1      51.650   7.364  15.485  0.00  0.00    +0.000 NA
ATOM     15  C   UNL     1      50.780   7.732  14.521  0.00  0.00    +0.000 A 
ATOM     16  C   UNL     1      49.431   7.399  14.530  0.00  0.00    +0.000 A 
ATOM     17  N   UNL     1      48.915   6.684  15.581  0.00  0.00    +0.000 NA
ENDBRANCH   1  16
BRANCH   1  18
ATOM     18  N   UNL     1      47.073   7.607  13.539  0.00  0.00    +0.000 N 
ATOM     19  C   UNL     1      46.320   6.517  13.106  0.00  0.00    +0.000 A 
ATOM     20  C   UNL     1      46.812   5.231  12.915  0.00  0.00    +0.000 A 
ATOM     21  C   UNL     1      45.945   4.192  12.562  0.00  0.00    +0.000 A 
ATOM     22  C   UNL     1      44.591   4.465  12.401  0.00  0.00    +0.000 A 
ATOM     23  C   UNL     1      44.169   5.764  12.624  0.00  0.00    +0.000 A 
ATOM     24  N   UNL     1      45.002   6.783  12.962  0.00  0.00    +0.000 NA
ATOM     25  H   UNL     1      46.453   8.413  13.485  0.00  0.00    +0.000 HD
BRANCH  22  26
ATOM     26  C   UNL     1      43.597   3.435  12.035  0.00  0.00    +0.000 C 
ATOM     27  N   UNL     1      43.787   2.173  12.523  0.00  0.00    +0.000 N 
ATOM     28  O   UNL     1      42.657   3.690  11.296  0.00  0.00    +0.000 OA
ATOM     29  H   UNL     1      44.658   1.868  12.933  0.00  0.00    +0.000 HD
ATOM     30  H   UNL     1      43.157   1.460  12.179  0.00  0.00    +0.000 HD
ENDBRANCH  22  26
ENDBRANCH   1  18
TORSDOF 3
ENDMDL
MODEL 5
REMARK VINA RESULT:    -7.014      3.382      8.484
REMARK INTER + INTRA:          -8.189
REMARK INTER:                  -7.637
REMARK INTRA:                  -0.552
REMARK UNBOUND:                 0.056
REMARK  Name = 
REMARK  5 active torsions:
REMARK  status: ('A' for Active; 'I' for Inactive)
REMARK    1  A    between atoms: C_1  and  C_2
REMARK    2  A    between atoms: C_6  and  C_7
REMARK    3  A    between atoms: C_13  and  C_14
REMARK    4  A    between atoms: C_14  and  N_15
REMARK    5  A    between atoms: C_19  and  C_20
REMARK                            x       y       z     vdW  Elec       q    Type
REMARK                         _______ _______ _______ _____ _____    ______ ____
ROOT
ATOM      1  C   UNL     1      49.110   7.869  12.649  0.00  0.00    +0.000 C 
ATOM      2  C   UNL     1      49.954   9.036  12.172  0.00  0.00    +0.000 C 
ATOM      3  C   UNL     1      49.955   7.776  11.371  0.00  0.00    +0.000 C 
ENDROOT
BRANCH   1  16
ATOM      4  C   UNL     1      42.280   5.639  11.780  0.00  0.00    +0.000 C 
ATOM      5  C   UNL     1      43.687   5.687  11.182  0.00  0.00    +0.000 C 
ATOM      6  C   UNL     1      43.971   4.459  10.288  0.00  0.00    +0.000 C 
ATOM      7  O   UNL     1      44.089   3.249  11.043  0.00  0.00    +0.000 OA
ATOM      8  C   UNL     1      45.181   3.352  11.970  0.00  0.00    +0.000 C 
ATOM      9  C   UNL     1      44.970   4.503  12.976  0.00  0.00    +0.000 C 
ATOM     10  C   UNL     1      46.087   4.517  14.013  0.00  0.00    +0.000 C 
ATOM     11  N   UNL     1      44.687   5.784  12.277  0.00  0.00    +0.000 N 
ATOM     12  C   UNL     1      45.490   6.914  12.304  0.00  0.00    +0.000 A 
ATOM     13  C   UNL     1      44.947   8.190  12.080  0.00  0.00    +0.000 A 
ATOM     14  N   UNL     1      45.662   9.335  11.990  0.00  0.00    +0.000 NA
ATOM     15  C   UNL     1      46.992   9.172  12.158  0.00  0.00    +0.000 A 
ATOM     16  C   UNL     1      47.591   7.950  12.436  0.00  0.00    +0.000 A 
ATOM     17  N   UNL     1      46.820   6.819  12.520  0.00  0.00    +0.000 NA
ENDBRANCH   1  16
BRANCH   1  18
ATOM     18  N   UNL     1      49.582   6.998  13.747  0.00  0.00    +0.000 N 
ATOM     19  C   UNL     1      49.582   7.270  15.113  0.00  0.00    +0.000 A 
ATOM     20  C   UNL     1      48.701   8.131  15.758  0.00  0.00    +0.000 A 
ATOM     21  C   UNL     1      48.737   8.261  17.150  0.00  0.00    +0.000 A 
ATOM     22  C   UNL     1      49.666   7.525  17.876  0.00  0.00    +0.000 A 
ATOM     23  C   UNL     1      50.501   6.676  17.170  0.00  0.00    +0.000 A 
ATOM     24  N   UNL     1      50.480   6.544  15.818  0.00  0.00    +0.000 NA
ATOM     25  H   UNL     1      50.398   6.414  13.579  0.00  0.00    +0.000 HD
BRANCH  22  26
ATOM     26  C   UNL     1      49.778   7.590  19.347  0.00  0.00    +0.000 C 
ATOM     27  N   UNL     1      50.248   6.481  19.993  0.00  0.00    +0.000 N 
ATOM     28  O   UNL     1      49.433   8.583  19.970  0.00  0.00    +0.000 OA
ATOM     29  H   UNL     1      50.319   5.575  19.551  0.00  0.00    +0.000 HD
ATOM     30  H   UNL     1      50.220   6.506  21.005  0.00  0.00    +0.000 HD
ENDBRANCH  22  26
ENDBRANCH   1  18
TORSDOF 3
ENDMDL
