MODEL 1
REMARK VINA RESULT:    -8.921      0.000      0.000
REMARK INTER + INTRA:         -12.750
REMARK INTER:                 -11.529
REMARK INTRA:                  -1.222
REMARK UNBOUND:                -1.222
REMARK  Name = 
REMARK  5 active torsions:
REMARK  status: ('A' for Active; 'I' for Inactive)
REMARK    1  A    between atoms: C_2  and  C_19
REMARK    2  A    between atoms: N_3  and  C_4
REMARK    3  A    between atoms: C_4  and  C_5
REMARK    4  A    between atoms: C_9  and  C_10
REMARK    5  A    between atoms: C_10  and  N_11
REMARK                            x       y       z     vdW  Elec       q    Type
REMARK                         _______ _______ _______ _____ _____    ______ ____
ROOT
ATOM      1  C   UNL     1      46.353   7.051  12.052  0.00  0.00    +0.000 C 
ENDROOT
BRANCH   1   2
ATOM      2  C   UNL     1      45.291   5.978  12.030  0.00  0.00    +0.000 A 
ATOM      3  C   UNL     1      44.250   6.007  12.962  0.00  0.00    +0.000 A 
ATOM      4  C   UNL     1      43.267   5.036  12.892  0.00  0.00    +0.000 A 
ATOM      5  N   UNL     1      43.257   4.053  11.971  0.00  0.00    +0.000 NA
ATOM      6  C   UNL     1      44.260   4.026  11.057  0.00  0.00    +0.000 A 
ATOM      7  C   UNL     1      45.275   4.986  11.040  0.00  0.00    +0.000 A 
BRANCH   6   8
ATOM      8  C   UNL     1      44.271   2.864  10.079  0.00  0.00    +0.000 C 
BRANCH   8   9
ATOM      9  N   UNL     1      44.330   3.309   8.697  0.00  0.00    +0.000 N 
ATOM     10  C   UNL     1      45.425   2.794   8.014  0.00  0.00    +0.000 A 
ATOM     11  N   UNL     1      45.912   1.586   8.335  0.00  0.00    +0.000 NA
ATOM     12  C   UNL     1      46.988   1.149   7.655  0.00  0.00    +0.000 A 
ATOM     13  C   UNL     1      47.603   1.879   6.672  0.00  0.00    +0.000 A 
ATOM     14  C   UNL     1      47.036   3.103   6.416  0.00  0.00    +0.000 A 
ATOM     15  N   UNL     1      45.959   3.583   7.073  0.00  0.00    +0.000 NA
ATOM     16  H   UNL     1      44.327   4.307   8.547  0.00  0.00    +0.000 HD
ENDBRANCH   8   9
ENDBRANCH   6   8
ENDBRANCH   1   2
BRANCH   1  19
ATOM     17  O   UNL     1      49.011   6.297  12.908  0.00  0.00    +0.000 OA
ATOM     18  C   UNL     1      48.155   6.662  13.705  0.00  0.00    +0.000 C 
ATOM     19  N   UNL     1      46.905   7.125  13.375  0.00  0.00    +0.000 N 
ATOM     20  H   UNL     1      46.236   7.265  14.119  0.00  0.00    +0.000 HD
BRANCH  18  21
ATOM     21  C   UNL     1      48.260   6.444  15.145  0.00  0.00    +0.000 A 
ATOM     22  C   UNL     1      48.795   7.378  16.011  0.00  0.00    +0.000 A 
ATOM     23  S   UNL     1      49.343   6.644  17.466  0.00  0.00    +0.000 S 
ATOM     24  C   UNL     1      48.738   5.120  16.993  0.00  0.00    +0.000 A 
ATOM     25  N   UNL     1      48.996   3.979  17.684  0.00  0.00    +0.000 NA
ATOM     26  C   UNL     1      48.417   2.926  17.204  0.00  0.00    +0.000 A 
ATOM     27  N   UNL     1      47.555   2.920  16.131  0.00  0.00    +0.000 N 
ATOM     28  C   UNL     1      47.263   4.047  15.403  0.00  0.00    +0.000 A 
ATOM     29  O   UNL     1      46.459   4.039  14.479  0.00  0.00    +0.000 OA
ATOM     30  C   UNL     1      47.999   5.217  15.834  0.00  0.00    +0.000 A 
ATOM     31  H   UNL     1      47.071   2.077  15.859  0.00  0.00    +0.000 HD
ENDBRANCH  18  21
ENDBRANCH   1  19
TORSDOF 5
ENDMDL
MODEL 2
REMARK VINA RESULT:    -8.096      2.565      4.274
REMARK INTER + INTRA:         -11.685
REMARK INTER:                 -10.500
REMARK INTRA:                  -1.184
REMARK UNBOUND:                -1.222
REMARK  Name = 
REMARK  5 active torsions:
REMARK  status: ('A' for Active; 'I' for Inactive)
REMARK    1  A    between atoms: C_2  and  C_19
REMARK    2  A    between atoms: N_3  and  C_4
REMARK    3  A    between atoms: C_4  and  C_5
REMARK    4  A    between atoms: C_9  and  C_10
REMARK    5  A    between atoms: C_10  and  N_11
REMARK                            x       y       z     vdW  Elec       q    Type
REMARK                         _______ _______ _______ _____ _____    ______ ____
ROOT
ATOM      1  C   UNL     1      46.556   5.025  13.655  0.00  0.00    +0.000 C 
ENDROOT
BRANCH   1   2
ATOM      2  C   UNL     1      45.302   4.792  12.847  0.00  0.00    +0.000 A 
ATOM      3  C   UNL     1      44.090   5.351  13.262  0.00  0.00    +0.000 A 
ATOM      4  C   UNL     1      42.966   5.158  12.481  0.00  0.00    +0.000 A 
ATOM      5  N   UNL     1      42.969   4.451  11.333  0.00  0.00    +0.000 NA
ATOM      6  C   UNL     1      44.146   3.914  10.920  0.00  0.00    +0.000 A 
ATOM      7  C   UNL     1      45.333   4.088  11.636  0.00  0.00    +0.000 A 
BRANCH   6   8
ATOM      8  C   UNL     1      44.110   3.057   9.667  0.00  0.00    +0.000 C 
BRANCH   8   9
ATOM      9  N   UNL     1      45.199   2.094   9.629  0.00  0.00    +0.000 N 
ATOM     10  C   UNL     1      45.929   2.157   8.449  0.00  0.00    +0.000 A 
ATOM     11  N   UNL     1      46.064   3.324   7.801  0.00  0.00    +0.000 NA
ATOM     12  C   UNL     1      46.763   3.320   6.652  0.00  0.00    +0.000 A 
ATOM     13  C   UNL     1      47.325   2.190   6.119  0.00  0.00    +0.000 A 
ATOM     14  C   UNL     1      47.132   1.044   6.850  0.00  0.00    +0.000 A 
ATOM     15  N   UNL     1      46.438   1.000   8.006  0.00  0.00    +0.000 NA
ATOM     16  H   UNL     1      44.947   1.127   9.774  0.00  0.00    +0.000 HD
ENDBRANCH   8   9
ENDBRANCH   6   8
ENDBRANCH   1   2
BRANCH   1  19
ATOM     17  O   UNL     1      48.747   6.638  14.634  0.00  0.00    +0.000 OA
ATOM     18  C   UNL     1      48.409   6.654  13.456  0.00  0.00    +0.000 C 
ATOM     19  N   UNL     1      47.447   5.853  12.893  0.00  0.00    +0.000 N 
ATOM     20  H   UNL     1      47.156   6.050  11.946  0.00  0.00    +0.000 HD
BRANCH  18  21
ATOM     21  C   UNL     1      48.828   7.693  12.519  0.00  0.00    +0.000 A 
ATOM     22  C   UNL     1      50.076   7.713  11.925  0.00  0.00    +0.000 A 
ATOM     23  S   UNL     1      50.494   9.295  11.397  0.00  0.00    +0.000 S 
ATOM     24  C   UNL     1      48.962   9.908  11.833  0.00  0.00    +0.000 A 
ATOM     25  N   UNL     1      48.668  11.235  11.816  0.00  0.00    +0.000 NA
ATOM     26  C   UNL     1      47.444  11.511  12.133  0.00  0.00    +0.000 A 
ATOM     27  N   UNL     1      46.471  10.578  12.408  0.00  0.00    +0.000 N 
ATOM     28  C   UNL     1      46.720   9.227  12.436  0.00  0.00    +0.000 A 
ATOM     29  O   UNL     1      45.836   8.404  12.636  0.00  0.00    +0.000 OA
ATOM     30  C   UNL     1      48.111   8.894  12.216  0.00  0.00    +0.000 A 
ATOM     31  H   UNL     1      45.514  10.857  12.567  0.00  0.00    +0.000 HD
ENDBRANCH  18  21
ENDBRANCH   1  19
TORSDOF 5
ENDMDL
MODEL 3
REMARK VINA RESULT:    -8.027      2.277      2.904
REMARK INTER + INTRA:         -11.595
REMARK INTER:                 -10.767
REMARK INTRA:                  -0.828
REMARK UNBOUND:                -1.222
REMARK  Name = 
REMARK  5 active torsions:
REMARK  status: ('A' for Active; 'I' for Inactive)
REMARK    1  A    between atoms: C_2  and  C_19
REMARK    2  A    between atoms: N_3  and  C_4
REMARK    3  A    between atoms: C_4  and  C_5
REMARK    4  A    between atoms: C_9  and  C_10
REMARK    5  A    between atoms: C_10  and  N_11
REMARK                            x       y       z     vdW  Elec       q    Type
REMARK                         _______ _______ _______ _____ _____    ______ ____
ROOT
ATOM      1  C   UNL     1      46.775   4.417  14.597  0.00  0.00    +0.000 C 
ENDROOT
BRANCH   1   2
ATOM      2  C   UNL     1      46.214   5.029  13.337  0.00  0.00    +0.000 A 
ATOM      3  C   UNL     1      46.601   6.317  12.953  0.00  0.00    +0.000 A 
ATOM      4  C   UNL     1      46.104   6.837  11.772  0.00  0.00    +0.000 A 
ATOM      5  N   UNL     1      45.257   6.170  10.963  0.00  0.00    +0.000 NA
ATOM      6  C   UNL     1      44.886   4.915  11.326  0.00  0.00    +0.000 A 
ATOM      7  C   UNL     1      45.365   4.306  12.488  0.00  0.00    +0.000 A 
BRANCH   6   8
ATOM      8  C   UNL     1      43.870   4.214  10.441  0.00  0.00    +0.000 C 
BRANCH   8   9
ATOM      9  N   UNL     1      44.098   4.475   9.029  0.00  0.00    +0.000 N 
ATOM     10  C   UNL     1      45.006   3.591   8.461  0.00  0.00    +0.000 A 
ATOM     11  N   UNL     1      45.100   2.334   8.917  0.00  0.00    +0.000 NA
ATOM     12  C   UNL     1      46.013   1.531   8.343  0.00  0.00    +0.000 A 
ATOM     13  C   UNL     1      46.846   1.940   7.335  0.00  0.00    +0.000 A 
ATOM     14  C   UNL     1      46.679   3.243   6.936  0.00  0.00    +0.000 A 
ATOM     15  N   UNL     1      45.778   4.085   7.483  0.00  0.00    +0.000 NA
ATOM     16  H   UNL     1      44.398   5.409   8.789  0.00  0.00    +0.000 HD
ENDBRANCH   8   9
ENDBRANCH   6   8
ENDBRANCH   1   2
BRANCH   1  19
ATOM     17  O   UNL     1      48.847   4.001  16.572  0.00  0.00    +0.000 OA
ATOM     18  C   UNL     1      48.449   5.123  16.280  0.00  0.00    +0.000 C 
ATOM     19  N   UNL     1      47.541   5.414  15.291  0.00  0.00    +0.000 N 
ATOM     20  H   UNL     1      47.184   6.356  15.234  0.00  0.00    +0.000 HD
BRANCH  18  21
ATOM     21  C   UNL     1      48.716   6.303  17.097  0.00  0.00    +0.000 A 
ATOM     22  C   UNL     1      49.567   7.317  16.701  0.00  0.00    +0.000 A 
ATOM     23  S   UNL     1      50.148   8.211  18.050  0.00  0.00    +0.000 S 
ATOM     24  C   UNL     1      49.158   7.337  19.130  0.00  0.00    +0.000 A 
ATOM     25  N   UNL     1      49.257   7.457  20.480  0.00  0.00    +0.000 NA
ATOM     26  C   UNL     1      48.394   6.752  21.139  0.00  0.00    +0.000 A 
ATOM     27  N   UNL     1      47.403   5.985  20.571  0.00  0.00    +0.000 N 
ATOM     28  C   UNL     1      47.263   5.835  19.213  0.00  0.00    +0.000 A 
ATOM     29  O   UNL     1      46.349   5.187  18.717  0.00  0.00    +0.000 OA
ATOM     30  C   UNL     1      48.295   6.505  18.450  0.00  0.00    +0.000 A 
ATOM     31  H   UNL     1      46.709   5.526  21.143  0.00  0.00    +0.000 HD
ENDBRANCH  18  21
ENDBRANCH   1  19
TORSDOF 5
ENDMDL
MODEL 4
REMARK VINA RESULT:    -8.009      1.954      3.280
REMARK INTER + INTRA:         -11.571
REMARK INTER:                 -10.651
REMARK INTRA:                  -0.920
REMARK UNBOUND:                -1.222
REMARK  Name = 
REMARK  5 active torsions:
REMARK  status: ('A' for Active; 'I' for Inactive)
REMARK    1  A    between atoms: C_2  and  C_19
REMARK    2  A    between atoms: N_3  and  C_4
REMARK    3  A    between atoms: C_4  and  C_5
REMARK    4  A    between atoms: C_9  and  C_10
REMARK    5  A    between atoms: C_10  and  N_11
REMARK                            x       y       z     vdW  Elec       q    Type
REMARK                         _______ _______ _______ _____ _____    ______ ____
ROOT
ATOM      1  C   UNL     1      46.714   4.217  14.553  0.00  0.00    +0.000 C 
ENDROOT
BRANCH   1   2
ATOM      2  C   UNL     1      46.252   4.840  13.259  0.00  0.00    +0.000 A 
ATOM      3  C   UNL     1      46.746   6.089  12.869  0.00  0.00    +0.000 A 
ATOM      4  C   UNL     1      46.338   6.617  11.658  0.00  0.00    +0.000 A 
ATOM      5  N   UNL     1      45.482   5.995  10.824  0.00  0.00    +0.000 NA
ATOM      6  C   UNL     1      45.007   4.777  11.192  0.00  0.00    +0.000 A 
ATOM      7  C   UNL     1      45.392   4.161  12.386  0.00  0.00    +0.000 A 
BRANCH   6   8
ATOM      8  C   UNL     1      43.983   4.130  10.276  0.00  0.00    +0.000 C 
BRANCH   8   9
ATOM      9  N   UNL     1      44.253   4.400   8.874  0.00  0.00    +0.000 N 
ATOM     10  C   UNL     1      45.166   3.508   8.323  0.00  0.00    +0.000 A 
ATOM     11  N   UNL     1      45.230   2.246   8.771  0.00  0.00    +0.000 NA
ATOM     12  C   UNL     1      46.148   1.435   8.216  0.00  0.00    +0.000 A 
ATOM     13  C   UNL     1      47.013   1.841   7.234  0.00  0.00    +0.000 A 
ATOM     14  C   UNL     1      46.874   3.149   6.841  0.00  0.00    +0.000 A 
ATOM     15  N   UNL     1      45.970   3.999   7.371  0.00  0.00    +0.000 NA
ATOM     16  H   UNL     1      44.572   5.331   8.649  0.00  0.00    +0.000 HD
ENDBRANCH   8   9
ENDBRANCH   6   8
ENDBRANCH   1   2
BRANCH   1  19
ATOM     17  O   UNL     1      48.669   3.783  16.639  0.00  0.00    +0.000 OA
ATOM     18  C   UNL     1      48.275   4.905  16.348  0.00  0.00    +0.000 C 
ATOM     19  N   UNL     1      47.424   5.207  15.313  0.00  0.00    +0.000 N 
ATOM     20  H   UNL     1      47.059   6.147  15.254  0.00  0.00    +0.000 HD
BRANCH  18  21
ATOM     21  C   UNL     1      48.477   6.070  17.205  0.00  0.00    +0.000 A 
ATOM     22  C   UNL     1      48.138   6.087  18.545  0.00  0.00    +0.000 A 
ATOM     23  S   UNL     1      47.911   7.694  19.114  0.00  0.00    +0.000 S 
ATOM     24  C   UNL     1      48.399   8.354  17.618  0.00  0.00    +0.000 A 
ATOM     25  N   UNL     1      48.291   9.678  17.328  0.00  0.00    +0.000 NA
ATOM     26  C   UNL     1      48.754  10.005  16.164  0.00  0.00    +0.000 A 
ATOM     27  N   UNL     1      49.369   9.140  15.289  0.00  0.00    +0.000 N 
ATOM     28  C   UNL     1      49.502   7.796  15.539  0.00  0.00    +0.000 A 
ATOM     29  O   UNL     1      50.092   7.044  14.773  0.00  0.00    +0.000 OA
ATOM     30  C   UNL     1      48.875   7.375  16.774  0.00  0.00    +0.000 A 
ATOM     31  H   UNL     1      49.783   9.476  14.431  0.00  0.00    +0.000 HD
ENDBRANCH  18  21
ENDBRANCH   1  19
TORSDOF 5
ENDMDL
MODEL 5
REMARK VINA RESULT:    -7.962      1.336      1.524
REMARK INTER + INTRA:         -11.512
REMARK INTER:                 -10.652
REMARK INTRA:                  -0.859
REMARK UNBOUND:                -1.222
REMARK  Name = 
REMARK  5 active torsions:
REMARK  status: ('A' for Active; 'I' for Inactive)
REMARK    1  A    between atoms: C_2  and  C_19
REMARK    2  A    between atoms: N_3  and  C_4
REMARK    3  A    between atoms: C_4  and  C_5
REMARK    4  A    between atoms: C_9  and  C_10
REMARK    5  A    between atoms: C_10  and  N_11
REMARK                            x       y       z     vdW  Elec       q    Type
REMARK                         _______ _______ _______ _____ _____    ______ ____
ROOT
ATOM      1  C   UNL     1      47.721   6.034  12.989  0.00  0.00    +0.000 C 
ENDROOT
BRANCH   1   2
ATOM      2  C   UNL     1      46.331   6.157  12.414  0.00  0.00    +0.000 A 
ATOM      3  C   UNL     1      45.563   7.295  12.679  0.00  0.00    +0.000 A 
ATOM      4  C   UNL     1      44.309   7.400  12.105  0.00  0.00    +0.000 A 
ATOM      5  N   UNL     1      43.778   6.461  11.299  0.00  0.00    +0.000 NA
ATOM      6  C   UNL     1      44.523   5.359  11.029  0.00  0.00    +0.000 A 
ATOM      7  C   UNL     1      45.810   5.188  11.546  0.00  0.00    +0.000 A 
BRANCH   6   8
ATOM      8  C   UNL     1      43.874   4.277  10.183  0.00  0.00    +0.000 C 
BRANCH   8   9
ATOM      9  N   UNL     1      44.140   4.454   8.765  0.00  0.00    +0.000 N 
ATOM     10  C   UNL     1      45.072   3.547   8.277  0.00  0.00    +0.000 A 
ATOM     11  N   UNL     1      45.163   2.320   8.812  0.00  0.00    +0.000 NA
ATOM     12  C   UNL     1      46.099   1.493   8.314  0.00  0.00    +0.000 A 
ATOM     13  C   UNL     1      46.957   1.848   7.307  0.00  0.00    +0.000 A 
ATOM     14  C   UNL     1      46.790   3.123   6.825  0.00  0.00    +0.000 A 
ATOM     15  N   UNL     1      45.867   3.988   7.294  0.00  0.00    +0.000 NA
ATOM     16  H   UNL     1      44.439   5.375   8.477  0.00  0.00    +0.000 HD
ENDBRANCH   8   9
ENDBRANCH   6   8
ENDBRANCH   1   2
BRANCH   1  19
ATOM     17  O   UNL     1      49.926   6.795  14.698  0.00  0.00    +0.000 OA
ATOM     18  C   UNL     1      48.791   6.646  15.136  0.00  0.00    +0.000 C 
ATOM     19  N   UNL     1      47.675   6.380  14.381  0.00  0.00    +0.000 N 
ATOM     20  H   UNL     1      46.820   6.140  14.862  0.00  0.00    +0.000 HD
BRANCH  18  21
ATOM     21  C   UNL     1      48.496   6.507  16.559  0.00  0.00    +0.000 A 
ATOM     22  C   UNL     1      48.678   7.532  17.469  0.00  0.00    +0.000 A 
ATOM     23  S   UNL     1      48.844   6.926  19.070  0.00  0.00    +0.000 S 
ATOM     24  C   UNL     1      48.534   5.328  18.559  0.00  0.00    +0.000 A 
ATOM     25  N   UNL     1      48.680   4.252  19.378  0.00  0.00    +0.000 NA
ATOM     26  C   UNL     1      48.355   3.124  18.833  0.00  0.00    +0.000 A 
ATOM     27  N   UNL     1      47.843   2.979  17.565  0.00  0.00    +0.000 N 
ATOM     28  C   UNL     1      47.677   4.035  16.703  0.00  0.00    +0.000 A 
ATOM     29  O   UNL     1      47.176   3.901  15.593  0.00  0.00    +0.000 OA
ATOM     30  C   UNL     1      48.155   5.294  17.235  0.00  0.00    +0.000 A 
ATOM     31  H   UNL     1      47.532   2.079  17.231  0.00  0.00    +0.000 HD
ENDBRANCH  18  21
ENDBRANCH   1  19
TORSDOF 5
ENDMDL
MODEL 6
REMARK VINA RESULT:    -7.780      1.858      2.555
REMARK INTER + INTRA:         -11.276
REMARK INTER:                 -10.241
REMARK INTRA:                  -1.035
REMARK UNBOUND:                -1.222
REMARK  Name = 
REMARK  5 active torsions:
REMARK  status: ('A' for Active; 'I' for Inactive)
REMARK    1  A    between atoms: C_2  and  C_19
REMARK    2  A    between atoms: N_3  and  C_4
REMARK    3  A    between atoms: C_4  and  C_5
REMARK    4  A    between atoms: C_9  and  C_10
REMARK    5  A    between atoms: C_10  and  N_11
REMARK                            x       y       z     vdW  Elec       q    Type
REMARK                         _______ _______ _______ _____ _____    ______ ____
ROOT
ATOM      1  C   UNL     1      46.384   4.600  13.940  0.00  0.00    +0.000 C 
ENDROOT
BRANCH   1   2
ATOM      2  C   UNL     1      45.342   4.748  12.858  0.00  0.00    +0.000 A 
ATOM      3  C   UNL     1      44.453   5.827  12.887  0.00  0.00    +0.000 A 
ATOM      4  C   UNL     1      43.536   5.962  11.861  0.00  0.00    +0.000 A 
ATOM      5  N   UNL     1      43.448   5.105  10.824  0.00  0.00    +0.000 NA
ATOM      6  C   UNL     1      44.316   4.062  10.785  0.00  0.00    +0.000 A 
ATOM      7  C   UNL     1      45.290   3.870  11.767  0.00  0.00    +0.000 A 
BRANCH   6   8
ATOM      8  C   UNL     1      44.145   3.066   9.651  0.00  0.00    +0.000 C 
BRANCH   8   9
ATOM      9  N   UNL     1      45.193   2.058   9.643  0.00  0.00    +0.000 N 
ATOM     10  C   UNL     1      45.959   2.091   8.485  0.00  0.00    +0.000 A 
ATOM     11  N   UNL     1      46.162   3.252   7.844  0.00  0.00    +0.000 NA
ATOM     12  C   UNL     1      46.894   3.219   6.716  0.00  0.00    +0.000 A 
ATOM     13  C   UNL     1      47.423   2.066   6.197  0.00  0.00    +0.000 A 
ATOM     14  C   UNL     1      47.160   0.929   6.920  0.00  0.00    +0.000 A 
ATOM     15  N   UNL     1      46.431   0.914   8.055  0.00  0.00    +0.000 NA
ATOM     16  H   UNL     1      44.896   1.103   9.778  0.00  0.00    +0.000 HD
ENDBRANCH   8   9
ENDBRANCH   6   8
ENDBRANCH   1   2
BRANCH   1  19
ATOM     17  O   UNL     1      48.676   6.063  12.957  0.00  0.00    +0.000 OA
ATOM     18  C   UNL     1      47.982   6.489  13.873  0.00  0.00    +0.000 C 
ATOM     19  N   UNL     1      46.827   5.907  14.334  0.00  0.00    +0.000 N 
ATOM     20  H   UNL     1      46.416   6.270  15.182  0.00  0.00    +0.000 HD
BRANCH  18  21
ATOM     21  C   UNL     1      48.406   7.567  14.762  0.00  0.00    +0.000 A 
ATOM     22  C   UNL     1      48.354   8.902  14.407  0.00  0.00    +0.000 A 
ATOM     23  S   UNL     1      49.443   9.844  15.346  0.00  0.00    +0.000 S 
ATOM     24  C   UNL     1      49.869   8.500  16.307  0.00  0.00    +0.000 A 
ATOM     25  N   UNL     1      50.883   8.534  17.212  0.00  0.00    +0.000 NA
ATOM     26  C   UNL     1      51.031   7.436  17.882  0.00  0.00    +0.000 A 
ATOM     27  N   UNL     1      50.222   6.329  17.772  0.00  0.00    +0.000 N 
ATOM     28  C   UNL     1      49.186   6.249  16.874  0.00  0.00    +0.000 A 
ATOM     29  O   UNL     1      48.443   5.277  16.818  0.00  0.00    +0.000 OA
ATOM     30  C   UNL     1      49.077   7.411  16.017  0.00  0.00    +0.000 A 
ATOM     31  H   UNL     1      50.342   5.536  18.385  0.00  0.00    +0.000 HD
ENDBRANCH  18  21
ENDBRANCH   1  19
TORSDOF 5
ENDMDL
MODEL 7
REMARK VINA RESULT:    -7.594      2.553      3.571
REMARK INTER + INTRA:         -11.035
REMARK INTER:                  -9.788
REMARK INTRA:                  -1.247
REMARK UNBOUND:                -1.222
REMARK  Name = 
REMARK  5 active torsions:
REMARK  status: ('A' for Active; 'I' for Inactive)
REMARK    1  A    between atoms: C_2  and  C_19
REMARK    2  A    between atoms: N_3  and  C_4
REMARK    3  A    between atoms: C_4  and  C_5
REMARK    4  A    between atoms: C_9  and  C_10
REMARK    5  A    between atoms: C_10  and  N_11
REMARK                            x       y       z     vdW  Elec       q    Type
REMARK                         _______ _______ _______ _____ _____    ______ ____
ROOT
ATOM      1  C   UNL     1      45.582   7.487  12.591  0.00  0.00    +0.000 C 
ENDROOT
BRANCH   1   2
ATOM      2  C   UNL     1      45.603   5.978  12.566  0.00  0.00    +0.000 A 
ATOM      3  C   UNL     1      46.394   5.275  13.479  0.00  0.00    +0.000 A 
ATOM      4  C   UNL     1      46.362   3.892  13.461  0.00  0.00    +0.000 A 
ATOM      5  N   UNL     1      45.607   3.176  12.605  0.00  0.00    +0.000 NA
ATOM      6  C   UNL     1      44.829   3.854  11.723  0.00  0.00    +0.000 A 
ATOM      7  C   UNL     1      44.782   5.250  11.695  0.00  0.00    +0.000 A 
BRANCH   6   8
ATOM      8  C   UNL     1      44.048   3.027  10.716  0.00  0.00    +0.000 C 
BRANCH   8   9
ATOM      9  N   UNL     1      44.060   3.622   9.390  0.00  0.00    +0.000 N 
ATOM     10  C   UNL     1      45.072   3.117   8.584  0.00  0.00    +0.000 A 
ATOM     11  N   UNL     1      45.486   1.850   8.737  0.00  0.00    +0.000 NA
ATOM     12  C   UNL     1      46.485   1.423   7.943  0.00  0.00    +0.000 A 
ATOM     13  C   UNL     1      47.094   2.218   7.008  0.00  0.00    +0.000 A 
ATOM     14  C   UNL     1      46.605   3.498   6.927  0.00  0.00    +0.000 A 
ATOM     15  N   UNL     1      45.607   3.971   7.702  0.00  0.00    +0.000 NA
ATOM     16  H   UNL     1      44.121   4.630   9.351  0.00  0.00    +0.000 HD
ENDBRANCH   8   9
ENDBRANCH   6   8
ENDBRANCH   1   2
BRANCH   1  19
ATOM     17  O   UNL     1      46.991  10.012  12.575  0.00  0.00    +0.000 OA
ATOM     18  C   UNL     1      47.256   9.130  13.383  0.00  0.00    +0.000 C 
ATOM     19  N   UNL     1      46.575   7.945  13.521  0.00  0.00    +0.000 N 
ATOM     20  H   UNL     1      46.967   7.237  14.124  0.00  0.00    +0.000 HD
BRANCH  18  21
ATOM     21  C   UNL     1      48.483   9.114  14.175  0.00  0.00    +0.000 A 
ATOM     22  C   UNL     1      48.591   9.730  15.408  0.00  0.00    +0.000 A 
ATOM     23  S   UNL     1      50.231  10.072  15.796  0.00  0.00    +0.000 S 
ATOM     24  C   UNL     1      50.789   9.277  14.393  0.00  0.00    +0.000 A 
ATOM     25  N   UNL     1      52.087   9.320  13.990  0.00  0.00    +0.000 NA
ATOM     26  C   UNL     1      52.335   8.620  12.930  0.00  0.00    +0.000 A 
ATOM     27  N   UNL     1      51.419   7.834  12.270  0.00  0.00    +0.000 N 
ATOM     28  C   UNL     1      50.098   7.758  12.641  0.00  0.00    +0.000 A 
ATOM     29  O   UNL     1      49.302   7.019  12.076  0.00  0.00    +0.000 OA
ATOM     30  C   UNL     1      49.759   8.633  13.744  0.00  0.00    +0.000 A 
ATOM     31  H   UNL     1      51.699   7.247  11.498  0.00  0.00    +0.000 HD
ENDBRANCH  18  21
ENDBRANCH   1  19
TORSDOF 5
ENDMDL
MODEL 8
REMARK VINA RESULT:    -7.211      2.010      3.612
REMARK INTER + INTRA:         -10.540
REMARK INTER:                  -9.719
REMARK INTRA:                  -0.822
REMARK UNBOUND:                -1.222
REMARK  Name = 
REMARK  5 active torsions:
REMARK  status: ('A' for Active; 'I' for Inactive)
REMARK    1  A    between atoms: C_2  and  C_19
REMARK    2  A    between atoms: N_3  and  C_4
REMARK    3  A    between atoms: C_4  and  C_5
REMARK    4  A    between atoms: C_9  and  C_10
REMARK    5  A    between atoms: C_10  and  N_11
REMARK                            x       y       z     vdW  Elec       q    Type
REMARK                         _______ _______ _______ _____ _____    ______ ____
ROOT
ATOM      1  C   UNL     1      46.823   5.009  13.999  0.00  0.00    +0.000 C 
ENDROOT
BRANCH   1   2
ATOM      2  C   UNL     1      45.800   5.345  12.941  0.00  0.00    +0.000 A 
ATOM      3  C   UNL     1      45.281   6.641  12.857  0.00  0.00    +0.000 A 
ATOM      4  C   UNL     1      44.378   6.932  11.851  0.00  0.00    +0.000 A 
ATOM      5  N   UNL     1      43.963   6.030  10.939  0.00  0.00    +0.000 NA
ATOM      6  C   UNL     1      44.472   4.774  11.009  0.00  0.00    +0.000 A 
ATOM      7  C   UNL     1      45.410   4.406  11.977  0.00  0.00    +0.000 A 
BRANCH   6   8
ATOM      8  C   UNL     1      43.931   3.755  10.022  0.00  0.00    +0.000 C 
BRANCH   8   9
ATOM      9  N   UNL     1      44.261   4.092   8.647  0.00  0.00    +0.000 N 
ATOM     10  C   UNL     1      45.287   3.308   8.134  0.00  0.00    +0.000 A 
ATOM     11  N   UNL     1      45.444   2.044   8.554  0.00  0.00    +0.000 NA
ATOM     12  C   UNL     1      46.468   1.341   8.039  0.00  0.00    +0.000 A 
ATOM     13  C   UNL     1      47.350   1.857   7.127  0.00  0.00    +0.000 A 
ATOM     14  C   UNL     1      47.112   3.158   6.759  0.00  0.00    +0.000 A 
ATOM     15  N   UNL     1      46.098   3.902   7.250  0.00  0.00    +0.000 NA
ATOM     16  H   UNL     1      44.502   5.056   8.468  0.00  0.00    +0.000 HD
ENDBRANCH   8   9
ENDBRANCH   6   8
ENDBRANCH   1   2
BRANCH   1  19
ATOM     17  O   UNL     1      48.748   5.461  16.109  0.00  0.00    +0.000 OA
ATOM     18  C   UNL     1      48.529   6.301  15.244  0.00  0.00    +0.000 C 
ATOM     19  N   UNL     1      47.705   6.131  14.159  0.00  0.00    +0.000 N 
ATOM     20  H   UNL     1      47.493   6.937  13.590  0.00  0.00    +0.000 HD
BRANCH  18  21
ATOM     21  C   UNL     1      48.941   7.697  15.364  0.00  0.00    +0.000 A 
ATOM     22  C   UNL     1      48.998   8.365  16.572  0.00  0.00    +0.000 A 
ATOM     23  S   UNL     1      48.906  10.068  16.353  0.00  0.00    +0.000 S 
ATOM     24  C   UNL     1      48.934   9.908  14.654  0.00  0.00    +0.000 A 
ATOM     25  N   UNL     1      48.719  10.955  13.814  0.00  0.00    +0.000 NA
ATOM     26  C   UNL     1      48.825  10.656  12.559  0.00  0.00    +0.000 A 
ATOM     27  N   UNL     1      49.183   9.422  12.069  0.00  0.00    +0.000 N 
ATOM     28  C   UNL     1      49.411   8.336  12.879  0.00  0.00    +0.000 A 
ATOM     29  O   UNL     1      49.775   7.254  12.435  0.00  0.00    +0.000 OA
ATOM     30  C   UNL     1      49.172   8.604  14.281  0.00  0.00    +0.000 A 
ATOM     31  H   UNL     1      49.329   9.278  11.080  0.00  0.00    +0.000 HD
ENDBRANCH  18  21
ENDBRANCH   1  19
TORSDOF 5
ENDMDL
MODEL 9
REMARK VINA RESULT:    -7.186      3.456      7.265
REMARK INTER + INTRA:         -10.509
REMARK INTER:                  -9.248
REMARK INTRA:                  -1.261
REMARK UNBOUND:                -1.222
REMARK  Name = 
REMARK  5 active torsions:
REMARK  status: ('A' for Active; 'I' for Inactive)
REMARK    1  A    between atoms: C_2  and  C_19
REMARK    2  A    between atoms: N_3  and  C_4
REMARK    3  A    between atoms: C_4  and  C_5
REMARK    4  A    between atoms: C_9  and  C_10
REMARK    5  A    between atoms: C_10  and  N_11
REMARK                            x       y       z     vdW  Elec       q    Type
REMARK                         _______ _______ _______ _____ _____    ______ ____
ROOT
ATOM      1  C   UNL     1      47.129   4.042  16.899  0.00  0.00    +0.000 C 
ENDROOT
BRANCH   1   2
ATOM      2  C   UNL     1      48.538   4.582  16.919  0.00  0.00    +0.000 A 
ATOM      3  C   UNL     1      49.578   3.802  17.436  0.00  0.00    +0.000 A 
ATOM      4  C   UNL     1      50.866   4.304  17.403  0.00  0.00    +0.000 A 
ATOM      5  N   UNL     1      51.181   5.514  16.899  0.00  0.00    +0.000 NA
ATOM      6  C   UNL     1      50.178   6.271  16.386  0.00  0.00    +0.000 A 
ATOM      7  C   UNL     1      48.853   5.825  16.355  0.00  0.00    +0.000 A 
BRANCH   6   8
ATOM      8  C   UNL     1      50.543   7.661  15.897  0.00  0.00    +0.000 C 
BRANCH   8   9
ATOM      9  N   UNL     1      51.080   7.645  14.547  0.00  0.00    +0.000 N 
ATOM     10  C   UNL     1      50.282   8.337  13.644  0.00  0.00    +0.000 A 
ATOM     11  N   UNL     1      49.565   9.395  14.051  0.00  0.00    +0.000 NA
ATOM     12  C   UNL     1      48.793  10.011  13.138  0.00  0.00    +0.000 A 
ATOM     13  C   UNL     1      48.702   9.603  11.833  0.00  0.00    +0.000 A 
ATOM     14  C   UNL     1      49.469   8.511  11.511  0.00  0.00    +0.000 A 
ATOM     15  N   UNL     1      50.256   7.860  12.392  0.00  0.00    +0.000 NA
ATOM     16  H   UNL     1      51.264   6.736  14.148  0.00  0.00    +0.000 HD
ENDBRANCH   8   9
ENDBRANCH   6   8
ENDBRANCH   1   2
BRANCH   1  19
ATOM     17  O   UNL     1      47.397   3.024  14.206  0.00  0.00    +0.000 OA
ATOM     18  C   UNL     1      46.729   4.020  14.455  0.00  0.00    +0.000 C 
ATOM     19  N   UNL     1      46.473   4.513  15.711  0.00  0.00    +0.000 N 
ATOM     20  H   UNL     1      46.028   5.416  15.788  0.00  0.00    +0.000 HD
BRANCH  18  21
ATOM     21  C   UNL     1      46.290   4.964  13.432  0.00  0.00    +0.000 A 
ATOM     22  C   UNL     1      46.924   6.169  13.197  0.00  0.00    +0.000 A 
ATOM     23  S   UNL     1      45.876   7.289  12.420  0.00  0.00    +0.000 S 
ATOM     24  C   UNL     1      44.640   6.121  12.278  0.00  0.00    +0.000 A 
ATOM     25  N   UNL     1      43.384   6.427  11.856  0.00  0.00    +0.000 NA
ATOM     26  C   UNL     1      42.593   5.407  11.766  0.00  0.00    +0.000 A 
ATOM     27  N   UNL     1      42.958   4.101  12.001  0.00  0.00    +0.000 N 
ATOM     28  C   UNL     1      44.215   3.745  12.427  0.00  0.00    +0.000 A 
ATOM     29  O   UNL     1      44.543   2.575  12.588  0.00  0.00    +0.000 OA
ATOM     30  C   UNL     1      45.085   4.877  12.665  0.00  0.00    +0.000 A 
ATOM     31  H   UNL     1      42.314   3.343  11.832  0.00  0.00    +0.000 HD
ENDBRANCH  18  21
ENDBRANCH   1  19
TORSDOF 5
ENDMDL
