MODEL 1
REMARK VINA RESULT:    -8.365      0.000      0.000
REMARK INTER + INTRA:         -11.432
REMARK INTER:                 -10.811
REMARK INTRA:                  -0.621
REMARK UNBOUND:                -0.621
REMARK  Name = 
REMARK  6 active torsions:
REMARK  status: ('A' for Active; 'I' for Inactive)
REMARK    1  A    between atoms: C_1  and  C_2
REMARK    2  A    between atoms: C_2  and  N_3
REMARK    3  A    between atoms: C_2  and  C_16
REMARK    4  A    between atoms: C_4  and  C_6
REMARK    5  A    between atoms: C_19  and  C_20
REMARK    6  A    between atoms: C_20  and  C_21
REMARK                            x       y       z     vdW  Elec       q    Type
REMARK                         _______ _______ _______ _____ _____    ______ ____
ROOT
ATOM      1  C   UNL     1      43.041   4.985  13.495  0.00  0.00    +0.000 C 
ATOM      2  C   UNL     1      44.436   4.485  13.088  0.00  0.00    +0.000 C 
ENDROOT
BRANCH   2   3
ATOM      3  C   UNL     1      44.563   4.252  11.602  0.00  0.00    +0.000 A 
ATOM      4  C   UNL     1      45.194   5.172  10.765  0.00  0.00    +0.000 A 
ATOM      5  N   UNL     1      45.295   5.008   9.426  0.00  0.00    +0.000 NA
ATOM      6  C   UNL     1      44.759   3.864   8.929  0.00  0.00    +0.000 A 
ATOM      7  C   UNL     1      44.159   2.925   9.763  0.00  0.00    +0.000 A 
ATOM      8  N   UNL     1      44.043   3.100  11.099  0.00  0.00    +0.000 NA
BRANCH   6   9
ATOM      9  C   UNL     1      44.834   3.629   7.442  0.00  0.00    +0.000 C 
BRANCH   9  10
ATOM     10  C   UNL     1      46.075   2.890   7.004  0.00  0.00    +0.000 A 
ATOM     11  C   UNL     1      46.776   3.289   5.862  0.00  0.00    +0.000 A 
ATOM     12  C   UNL     1      47.884   2.555   5.470  0.00  0.00    +0.000 A 
ATOM     13  N   UNL     1      48.347   1.478   6.137  0.00  0.00    +0.000 NA
ATOM     14  C   UNL     1      47.670   1.120   7.250  0.00  0.00    +0.000 A 
ATOM     15  C   UNL     1      46.550   1.786   7.720  0.00  0.00    +0.000 A 
ENDBRANCH   9  10
ENDBRANCH   6   9
ENDBRANCH   2   3
BRANCH   2  16
ATOM     16  N   UNL     1      45.544   5.283  13.604  0.00  0.00    +0.000 N 
ATOM     17  C   UNL     1      46.724   4.752  14.046  0.00  0.00    +0.000 C 
ATOM     18  O   UNL     1      46.947   3.543  14.059  0.00  0.00    +0.000 OA
ATOM     19  H   UNL     1      45.284   6.204  13.956  0.00  0.00    +0.000 HD
BRANCH  17  20
ATOM     20  C   UNL     1      47.776   5.690  14.429  0.00  0.00    +0.000 A 
ATOM     21  C   UNL     1      48.327   6.512  13.456  0.00  0.00    +0.000 A 
ATOM     22  S   UNL     1      49.539   7.549  14.051  0.00  0.00    +0.000 S 
ATOM     23  C   UNL     1      49.399   6.897  15.616  0.00  0.00    +0.000 A 
ATOM     24  N   UNL     1      50.210   7.323  16.621  0.00  0.00    +0.000 NA
ATOM     25  C   UNL     1      50.032   6.705  17.742  0.00  0.00    +0.000 A 
ATOM     26  N   UNL     1      49.105   5.715  17.953  0.00  0.00    +0.000 N 
ATOM     27  C   UNL     1      48.215   5.306  16.987  0.00  0.00    +0.000 A 
ATOM     28  O   UNL     1      47.321   4.502  17.225  0.00  0.00    +0.000 OA
ATOM     29  C   UNL     1      48.413   5.932  15.694  0.00  0.00    +0.000 A 
ATOM     30  H   UNL     1      49.005   5.291  18.863  0.00  0.00    +0.000 HD
ENDBRANCH  17  20
ENDBRANCH   2  16
TORSDOF 5
ENDMDL
MODEL 2
REMARK VINA RESULT:    -8.238      1.762      2.580
REMARK INTER + INTRA:         -11.267
REMARK INTER:                 -11.021
REMARK INTRA:                  -0.246
REMARK UNBOUND:                -0.621
REMARK  Name = 
REMARK  6 active torsions:
REMARK  status: ('A' for Active; 'I' for Inactive)
REMARK    1  A    between atoms: C_1  and  C_2
REMARK    2  A    between atoms: C_2  and  N_3
REMARK    3  A    between atoms: C_2  and  C_16
REMARK    4  A    between atoms: C_4  and  C_6
REMARK    5  A    between atoms: C_19  and  C_20
REMARK    6  A    between atoms: C_20  and  C_21
REMARK                            x       y       z     vdW  Elec       q    Type
REMARK                         _______ _______ _______ _____ _____    ______ ____
ROOT
ATOM      1  C   UNL     1      46.663   8.589  11.755  0.00  0.00    +0.000 C 
ATOM      2  C   UNL     1      45.951   7.416  12.447  0.00  0.00    +0.000 C 
ENDROOT
BRANCH   2   3
ATOM      3  C   UNL     1      45.613   6.293  11.496  0.00  0.00    +0.000 A 
ATOM      4  C   UNL     1      46.065   6.287  10.176  0.00  0.00    +0.000 A 
ATOM      5  N   UNL     1      45.754   5.313   9.290  0.00  0.00    +0.000 NA
ATOM      6  C   UNL     1      44.979   4.306   9.769  0.00  0.00    +0.000 A 
ATOM      7  C   UNL     1      44.554   4.288  11.094  0.00  0.00    +0.000 A 
ATOM      8  N   UNL     1      44.852   5.272  11.973  0.00  0.00    +0.000 NA
BRANCH   6   9
ATOM      9  C   UNL     1      44.592   3.195   8.827  0.00  0.00    +0.000 C 
BRANCH   9  10
ATOM     10  C   UNL     1      45.758   2.597   8.079  0.00  0.00    +0.000 A 
ATOM     11  C   UNL     1      46.078   1.243   8.224  0.00  0.00    +0.000 A 
ATOM     12  C   UNL     1      47.184   0.745   7.554  0.00  0.00    +0.000 A 
ATOM     13  N   UNL     1      47.971   1.485   6.746  0.00  0.00    +0.000 NA
ATOM     14  C   UNL     1      47.634   2.785   6.601  0.00  0.00    +0.000 A 
ATOM     15  C   UNL     1      46.551   3.377   7.231  0.00  0.00    +0.000 A 
ENDBRANCH   9  10
ENDBRANCH   6   9
ENDBRANCH   2   3
BRANCH   2  16
ATOM     16  N   UNL     1      46.617   6.921  13.648  0.00  0.00    +0.000 N 
ATOM     17  C   UNL     1      47.950   6.624  13.712  0.00  0.00    +0.000 C 
ATOM     18  O   UNL     1      48.704   6.736  12.747  0.00  0.00    +0.000 OA
ATOM     19  H   UNL     1      46.004   6.470  14.326  0.00  0.00    +0.000 HD
BRANCH  17  20
ATOM     20  C   UNL     1      48.487   6.245  15.016  0.00  0.00    +0.000 A 
ATOM     21  C   UNL     1      49.550   6.968  15.539  0.00  0.00    +0.000 A 
ATOM     22  S   UNL     1      50.066   6.409  17.062  0.00  0.00    +0.000 S 
ATOM     23  C   UNL     1      48.918   5.154  17.047  0.00  0.00    +0.000 A 
ATOM     24  N   UNL     1      48.859   4.254  18.065  0.00  0.00    +0.000 NA
ATOM     25  C   UNL     1      47.978   3.323  17.898  0.00  0.00    +0.000 A 
ATOM     26  N   UNL     1      47.141   3.222  16.816  0.00  0.00    +0.000 N 
ATOM     27  C   UNL     1      47.114   4.151  15.801  0.00  0.00    +0.000 A 
ATOM     28  O   UNL     1      46.284   4.107  14.900  0.00  0.00    +0.000 OA
ATOM     29  C   UNL     1      48.125   5.185  15.916  0.00  0.00    +0.000 A 
ATOM     30  H   UNL     1      46.460   2.480  16.761  0.00  0.00    +0.000 HD
ENDBRANCH  17  20
ENDBRANCH   2  16
TORSDOF 5
ENDMDL
MODEL 3
REMARK VINA RESULT:    -8.176      1.910      2.554
REMARK INTER + INTRA:         -11.187
REMARK INTER:                 -10.874
REMARK INTRA:                  -0.313
REMARK UNBOUND:                -0.621
REMARK  Name = 
REMARK  6 active torsions:
REMARK  status: ('A' for Active; 'I' for Inactive)
REMARK    1  A    between atoms: C_1  and  C_2
REMARK    2  A    between atoms: C_2  and  N_3
REMARK    3  A    between atoms: C_2  and  C_16
REMARK    4  A    between atoms: C_4  and  C_6
REMARK    5  A    between atoms: C_19  and  C_20
REMARK    6  A    between atoms: C_20  and  C_21
REMARK                            x       y       z     vdW  Elec       q    Type
REMARK                         _______ _______ _______ _____ _____    ______ ____
ROOT
ATOM      1  C   UNL     1      47.011   7.936  12.361  0.00  0.00    +0.000 C 
ATOM      2  C   UNL     1      45.998   6.842  12.735  0.00  0.00    +0.000 C 
ENDROOT
BRANCH   2   3
ATOM      3  C   UNL     1      45.664   5.933  11.576  0.00  0.00    +0.000 A 
ATOM      4  C   UNL     1      46.100   6.206  10.279  0.00  0.00    +0.000 A 
ATOM      5  N   UNL     1      45.790   5.430   9.215  0.00  0.00    +0.000 NA
ATOM      6  C   UNL     1      45.036   4.333   9.484  0.00  0.00    +0.000 A 
ATOM      7  C   UNL     1      44.629   4.037  10.781  0.00  0.00    +0.000 A 
ATOM      8  N   UNL     1      44.924   4.823  11.841  0.00  0.00    +0.000 NA
BRANCH   6   9
ATOM      9  C   UNL     1      44.652   3.434   8.337  0.00  0.00    +0.000 C 
BRANCH   9  10
ATOM     10  C   UNL     1      45.825   2.732   7.695  0.00  0.00    +0.000 A 
ATOM     11  C   UNL     1      46.180   1.437   8.084  0.00  0.00    +0.000 A 
ATOM     12  C   UNL     1      47.290   0.847   7.501  0.00  0.00    +0.000 A 
ATOM     13  N   UNL     1      48.048   1.441   6.556  0.00  0.00    +0.000 NA
ATOM     14  C   UNL     1      47.677   2.683   6.177  0.00  0.00    +0.000 A 
ATOM     15  C   UNL     1      46.587   3.358   6.704  0.00  0.00    +0.000 A 
ENDBRANCH   9  10
ENDBRANCH   6   9
ENDBRANCH   2   3
BRANCH   2  16
ATOM     16  N   UNL     1      46.337   6.082  13.934  0.00  0.00    +0.000 N 
ATOM     17  C   UNL     1      47.590   5.605  14.204  0.00  0.00    +0.000 C 
ATOM     18  O   UNL     1      48.542   5.766  13.444  0.00  0.00    +0.000 OA
ATOM     19  H   UNL     1      45.551   5.615  14.385  0.00  0.00    +0.000 HD
BRANCH  17  20
ATOM     20  C   UNL     1      47.793   4.959  15.498  0.00  0.00    +0.000 A 
ATOM     21  C   UNL     1      47.380   3.644  15.663  0.00  0.00    +0.000 A 
ATOM     22  S   UNL     1      47.682   3.029  17.221  0.00  0.00    +0.000 S 
ATOM     23  C   UNL     1      48.328   4.514  17.738  0.00  0.00    +0.000 A 
ATOM     24  N   UNL     1      48.741   4.684  19.023  0.00  0.00    +0.000 NA
ATOM     25  C   UNL     1      49.159   5.877  19.292  0.00  0.00    +0.000 A 
ATOM     26  N   UNL     1      49.217   6.909  18.390  0.00  0.00    +0.000 N 
ATOM     27  C   UNL     1      48.880   6.762  17.063  0.00  0.00    +0.000 A 
ATOM     28  O   UNL     1      49.045   7.663  16.247  0.00  0.00    +0.000 OA
ATOM     29  C   UNL     1      48.352   5.455  16.726  0.00  0.00    +0.000 A 
ATOM     30  H   UNL     1      49.576   7.811  18.663  0.00  0.00    +0.000 HD
ENDBRANCH  17  20
ENDBRANCH   2  16
TORSDOF 5
ENDMDL
MODEL 4
REMARK VINA RESULT:    -7.406      3.606      6.165
REMARK INTER + INTRA:         -10.192
REMARK INTER:                  -9.156
REMARK INTRA:                  -1.036
REMARK UNBOUND:                -0.621
REMARK  Name = 
REMARK  6 active torsions:
REMARK  status: ('A' for Active; 'I' for Inactive)
REMARK    1  A    between atoms: C_1  and  C_2
REMARK    2  A    between atoms: C_2  and  N_3
REMARK    3  A    between atoms: C_2  and  C_16
REMARK    4  A    between atoms: C_4  and  C_6
REMARK    5  A    between atoms: C_19  and  C_20
REMARK    6  A    between atoms: C_20  and  C_21
REMARK                            x       y       z     vdW  Elec       q    Type
REMARK                         _______ _______ _______ _____ _____    ______ ____
ROOT
ATOM      1  C   UNL     1      49.583   7.832  15.598  0.00  0.00    +0.000 C 
ATOM      2  C   UNL     1      49.156   6.509  16.253  0.00  0.00    +0.000 C 
ENDROOT
BRANCH   2   3
ATOM      3  C   UNL     1      48.263   5.677  15.363  0.00  0.00    +0.000 A 
ATOM      4  C   UNL     1      47.542   4.590  15.856  0.00  0.00    +0.000 A 
ATOM      5  N   UNL     1      46.760   3.805  15.079  0.00  0.00    +0.000 NA
ATOM      6  C   UNL     1      46.694   4.153  13.768  0.00  0.00    +0.000 A 
ATOM      7  C   UNL     1      47.383   5.257  13.277  0.00  0.00    +0.000 A 
ATOM      8  N   UNL     1      48.178   6.029  14.052  0.00  0.00    +0.000 NA
BRANCH   6   9
ATOM      9  C   UNL     1      45.844   3.311  12.851  0.00  0.00    +0.000 C 
BRANCH   9  10
ATOM     10  C   UNL     1      44.703   4.067  12.213  0.00  0.00    +0.000 A 
ATOM     11  C   UNL     1      44.683   4.295  10.834  0.00  0.00    +0.000 A 
ATOM     12  C   UNL     1      43.639   5.032  10.297  0.00  0.00    +0.000 A 
ATOM     13  N   UNL     1      42.619   5.533  11.023  0.00  0.00    +0.000 NA
ATOM     14  C   UNL     1      42.644   5.283  12.351  0.00  0.00    +0.000 A 
ATOM     15  C   UNL     1      43.645   4.562  12.982  0.00  0.00    +0.000 A 
ENDBRANCH   9  10
ENDBRANCH   6   9
ENDBRANCH   2   3
BRANCH   2  16
ATOM     16  N   UNL     1      50.254   5.719  16.803  0.00  0.00    +0.000 N 
ATOM     17  C   UNL     1      50.348   5.360  18.119  0.00  0.00    +0.000 C 
ATOM     18  O   UNL     1      49.514   5.688  18.960  0.00  0.00    +0.000 OA
ATOM     19  H   UNL     1      51.117   5.746  16.262  0.00  0.00    +0.000 HD
BRANCH  17  20
ATOM     20  C   UNL     1      51.449   4.476  18.491  0.00  0.00    +0.000 A 
ATOM     21  C   UNL     1      52.461   4.970  19.303  0.00  0.00    +0.000 A 
ATOM     22  S   UNL     1      53.672   3.825  19.650  0.00  0.00    +0.000 S 
ATOM     23  C   UNL     1      52.908   2.650  18.687  0.00  0.00    +0.000 A 
ATOM     24  N   UNL     1      53.468   1.422  18.512  0.00  0.00    +0.000 NA
ATOM     25  C   UNL     1      52.810   0.649  17.713  0.00  0.00    +0.000 A 
ATOM     26  N   UNL     1      51.635   0.984  17.089  0.00  0.00    +0.000 N 
ATOM     27  C   UNL     1      50.994   2.184  17.296  0.00  0.00    +0.000 A 
ATOM     28  O   UNL     1      49.890   2.423  16.819  0.00  0.00    +0.000 OA
ATOM     29  C   UNL     1      51.724   3.109  18.141  0.00  0.00    +0.000 A 
ATOM     30  H   UNL     1      51.162   0.321  16.495  0.00  0.00    +0.000 HD
ENDBRANCH  17  20
ENDBRANCH   2  16
TORSDOF 5
ENDMDL
MODEL 5
REMARK VINA RESULT:    -7.373      2.158      3.655
REMARK INTER + INTRA:         -10.149
REMARK INTER:                  -9.082
REMARK INTRA:                  -1.067
REMARK UNBOUND:                -0.621
REMARK  Name = 
REMARK  6 active torsions:
REMARK  status: ('A' for Active; 'I' for Inactive)
REMARK    1  A    between atoms: C_1  and  C_2
REMARK    2  A    between atoms: C_2  and  N_3
REMARK    3  A    between atoms: C_2  and  C_16
REMARK    4  A    between atoms: C_4  and  C_6
REMARK    5  A    between atoms: C_19  and  C_20
REMARK    6  A    between atoms: C_20  and  C_21
REMARK                            x       y       z     vdW  Elec       q    Type
REMARK                         _______ _______ _______ _____ _____    ______ ____
ROOT
ATOM      1  C   UNL     1      47.835   9.193  12.819  0.00  0.00    +0.000 C 
ATOM      2  C   UNL     1      47.238   8.035  13.634  0.00  0.00    +0.000 C 
ENDROOT
BRANCH   2   3
ATOM      3  C   UNL     1      46.350   7.135  12.810  0.00  0.00    +0.000 A 
ATOM      4  C   UNL     1      46.529   5.752  12.782  0.00  0.00    +0.000 A 
ATOM      5  N   UNL     1      45.771   4.921  12.028  0.00  0.00    +0.000 NA
ATOM      6  C   UNL     1      44.791   5.515  11.301  0.00  0.00    +0.000 A 
ATOM      7  C   UNL     1      44.584   6.890  11.352  0.00  0.00    +0.000 A 
ATOM      8  N   UNL     1      45.354   7.720  12.092  0.00  0.00    +0.000 NA
BRANCH   6   9
ATOM      9  C   UNL     1      43.919   4.643  10.435  0.00  0.00    +0.000 C 
BRANCH   9  10
ATOM     10  C   UNL     1      44.690   3.792   9.455  0.00  0.00    +0.000 A 
ATOM     11  C   UNL     1      44.660   2.397   9.546  0.00  0.00    +0.000 A 
ATOM     12  C   UNL     1      45.419   1.655   8.654  0.00  0.00    +0.000 A 
ATOM     13  N   UNL     1      46.179   2.197   7.680  0.00  0.00    +0.000 NA
ATOM     14  C   UNL     1      46.178   3.545   7.594  0.00  0.00    +0.000 A 
ATOM     15  C   UNL     1      45.458   4.373   8.441  0.00  0.00    +0.000 A 
ENDBRANCH   9  10
ENDBRANCH   6   9
ENDBRANCH   2   3
BRANCH   2  16
ATOM     16  N   UNL     1      48.212   7.269  14.406  0.00  0.00    +0.000 N 
ATOM     17  C   UNL     1      48.643   7.623  15.655  0.00  0.00    +0.000 C 
ATOM     18  O   UNL     1      48.251   8.635  16.232  0.00  0.00    +0.000 OA
ATOM     19  H   UNL     1      48.823   6.667  13.854  0.00  0.00    +0.000 HD
BRANCH  17  20
ATOM     20  C   UNL     1      49.536   6.693  16.341  0.00  0.00    +0.000 A 
ATOM     21  C   UNL     1      50.813   7.117  16.679  0.00  0.00    +0.000 A 
ATOM     22  S   UNL     1      51.736   5.926  17.472  0.00  0.00    +0.000 S 
ATOM     23  C   UNL     1      50.475   4.792  17.343  0.00  0.00    +0.000 A 
ATOM     24  N   UNL     1      50.636   3.519  17.795  0.00  0.00    +0.000 NA
ATOM     25  C   UNL     1      49.619   2.750  17.584  0.00  0.00    +0.000 A 
ATOM     26  N   UNL     1      48.451   3.143  16.982  0.00  0.00    +0.000 N 
ATOM     27  C   UNL     1      48.216   4.438  16.578  0.00  0.00    +0.000 A 
ATOM     28  O   UNL     1      47.127   4.797  16.144  0.00  0.00    +0.000 OA
ATOM     29  C   UNL     1      49.351   5.326  16.742  0.00  0.00    +0.000 A 
ATOM     30  H   UNL     1      47.687   2.494  16.869  0.00  0.00    +0.000 HD
ENDBRANCH  17  20
ENDBRANCH   2  16
TORSDOF 5
ENDMDL
MODEL 6
REMARK VINA RESULT:    -6.946      2.401      4.108
REMARK INTER + INTRA:          -9.598
REMARK INTER:                  -8.747
REMARK INTRA:                  -0.851
REMARK UNBOUND:                -0.621
REMARK  Name = 
REMARK  6 active torsions:
REMARK  status: ('A' for Active; 'I' for Inactive)
REMARK    1  A    between atoms: C_1  and  C_2
REMARK    2  A    between atoms: C_2  and  N_3
REMARK    3  A    between atoms: C_2  and  C_16
REMARK    4  A    between atoms: C_4  and  C_6
REMARK    5  A    between atoms: C_19  and  C_20
REMARK    6  A    between atoms: C_20  and  C_21
REMARK                            x       y       z     vdW  Elec       q    Type
REMARK                         _______ _______ _______ _____ _____    ______ ____
ROOT
ATOM      1  C   UNL     1      49.724   7.394  13.357  0.00  0.00    +0.000 C 
ATOM      2  C   UNL     1      48.319   7.518  13.966  0.00  0.00    +0.000 C 
ENDROOT
BRANCH   2   3
ATOM      3  C   UNL     1      47.263   6.811  13.150  0.00  0.00    +0.000 A 
ATOM      4  C   UNL     1      46.933   5.475  13.375  0.00  0.00    +0.000 A 
ATOM      5  N   UNL     1      46.015   4.804  12.640  0.00  0.00    +0.000 NA
ATOM      6  C   UNL     1      45.401   5.523  11.665  0.00  0.00    +0.000 A 
ATOM      7  C   UNL     1      45.700   6.866  11.460  0.00  0.00    +0.000 A 
ATOM      8  N   UNL     1      46.630   7.529  12.184  0.00  0.00    +0.000 NA
BRANCH   6   9
ATOM      9  C   UNL     1      44.374   4.828  10.808  0.00  0.00    +0.000 C 
BRANCH   9  10
ATOM     10  C   UNL     1      44.971   3.961   9.725  0.00  0.00    +0.000 A 
ATOM     11  C   UNL     1      45.633   4.537   8.637  0.00  0.00    +0.000 A 
ATOM     12  C   UNL     1      46.126   3.706   7.643  0.00  0.00    +0.000 A 
ATOM     13  N   UNL     1      46.024   2.361   7.667  0.00  0.00    +0.000 NA
ATOM     14  C   UNL     1      45.401   1.822   8.737  0.00  0.00    +0.000 A 
ATOM     15  C   UNL     1      44.870   2.567   9.778  0.00  0.00    +0.000 A 
ENDBRANCH   9  10
ENDBRANCH   6   9
ENDBRANCH   2   3
BRANCH   2  16
ATOM     16  N   UNL     1      48.234   7.161  15.380  0.00  0.00    +0.000 N 
ATOM     17  C   UNL     1      48.711   7.947  16.393  0.00  0.00    +0.000 C 
ATOM     18  O   UNL     1      49.269   9.024  16.194  0.00  0.00    +0.000 OA
ATOM     19  H   UNL     1      48.135   6.164  15.567  0.00  0.00    +0.000 HD
BRANCH  17  20
ATOM     20  C   UNL     1      48.452   7.502  17.759  0.00  0.00    +0.000 A 
ATOM     21  C   UNL     1      47.944   8.412  18.676  0.00  0.00    +0.000 A 
ATOM     22  S   UNL     1      47.695   7.749  20.224  0.00  0.00    +0.000 S 
ATOM     23  C   UNL     1      48.303   6.239  19.730  0.00  0.00    +0.000 A 
ATOM     24  N   UNL     1      48.413   5.211  20.615  0.00  0.00    +0.000 NA
ATOM     25  C   UNL     1      48.942   4.141  20.119  0.00  0.00    +0.000 A 
ATOM     26  N   UNL     1      49.352   4.000  18.817  0.00  0.00    +0.000 N 
ATOM     27  C   UNL     1      49.191   4.986  17.871  0.00  0.00    +0.000 A 
ATOM     28  O   UNL     1      49.459   4.804  16.689  0.00  0.00    +0.000 OA
ATOM     29  C   UNL     1      48.653   6.228  18.394  0.00  0.00    +0.000 A 
ATOM     30  H   UNL     1      49.736   3.126  18.492  0.00  0.00    +0.000 HD
ENDBRANCH  17  20
ENDBRANCH   2  16
TORSDOF 5
ENDMDL
MODEL 7
REMARK VINA RESULT:    -6.910      3.813      8.469
REMARK INTER + INTRA:          -9.551
REMARK INTER:                  -8.645
REMARK INTRA:                  -0.906
REMARK UNBOUND:                -0.621
REMARK  Name = 
REMARK  6 active torsions:
REMARK  status: ('A' for Active; 'I' for Inactive)
REMARK    1  A    between atoms: C_1  and  C_2
REMARK    2  A    between atoms: C_2  and  N_3
REMARK    3  A    between atoms: C_2  and  C_16
REMARK    4  A    between atoms: C_4  and  C_6
REMARK    5  A    between atoms: C_19  and  C_20
REMARK    6  A    between atoms: C_20  and  C_21
REMARK                            x       y       z     vdW  Elec       q    Type
REMARK                         _______ _______ _______ _____ _____    ______ ____
ROOT
ATOM      1  C   UNL     1      48.402   8.981  14.664  0.00  0.00    +0.000 C 
ATOM      2  C   UNL     1      48.335   7.492  14.290  0.00  0.00    +0.000 C 
ENDROOT
BRANCH   2   3
ATOM      3  C   UNL     1      48.781   6.585  15.412  0.00  0.00    +0.000 A 
ATOM      4  C   UNL     1      49.871   6.902  16.223  0.00  0.00    +0.000 A 
ATOM      5  N   UNL     1      50.315   6.095  17.215  0.00  0.00    +0.000 NA
ATOM      6  C   UNL     1      49.615   4.947  17.399  0.00  0.00    +0.000 A 
ATOM      7  C   UNL     1      48.505   4.643  16.617  0.00  0.00    +0.000 A 
ATOM      8  N   UNL     1      48.074   5.441  15.614  0.00  0.00    +0.000 NA
BRANCH   6   9
ATOM      9  C   UNL     1      50.067   4.004  18.485  0.00  0.00    +0.000 C 
BRANCH   9  10
ATOM     10  C   UNL     1      51.246   3.145  18.094  0.00  0.00    +0.000 A 
ATOM     11  C   UNL     1      51.051   1.867  17.561  0.00  0.00    +0.000 A 
ATOM     12  C   UNL     1      52.161   1.096  17.258  0.00  0.00    +0.000 A 
ATOM     13  N   UNL     1      53.434   1.509  17.429  0.00  0.00    +0.000 NA
ATOM     14  C   UNL     1      53.603   2.754  17.924  0.00  0.00    +0.000 A 
ATOM     15  C   UNL     1      52.558   3.599  18.262  0.00  0.00    +0.000 A 
ENDBRANCH   9  10
ENDBRANCH   6   9
ENDBRANCH   2   3
BRANCH   2  16
ATOM     16  N   UNL     1      47.059   7.062  13.726  0.00  0.00    +0.000 N 
ATOM     17  C   UNL     1      46.860   6.812  12.396  0.00  0.00    +0.000 C 
ATOM     18  O   UNL     1      47.745   6.944  11.554  0.00  0.00    +0.000 OA
ATOM     19  H   UNL     1      46.240   7.296  14.286  0.00  0.00    +0.000 HD
BRANCH  17  20
ATOM     20  C   UNL     1      45.556   6.284  12.005  0.00  0.00    +0.000 A 
ATOM     21  C   UNL     1      44.601   7.157  11.502  0.00  0.00    +0.000 A 
ATOM     22  S   UNL     1      43.135   6.396  11.092  0.00  0.00    +0.000 S 
ATOM     23  C   UNL     1      43.712   4.886  11.619  0.00  0.00    +0.000 A 
ATOM     24  N   UNL     1      42.912   3.786  11.587  0.00  0.00    +0.000 NA
ATOM     25  C   UNL     1      43.460   2.719  12.068  0.00  0.00    +0.000 A 
ATOM     26  N   UNL     1      44.739   2.648  12.560  0.00  0.00    +0.000 N 
ATOM     27  C   UNL     1      45.607   3.716  12.543  0.00  0.00    +0.000 A 
ATOM     28  O   UNL     1      46.781   3.606  12.881  0.00  0.00    +0.000 OA
ATOM     29  C   UNL     1      45.019   4.952  12.064  0.00  0.00    +0.000 A 
ATOM     30  H   UNL     1      45.111   1.774  12.900  0.00  0.00    +0.000 HD
ENDBRANCH  17  20
ENDBRANCH   2  16
TORSDOF 5
ENDMDL
MODEL 8
REMARK VINA RESULT:    -6.809      3.993      8.755
REMARK INTER + INTRA:          -9.421
REMARK INTER:                  -8.397
REMARK INTRA:                  -1.024
REMARK UNBOUND:                -0.621
REMARK  Name = 
REMARK  6 active torsions:
REMARK  status: ('A' for Active; 'I' for Inactive)
REMARK    1  A    between atoms: C_1  and  C_2
REMARK    2  A    between atoms: C_2  and  N_3
REMARK    3  A    between atoms: C_2  and  C_16
REMARK    4  A    between atoms: C_4  and  C_6
REMARK    5  A    between atoms: C_19  and  C_20
REMARK    6  A    between atoms: C_20  and  C_21
REMARK                            x       y       z     vdW  Elec       q    Type
REMARK                         _______ _______ _______ _____ _____    ______ ____
ROOT
ATOM      1  C   UNL     1      48.266   9.371  15.471  0.00  0.00    +0.000 C 
ATOM      2  C   UNL     1      48.670   7.984  14.947  0.00  0.00    +0.000 C 
ENDROOT
BRANCH   2   3
ATOM      3  C   UNL     1      49.440   7.176  15.963  0.00  0.00    +0.000 A 
ATOM      4  C   UNL     1      50.806   6.930  15.824  0.00  0.00    +0.000 A 
ATOM      5  N   UNL     1      51.518   6.183  16.699  0.00  0.00    +0.000 NA
ATOM      6  C   UNL     1      50.822   5.692  17.757  0.00  0.00    +0.000 A 
ATOM      7  C   UNL     1      49.467   5.963  17.920  0.00  0.00    +0.000 A 
ATOM      8  N   UNL     1      48.754   6.696  17.035  0.00  0.00    +0.000 NA
BRANCH   6   9
ATOM      9  C   UNL     1      51.559   4.845  18.762  0.00  0.00    +0.000 C 
BRANCH   9  10
ATOM     10  C   UNL     1      51.908   3.465  18.258  0.00  0.00    +0.000 A 
ATOM     11  C   UNL     1      50.950   2.681  17.608  0.00  0.00    +0.000 A 
ATOM     12  C   UNL     1      51.300   1.404  17.201  0.00  0.00    +0.000 A 
ATOM     13  N   UNL     1      52.525   0.867  17.375  0.00  0.00    +0.000 NA
ATOM     14  C   UNL     1      53.444   1.647  17.985  0.00  0.00    +0.000 A 
ATOM     15  C   UNL     1      53.190   2.934  18.433  0.00  0.00    +0.000 A 
ENDBRANCH   9  10
ENDBRANCH   6   9
ENDBRANCH   2   3
BRANCH   2  16
ATOM     16  N   UNL     1      47.577   7.212  14.362  0.00  0.00    +0.000 N 
ATOM     17  C   UNL     1      47.745   6.291  13.365  0.00  0.00    +0.000 C 
ATOM     18  O   UNL     1      48.840   6.043  12.864  0.00  0.00    +0.000 OA
ATOM     19  H   UNL     1      46.652   7.629  14.464  0.00  0.00    +0.000 HD
BRANCH  17  20
ATOM     20  C   UNL     1      46.570   5.522  12.964  0.00  0.00    +0.000 A 
ATOM     21  C   UNL     1      46.581   4.144  13.130  0.00  0.00    +0.000 A 
ATOM     22  S   UNL     1      45.145   3.387  12.617  0.00  0.00    +0.000 S 
ATOM     23  C   UNL     1      44.484   4.870  12.112  0.00  0.00    +0.000 A 
ATOM     24  N   UNL     1      43.260   4.920  11.520  0.00  0.00    +0.000 NA
ATOM     25  C   UNL     1      42.905   6.103  11.137  0.00  0.00    +0.000 A 
ATOM     26  N   UNL     1      43.653   7.240  11.310  0.00  0.00    +0.000 N 
ATOM     27  C   UNL     1      44.861   7.248  11.969  0.00  0.00    +0.000 A 
ATOM     28  O   UNL     1      45.463   8.288  12.214  0.00  0.00    +0.000 OA
ATOM     29  C   UNL     1      45.328   5.934  12.368  0.00  0.00    +0.000 A 
ATOM     30  H   UNL     1      43.304   8.136  11.005  0.00  0.00    +0.000 HD
ENDBRANCH  17  20
ENDBRANCH   2  16
TORSDOF 5
ENDMDL
MODEL 9
REMARK VINA RESULT:    -6.777      2.726      4.142
REMARK INTER + INTRA:          -9.380
REMARK INTER:                  -8.395
REMARK INTRA:                  -0.985
REMARK UNBOUND:                -0.621
REMARK  Name = 
REMARK  6 active torsions:
REMARK  status: ('A' for Active; 'I' for Inactive)
REMARK    1  A    between atoms: C_1  and  C_2
REMARK    2  A    between atoms: C_2  and  N_3
REMARK    3  A    between atoms: C_2  and  C_16
REMARK    4  A    between atoms: C_4  and  C_6
REMARK    5  A    between atoms: C_19  and  C_20
REMARK    6  A    between atoms: C_20  and  C_21
REMARK                            x       y       z     vdW  Elec       q    Type
REMARK                         _______ _______ _______ _____ _____    ______ ____
ROOT
ATOM      1  C   UNL     1      47.646   9.583  12.483  0.00  0.00    +0.000 C 
ATOM      2  C   UNL     1      47.180   8.440  13.398  0.00  0.00    +0.000 C 
ENDROOT
BRANCH   2   3
ATOM      3  C   UNL     1      46.298   7.443  12.685  0.00  0.00    +0.000 A 
ATOM      4  C   UNL     1      46.531   6.070  12.760  0.00  0.00    +0.000 A 
ATOM      5  N   UNL     1      45.780   5.153  12.108  0.00  0.00    +0.000 NA
ATOM      6  C   UNL     1      44.749   5.649  11.377  0.00  0.00    +0.000 A 
ATOM      7  C   UNL     1      44.489   7.015  11.326  0.00  0.00    +0.000 A 
ATOM      8  N   UNL     1      45.252   7.930  11.966  0.00  0.00    +0.000 NA
BRANCH   6   9
ATOM      9  C   UNL     1      43.880   4.677  10.620  0.00  0.00    +0.000 C 
BRANCH   9  10
ATOM     10  C   UNL     1      44.634   3.843   9.612  0.00  0.00    +0.000 A 
ATOM     11  C   UNL     1      44.604   2.447   9.679  0.00  0.00    +0.000 A 
ATOM     12  C   UNL     1      45.347   1.721   8.761  0.00  0.00    +0.000 A 
ATOM     13  N   UNL     1      46.091   2.279   7.784  0.00  0.00    +0.000 NA
ATOM     14  C   UNL     1      46.090   3.629   7.722  0.00  0.00    +0.000 A 
ATOM     15  C   UNL     1      45.385   4.442   8.596  0.00  0.00    +0.000 A 
ENDBRANCH   9  10
ENDBRANCH   6   9
ENDBRANCH   2   3
BRANCH   2  16
ATOM     16  N   UNL     1      48.249   7.778  14.140  0.00  0.00    +0.000 N 
ATOM     17  C   UNL     1      48.594   8.095  15.425  0.00  0.00    +0.000 C 
ATOM     18  O   UNL     1      48.035   8.983  16.064  0.00  0.00    +0.000 OA
ATOM     19  H   UNL     1      48.958   7.326  13.563  0.00  0.00    +0.000 HD
BRANCH  17  20
ATOM     20  C   UNL     1      49.612   7.267  16.065  0.00  0.00    +0.000 A 
ATOM     21  C   UNL     1      49.249   6.474  17.145  0.00  0.00    +0.000 A 
ATOM     22  S   UNL     1      50.539   5.567  17.785  0.00  0.00    +0.000 S 
ATOM     23  C   UNL     1      51.633   6.243  16.672  0.00  0.00    +0.000 A 
ATOM     24  N   UNL     1      52.954   5.919  16.710  0.00  0.00    +0.000 NA
ATOM     25  C   UNL     1      53.678   6.547  15.844  0.00  0.00    +0.000 A 
ATOM     26  N   UNL     1      53.200   7.453  14.932  0.00  0.00    +0.000 N 
ATOM     27  C   UNL     1      51.863   7.754  14.807  0.00  0.00    +0.000 A 
ATOM     28  O   UNL     1      51.439   8.480  13.914  0.00  0.00    +0.000 OA
ATOM     29  C   UNL     1      51.016   7.117  15.797  0.00  0.00    +0.000 A 
ATOM     30  H   UNL     1      53.820   7.890  14.268  0.00  0.00    +0.000 HD
ENDBRANCH  17  20
ENDBRANCH   2  16
TORSDOF 5
ENDMDL
