MODEL 1
REMARK VINA RESULT:    -8.675      0.000      0.000
REMARK INTER + INTRA:         -13.398
REMARK INTER:                 -12.733
REMARK INTRA:                  -0.666
REMARK UNBOUND:                -0.666
REMARK  Name = 
REMARK  9 active torsions:
REMARK  status: ('A' for Active; 'I' for Inactive)
REMARK    1  A    between atoms: C_1  and  C_2
REMARK    2  A    between atoms: C_2  and  N_3
REMARK    3  A    between atoms: C_2  and  C_20
REMARK    4  A    between atoms: N_3  and  C_4
REMARK    5  A    between atoms: C_4  and  C_5
REMARK    6  A    between atoms: C_8  and  C_9
REMARK    7  A    between atoms: C_9  and  O_10
REMARK    8  A    between atoms: O_10  and  C_11
REMARK    9  A    between atoms: C_11  and  C_12
REMARK                            x       y       z     vdW  Elec       q    Type
REMARK                         _______ _______ _______ _____ _____    ______ ____
ROOT
ATOM      1  C   UNL     1      47.898   5.797  14.618  0.00  0.00    +0.000 C 
ENDROOT
BRANCH   1   2
ATOM      2  C   UNL     1      46.843   5.505  13.575  0.00  0.00    +0.000 A 
ATOM      3  C   UNL     1      46.772   6.287  12.411  0.00  0.00    +0.000 A 
ATOM      4  C   UNL     1      45.778   6.060  11.463  0.00  0.00    +0.000 A 
ATOM      5  C   UNL     1      44.843   5.035  11.653  0.00  0.00    +0.000 A 
ATOM      6  C   UNL     1      44.918   4.244  12.807  0.00  0.00    +0.000 A 
ATOM      7  C   UNL     1      45.912   4.477  13.760  0.00  0.00    +0.000 A 
BRANCH   5   8
ATOM      8  C   UNL     1      43.802   4.759  10.599  0.00  0.00    +0.000 C 
BRANCH   8   9
ATOM      9  O   UNL     1      44.402   4.299   9.390  0.00  0.00    +0.000 OA
BRANCH   9  10
ATOM     10  C   UNL     1      44.540   2.873   9.357  0.00  0.00    +0.000 C 
BRANCH  10  11
ATOM     11  C   UNL     1      45.593   2.489   8.348  0.00  0.00    +0.000 A 
ATOM     12  C   UNL     1      46.070   3.437   7.445  0.00  0.00    +0.000 A 
ATOM     13  C   UNL     1      47.056   3.065   6.536  0.00  0.00    +0.000 A 
ATOM     14  C   UNL     1      47.539   1.763   6.555  0.00  0.00    +0.000 A 
ATOM     15  C   UNL     1      47.018   0.885   7.491  0.00  0.00    +0.000 A 
ATOM     16  N   UNL     1      46.067   1.216   8.388  0.00  0.00    +0.000 NA
ENDBRANCH  10  11
ENDBRANCH   9  10
ENDBRANCH   8   9
ENDBRANCH   5   8
ENDBRANCH   1   2
BRANCH   1  17
ATOM     17  N   UNL     1      48.179   4.580  15.374  0.00  0.00    +0.000 NA
ATOM     18  H   UNL     1      49.155   4.332  15.210  0.00  0.00    +0.000 HD
BRANCH  17  20
ATOM     19  C   UNL     1      47.043   3.618  17.387  0.00  0.00    +0.000 C 
ATOM     20  C   UNL     1      47.968   4.698  16.817  0.00  0.00    +0.000 C 
BRANCH  20  21
ATOM     21  C   UNL     1      49.352   4.600  17.433  0.00  0.00    +0.000 A 
ATOM     22  C   UNL     1      49.955   5.619  18.160  0.00  0.00    +0.000 A 
ATOM     23  S   UNL     1      51.502   5.206  18.751  0.00  0.00    +0.000 S 
ATOM     24  C   UNL     1      51.410   3.654  18.061  0.00  0.00    +0.000 A 
ATOM     25  N   UNL     1      52.411   2.750  18.190  0.00  0.00    +0.000 NA
ATOM     26  N   UNL     1      52.285   1.614  17.666  0.00  0.00    +0.000 NA
ATOM     27  N   UNL     1      51.144   1.318  16.973  0.00  0.00    +0.000 N 
ATOM     28  C   UNL     1      50.072   2.160  16.774  0.00  0.00    +0.000 A 
ATOM     29  O   UNL     1      49.084   1.815  16.133  0.00  0.00    +0.000 OA
ATOM     30  C   UNL     1      50.227   3.458  17.387  0.00  0.00    +0.000 A 
ATOM     31  H   UNL     1      51.099   0.391  16.572  0.00  0.00    +0.000 HD
ENDBRANCH  20  21
ENDBRANCH  17  20
ENDBRANCH   1  17
TORSDOF 8
ENDMDL
MODEL 2
REMARK VINA RESULT:    -8.618      2.274      2.761
REMARK INTER + INTRA:         -13.315
REMARK INTER:                 -11.942
REMARK INTRA:                  -1.373
REMARK UNBOUND:                -0.666
REMARK  Name = 
REMARK  9 active torsions:
REMARK  status: ('A' for Active; 'I' for Inactive)
REMARK    1  A    between atoms: C_1  and  C_2
REMARK    2  A    between atoms: C_2  and  N_3
REMARK    3  A    between atoms: C_2  and  C_20
REMARK    4  A    between atoms: N_3  and  C_4
REMARK    5  A    between atoms: C_4  and  C_5
REMARK    6  A    between atoms: C_8  and  C_9
REMARK    7  A    between atoms: C_9  and  O_10
REMARK    8  A    between atoms: O_10  and  C_11
REMARK    9  A    between atoms: C_11  and  C_12
REMARK                            x       y       z     vdW  Elec       q    Type
REMARK                         _______ _______ _______ _____ _____    ______ ____
ROOT
ATOM      1  C   UNL     1      47.393   8.116  13.059  0.00  0.00    +0.000 C 
ENDROOT
BRANCH   1   2
ATOM      2  C   UNL     1      46.396   7.169  12.430  0.00  0.00    +0.000 A 
ATOM      3  C   UNL     1      46.648   6.626  11.160  0.00  0.00    +0.000 A 
ATOM      4  C   UNL     1      45.719   5.789  10.549  0.00  0.00    +0.000 A 
ATOM      5  C   UNL     1      44.523   5.466  11.202  0.00  0.00    +0.000 A 
ATOM      6  C   UNL     1      44.273   5.996  12.475  0.00  0.00    +0.000 A 
ATOM      7  C   UNL     1      45.202   6.840  13.084  0.00  0.00    +0.000 A 
BRANCH   5   8
ATOM      8  C   UNL     1      43.544   4.518  10.558  0.00  0.00    +0.000 C 
BRANCH   8   9
ATOM      9  O   UNL     1      44.050   4.015   9.323  0.00  0.00    +0.000 OA
BRANCH   9  10
ATOM     10  C   UNL     1      44.446   2.641   9.415  0.00  0.00    +0.000 C 
BRANCH  10  11
ATOM     11  C   UNL     1      45.552   2.365   8.427  0.00  0.00    +0.000 A 
ATOM     12  C   UNL     1      46.014   3.385   7.597  0.00  0.00    +0.000 A 
ATOM     13  C   UNL     1      47.048   3.112   6.708  0.00  0.00    +0.000 A 
ATOM     14  C   UNL     1      47.593   1.834   6.672  0.00  0.00    +0.000 A 
ATOM     15  C   UNL     1      47.081   0.881   7.535  0.00  0.00    +0.000 A 
ATOM     16  N   UNL     1      46.084   1.115   8.413  0.00  0.00    +0.000 NA
ENDBRANCH  10  11
ENDBRANCH   9  10
ENDBRANCH   8   9
ENDBRANCH   5   8
ENDBRANCH   1   2
BRANCH   1  17
ATOM     17  N   UNL     1      47.655   7.698  14.433  0.00  0.00    +0.000 NA
ATOM     18  H   UNL     1      46.956   6.996  14.682  0.00  0.00    +0.000 HD
BRANCH  17  20
ATOM     19  C   UNL     1      50.114   8.153  14.549  0.00  0.00    +0.000 C 
ATOM     20  C   UNL     1      48.983   7.124  14.651  0.00  0.00    +0.000 C 
BRANCH  20  21
ATOM     21  C   UNL     1      48.934   6.517  16.042  0.00  0.00    +0.000 A 
ATOM     22  C   UNL     1      49.540   7.079  17.158  0.00  0.00    +0.000 A 
ATOM     23  S   UNL     1      49.288   6.183  18.589  0.00  0.00    +0.000 S 
ATOM     24  C   UNL     1      48.358   5.023  17.762  0.00  0.00    +0.000 A 
ATOM     25  N   UNL     1      47.807   3.960  18.395  0.00  0.00    +0.000 NA
ATOM     26  N   UNL     1      47.120   3.138  17.735  0.00  0.00    +0.000 NA
ATOM     27  N   UNL     1      46.950   3.334  16.393  0.00  0.00    +0.000 N 
ATOM     28  C   UNL     1      47.468   4.372  15.650  0.00  0.00    +0.000 A 
ATOM     29  O   UNL     1      47.269   4.470  14.443  0.00  0.00    +0.000 OA
ATOM     30  C   UNL     1      48.248   5.310  16.421  0.00  0.00    +0.000 A 
ATOM     31  H   UNL     1      46.391   2.642  15.914  0.00  0.00    +0.000 HD
ENDBRANCH  20  21
ENDBRANCH  17  20
ENDBRANCH   1  17
TORSDOF 8
ENDMDL
MODEL 3
REMARK VINA RESULT:    -8.349      2.096      2.634
REMARK INTER + INTRA:         -12.920
REMARK INTER:                 -11.759
REMARK INTRA:                  -1.160
REMARK UNBOUND:                -0.666
REMARK  Name = 
REMARK  9 active torsions:
REMARK  status: ('A' for Active; 'I' for Inactive)
REMARK    1  A    between atoms: C_1  and  C_2
REMARK    2  A    between atoms: C_2  and  N_3
REMARK    3  A    between atoms: C_2  and  C_20
REMARK    4  A    between atoms: N_3  and  C_4
REMARK    5  A    between atoms: C_4  and  C_5
REMARK    6  A    between atoms: C_8  and  C_9
REMARK    7  A    between atoms: C_9  and  O_10
REMARK    8  A    between atoms: O_10  and  C_11
REMARK    9  A    between atoms: C_11  and  C_12
REMARK                            x       y       z     vdW  Elec       q    Type
REMARK                         _______ _______ _______ _____ _____    ______ ____
ROOT
ATOM      1  C   UNL     1      48.539   6.696  13.407  0.00  0.00    +0.000 C 
ENDROOT
BRANCH   1   2
ATOM      2  C   UNL     1      47.320   6.058  12.780  0.00  0.00    +0.000 A 
ATOM      3  C   UNL     1      46.780   6.589  11.598  0.00  0.00    +0.000 A 
ATOM      4  C   UNL     1      45.631   6.040  11.034  0.00  0.00    +0.000 A 
ATOM      5  C   UNL     1      45.006   4.940  11.634  0.00  0.00    +0.000 A 
ATOM      6  C   UNL     1      45.550   4.399  12.807  0.00  0.00    +0.000 A 
ATOM      7  C   UNL     1      46.698   4.954  13.375  0.00  0.00    +0.000 A 
BRANCH   5   8
ATOM      8  C   UNL     1      43.794   4.317  10.990  0.00  0.00    +0.000 C 
BRANCH   8   9
ATOM      9  O   UNL     1      44.081   3.882   9.663  0.00  0.00    +0.000 OA
BRANCH   9  10
ATOM     10  C   UNL     1      44.576   2.538   9.624  0.00  0.00    +0.000 C 
BRANCH  10  11
ATOM     11  C   UNL     1      45.557   2.392   8.488  0.00  0.00    +0.000 A 
ATOM     12  C   UNL     1      45.837   3.481   7.665  0.00  0.00    +0.000 A 
ATOM     13  C   UNL     1      46.760   3.328   6.636  0.00  0.00    +0.000 A 
ATOM     14  C   UNL     1      47.379   2.097   6.457  0.00  0.00    +0.000 A 
ATOM     15  C   UNL     1      47.051   1.068   7.323  0.00  0.00    +0.000 A 
ATOM     16  N   UNL     1      46.165   1.186   8.334  0.00  0.00    +0.000 NA
ENDBRANCH  10  11
ENDBRANCH   9  10
ENDBRANCH   8   9
ENDBRANCH   5   8
ENDBRANCH   1   2
BRANCH   1  17
ATOM     17  N   UNL     1      48.660   6.248  14.791  0.00  0.00    +0.000 NA
ATOM     18  H   UNL     1      48.919   5.261  14.776  0.00  0.00    +0.000 HD
BRANCH  17  20
ATOM     19  C   UNL     1      49.942   8.383  15.050  0.00  0.00    +0.000 C 
ATOM     20  C   UNL     1      49.655   6.975  15.581  0.00  0.00    +0.000 C 
BRANCH  20  21
ATOM     21  C   UNL     1      49.083   7.036  16.986  0.00  0.00    +0.000 A 
ATOM     22  C   UNL     1      48.480   8.162  17.532  0.00  0.00    +0.000 A 
ATOM     23  S   UNL     1      47.909   7.920  19.122  0.00  0.00    +0.000 S 
ATOM     24  C   UNL     1      48.444   6.305  19.126  0.00  0.00    +0.000 A 
ATOM     25  N   UNL     1      48.266   5.491  20.195  0.00  0.00    +0.000 NA
ATOM     26  N   UNL     1      48.674   4.303  20.138  0.00  0.00    +0.000 NA
ATOM     27  N   UNL     1      49.293   3.860  19.002  0.00  0.00    +0.000 N 
ATOM     28  C   UNL     1      49.531   4.601  17.864  0.00  0.00    +0.000 A 
ATOM     29  O   UNL     1      50.100   4.125  16.887  0.00  0.00    +0.000 OA
ATOM     30  C   UNL     1      49.052   5.960  17.941  0.00  0.00    +0.000 A 
ATOM     31  H   UNL     1      49.601   2.898  19.014  0.00  0.00    +0.000 HD
ENDBRANCH  20  21
ENDBRANCH  17  20
ENDBRANCH   1  17
TORSDOF 8
ENDMDL
MODEL 4
REMARK VINA RESULT:    -7.658      1.561      2.147
REMARK INTER + INTRA:         -11.906
REMARK INTER:                 -11.151
REMARK INTRA:                  -0.755
REMARK UNBOUND:                -0.666
REMARK  Name = 
REMARK  9 active torsions:
REMARK  status: ('A' for Active; 'I' for Inactive)
REMARK    1  A    between atoms: C_1  and  C_2
REMARK    2  A    between atoms: C_2  and  N_3
REMARK    3  A    between atoms: C_2  and  C_20
REMARK    4  A    between atoms: N_3  and  C_4
REMARK    5  A    between atoms: C_4  and  C_5
REMARK    6  A    between atoms: C_8  and  C_9
REMARK    7  A    between atoms: C_9  and  O_10
REMARK    8  A    between atoms: O_10  and  C_11
REMARK    9  A    between atoms: C_11  and  C_12
REMARK                            x       y       z     vdW  Elec       q    Type
REMARK                         _______ _______ _______ _____ _____    ______ ____
ROOT
ATOM      1  C   UNL     1      47.872   5.482  14.805  0.00  0.00    +0.000 C 
ENDROOT
BRANCH   1   2
ATOM      2  C   UNL     1      46.824   5.309  13.728  0.00  0.00    +0.000 A 
ATOM      3  C   UNL     1      46.203   4.064  13.548  0.00  0.00    +0.000 A 
ATOM      4  C   UNL     1      45.270   3.877  12.531  0.00  0.00    +0.000 A 
ATOM      5  C   UNL     1      44.929   4.938  11.682  0.00  0.00    +0.000 A 
ATOM      6  C   UNL     1      45.538   6.186  11.868  0.00  0.00    +0.000 A 
ATOM      7  C   UNL     1      46.478   6.370  12.883  0.00  0.00    +0.000 A 
BRANCH   5   8
ATOM      8  C   UNL     1      43.880   4.745  10.618  0.00  0.00    +0.000 C 
BRANCH   8   9
ATOM      9  O   UNL     1      44.468   4.340   9.383  0.00  0.00    +0.000 OA
BRANCH   9  10
ATOM     10  C   UNL     1      44.385   2.925   9.177  0.00  0.00    +0.000 C 
BRANCH  10  11
ATOM     11  C   UNL     1      45.483   2.484   8.242  0.00  0.00    +0.000 A 
ATOM     12  C   UNL     1      45.952   3.354   7.258  0.00  0.00    +0.000 A 
ATOM     13  C   UNL     1      46.979   2.933   6.420  0.00  0.00    +0.000 A 
ATOM     14  C   UNL     1      47.511   1.660   6.586  0.00  0.00    +0.000 A 
ATOM     15  C   UNL     1      46.994   0.861   7.592  0.00  0.00    +0.000 A 
ATOM     16  N   UNL     1      46.003   1.242   8.425  0.00  0.00    +0.000 NA
ENDBRANCH  10  11
ENDBRANCH   9  10
ENDBRANCH   8   9
ENDBRANCH   5   8
ENDBRANCH   1   2
BRANCH   1  17
ATOM     17  N   UNL     1      47.361   4.951  16.065  0.00  0.00    +0.000 NA
ATOM     18  H   UNL     1      47.362   3.933  15.996  0.00  0.00    +0.000 HD
BRANCH  17  20
ATOM     19  C   UNL     1      47.304   5.375  18.532  0.00  0.00    +0.000 C 
ATOM     20  C   UNL     1      48.136   5.335  17.246  0.00  0.00    +0.000 C 
BRANCH  20  21
ATOM     21  C   UNL     1      49.241   4.300  17.353  0.00  0.00    +0.000 A 
ATOM     22  C   UNL     1      49.058   2.940  17.135  0.00  0.00    +0.000 A 
ATOM     23  S   UNL     1      50.492   2.029  17.302  0.00  0.00    +0.000 S 
ATOM     24  C   UNL     1      51.399   3.422  17.662  0.00  0.00    +0.000 A 
ATOM     25  N   UNL     1      52.730   3.369  17.910  0.00  0.00    +0.000 NA
ATOM     26  N   UNL     1      53.353   4.432  18.162  0.00  0.00    +0.000 NA
ATOM     27  N   UNL     1      52.671   5.618  18.186  0.00  0.00    +0.000 N 
ATOM     28  C   UNL     1      51.322   5.785  17.958  0.00  0.00    +0.000 A 
ATOM     29  O   UNL     1      50.788   6.889  18.004  0.00  0.00    +0.000 OA
ATOM     30  C   UNL     1      50.623   4.558  17.663  0.00  0.00    +0.000 A 
ATOM     31  H   UNL     1      53.222   6.439  18.396  0.00  0.00    +0.000 HD
ENDBRANCH  20  21
ENDBRANCH  17  20
ENDBRANCH   1  17
TORSDOF 8
ENDMDL
MODEL 5
REMARK VINA RESULT:    -7.547      2.282      2.927
REMARK INTER + INTRA:         -11.742
REMARK INTER:                 -10.716
REMARK INTRA:                  -1.026
REMARK UNBOUND:                -0.666
REMARK  Name = 
REMARK  9 active torsions:
REMARK  status: ('A' for Active; 'I' for Inactive)
REMARK    1  A    between atoms: C_1  and  C_2
REMARK    2  A    between atoms: C_2  and  N_3
REMARK    3  A    between atoms: C_2  and  C_20
REMARK    4  A    between atoms: N_3  and  C_4
REMARK    5  A    between atoms: C_4  and  C_5
REMARK    6  A    between atoms: C_8  and  C_9
REMARK    7  A    between atoms: C_9  and  O_10
REMARK    8  A    between atoms: O_10  and  C_11
REMARK    9  A    between atoms: C_11  and  C_12
REMARK                            x       y       z     vdW  Elec       q    Type
REMARK                         _______ _______ _______ _____ _____    ______ ____
ROOT
ATOM      1  C   UNL     1      47.916   5.250  15.282  0.00  0.00    +0.000 C 
ENDROOT
BRANCH   1   2
ATOM      2  C   UNL     1      47.058   5.307  14.038  0.00  0.00    +0.000 A 
ATOM      3  C   UNL     1      45.938   4.469  13.919  0.00  0.00    +0.000 A 
ATOM      4  C   UNL     1      45.166   4.477  12.760  0.00  0.00    +0.000 A 
ATOM      5  C   UNL     1      45.490   5.335  11.702  0.00  0.00    +0.000 A 
ATOM      6  C   UNL     1      46.600   6.182  11.822  0.00  0.00    +0.000 A 
ATOM      7  C   UNL     1      47.377   6.169  12.982  0.00  0.00    +0.000 A 
BRANCH   5   8
ATOM      8  C   UNL     1      44.620   5.378  10.472  0.00  0.00    +0.000 C 
BRANCH   8   9
ATOM      9  O   UNL     1      45.284   4.800   9.351  0.00  0.00    +0.000 OA
BRANCH   9  10
ATOM     10  C   UNL     1      44.698   3.554   8.952  0.00  0.00    +0.000 C 
BRANCH  10  11
ATOM     11  C   UNL     1      45.673   2.786   8.095  0.00  0.00    +0.000 A 
ATOM     12  C   UNL     1      46.271   3.403   6.997  0.00  0.00    +0.000 A 
ATOM     13  C   UNL     1      47.182   2.681   6.234  0.00  0.00    +0.000 A 
ATOM     14  C   UNL     1      47.473   1.369   6.586  0.00  0.00    +0.000 A 
ATOM     15  C   UNL     1      46.842   0.834   7.695  0.00  0.00    +0.000 A 
ATOM     16  N   UNL     1      45.959   1.509   8.460  0.00  0.00    +0.000 NA
ENDBRANCH  10  11
ENDBRANCH   9  10
ENDBRANCH   8   9
ENDBRANCH   5   8
ENDBRANCH   1   2
BRANCH   1  17
ATOM     17  N   UNL     1      47.137   4.685  16.379  0.00  0.00    +0.000 NA
ATOM     18  H   UNL     1      46.254   4.349  15.992  0.00  0.00    +0.000 HD
BRANCH  17  20
ATOM     19  C   UNL     1      48.394   2.533  16.135  0.00  0.00    +0.000 C 
ATOM     20  C   UNL     1      47.787   3.577  17.079  0.00  0.00    +0.000 C 
BRANCH  20  21
ATOM     21  C   UNL     1      48.865   4.220  17.933  0.00  0.00    +0.000 A 
ATOM     22  C   UNL     1      50.218   3.924  17.831  0.00  0.00    +0.000 A 
ATOM     23  S   UNL     1      51.192   4.826  18.905  0.00  0.00    +0.000 S 
ATOM     24  C   UNL     1      49.837   5.642  19.532  0.00  0.00    +0.000 A 
ATOM     25  N   UNL     1      49.950   6.584  20.499  0.00  0.00    +0.000 NA
ATOM     26  N   UNL     1      48.915   7.162  20.919  0.00  0.00    +0.000 NA
ATOM     27  N   UNL     1      47.699   6.823  20.394  0.00  0.00    +0.000 N 
ATOM     28  C   UNL     1      47.469   5.879  19.417  0.00  0.00    +0.000 A 
ATOM     29  O   UNL     1      46.340   5.633  19.004  0.00  0.00    +0.000 OA
ATOM     30  C   UNL     1      48.666   5.229  18.940  0.00  0.00    +0.000 A 
ATOM     31  H   UNL     1      46.902   7.318  20.771  0.00  0.00    +0.000 HD
ENDBRANCH  20  21
ENDBRANCH  17  20
ENDBRANCH   1  17
TORSDOF 8
ENDMDL
MODEL 6
REMARK VINA RESULT:    -7.347      1.752      2.120
REMARK INTER + INTRA:         -11.449
REMARK INTER:                 -10.698
REMARK INTRA:                  -0.751
REMARK UNBOUND:                -0.666
REMARK  Name = 
REMARK  9 active torsions:
REMARK  status: ('A' for Active; 'I' for Inactive)
REMARK    1  A    between atoms: C_1  and  C_2
REMARK    2  A    between atoms: C_2  and  N_3
REMARK    3  A    between atoms: C_2  and  C_20
REMARK    4  A    between atoms: N_3  and  C_4
REMARK    5  A    between atoms: C_4  and  C_5
REMARK    6  A    between atoms: C_8  and  C_9
REMARK    7  A    between atoms: C_9  and  O_10
REMARK    8  A    between atoms: O_10  and  C_11
REMARK    9  A    between atoms: C_11  and  C_12
REMARK                            x       y       z     vdW  Elec       q    Type
REMARK                         _______ _______ _______ _____ _____    ______ ____
ROOT
ATOM      1  C   UNL     1      48.765   7.185  14.000  0.00  0.00    +0.000 C 
ENDROOT
BRANCH   1   2
ATOM      2  C   UNL     1      47.674   6.454  13.250  0.00  0.00    +0.000 A 
ATOM      3  C   UNL     1      47.315   6.865  11.957  0.00  0.00    +0.000 A 
ATOM      4  C   UNL     1      46.282   6.231  11.272  0.00  0.00    +0.000 A 
ATOM      5  C   UNL     1      45.595   5.163  11.862  0.00  0.00    +0.000 A 
ATOM      6  C   UNL     1      45.959   4.742  13.148  0.00  0.00    +0.000 A 
ATOM      7  C   UNL     1      46.991   5.383  13.837  0.00  0.00    +0.000 A 
BRANCH   5   8
ATOM      8  C   UNL     1      44.513   4.447  11.096  0.00  0.00    +0.000 C 
BRANCH   8   9
ATOM      9  O   UNL     1      45.002   3.234  10.526  0.00  0.00    +0.000 OA
BRANCH   9  10
ATOM     10  C   UNL     1      44.421   2.960   9.246  0.00  0.00    +0.000 C 
BRANCH  10  11
ATOM     11  C   UNL     1      45.498   2.532   8.281  0.00  0.00    +0.000 A 
ATOM     12  C   UNL     1      45.960   3.423   7.314  0.00  0.00    +0.000 A 
ATOM     13  C   UNL     1      46.968   3.014   6.447  0.00  0.00    +0.000 A 
ATOM     14  C   UNL     1      47.489   1.731   6.571  0.00  0.00    +0.000 A 
ATOM     15  C   UNL     1      46.980   0.912   7.563  0.00  0.00    +0.000 A 
ATOM     16  N   UNL     1      46.008   1.281   8.423  0.00  0.00    +0.000 NA
ENDBRANCH  10  11
ENDBRANCH   9  10
ENDBRANCH   8   9
ENDBRANCH   5   8
ENDBRANCH   1   2
BRANCH   1  17
ATOM     17  N   UNL     1      48.505   7.101  15.433  0.00  0.00    +0.000 NA
ATOM     18  H   UNL     1      48.625   6.127  15.714  0.00  0.00    +0.000 HD
BRANCH  17  20
ATOM     19  C   UNL     1      48.743   8.356  17.588  0.00  0.00    +0.000 C 
ATOM     20  C   UNL     1      49.381   7.931  16.261  0.00  0.00    +0.000 C 
BRANCH  20  21
ATOM     21  C   UNL     1      50.619   7.087  16.506  0.00  0.00    +0.000 A 
ATOM     22  C   UNL     1      51.916   7.516  16.253  0.00  0.00    +0.000 A 
ATOM     23  S   UNL     1      53.102   6.356  16.654  0.00  0.00    +0.000 S 
ATOM     24  C   UNL     1      51.921   5.251  17.181  0.00  0.00    +0.000 A 
ATOM     25  N   UNL     1      52.247   4.031  17.672  0.00  0.00    +0.000 NA
ATOM     26  N   UNL     1      51.332   3.258  18.056  0.00  0.00    +0.000 NA
ATOM     27  N   UNL     1      50.030   3.664  17.965  0.00  0.00    +0.000 N 
ATOM     28  C   UNL     1      49.587   4.875  17.478  0.00  0.00    +0.000 A 
ATOM     29  O   UNL     1      48.394   5.158  17.428  0.00  0.00    +0.000 OA
ATOM     30  C   UNL     1      50.648   5.754  17.048  0.00  0.00    +0.000 A 
ATOM     31  H   UNL     1      49.338   3.001  18.286  0.00  0.00    +0.000 HD
ENDBRANCH  20  21
ENDBRANCH  17  20
ENDBRANCH   1  17
TORSDOF 8
ENDMDL
MODEL 7
REMARK VINA RESULT:    -7.177      2.240      2.775
REMARK INTER + INTRA:         -11.200
REMARK INTER:                 -10.556
REMARK INTRA:                  -0.643
REMARK UNBOUND:                -0.666
REMARK  Name = 
REMARK  9 active torsions:
REMARK  status: ('A' for Active; 'I' for Inactive)
REMARK    1  A    between atoms: C_1  and  C_2
REMARK    2  A    between atoms: C_2  and  N_3
REMARK    3  A    between atoms: C_2  and  C_20
REMARK    4  A    between atoms: N_3  and  C_4
REMARK    5  A    between atoms: C_4  and  C_5
REMARK    6  A    between atoms: C_8  and  C_9
REMARK    7  A    between atoms: C_9  and  O_10
REMARK    8  A    between atoms: O_10  and  C_11
REMARK    9  A    between atoms: C_11  and  C_12
REMARK                            x       y       z     vdW  Elec       q    Type
REMARK                         _______ _______ _______ _____ _____    ______ ____
ROOT
ATOM      1  C   UNL     1      47.731   4.165  14.983  0.00  0.00    +0.000 C 
ENDROOT
BRANCH   1   2
ATOM      2  C   UNL     1      46.749   4.330  13.844  0.00  0.00    +0.000 A 
ATOM      3  C   UNL     1      46.359   5.615  13.435  0.00  0.00    +0.000 A 
ATOM      4  C   UNL     1      45.422   5.783  12.419  0.00  0.00    +0.000 A 
ATOM      5  C   UNL     1      44.867   4.667  11.780  0.00  0.00    +0.000 A 
ATOM      6  C   UNL     1      45.263   3.383  12.177  0.00  0.00    +0.000 A 
ATOM      7  C   UNL     1      46.198   3.216  13.201  0.00  0.00    +0.000 A 
BRANCH   5   8
ATOM      8  C   UNL     1      43.893   4.855  10.645  0.00  0.00    +0.000 C 
BRANCH   8   9
ATOM      9  O   UNL     1      44.003   3.800   9.692  0.00  0.00    +0.000 OA
BRANCH   9  10
ATOM     10  C   UNL     1      44.607   4.232   8.467  0.00  0.00    +0.000 C 
BRANCH  10  11
ATOM     11  C   UNL     1      45.639   3.224   8.027  0.00  0.00    +0.000 A 
ATOM     12  C   UNL     1      45.525   1.893   8.425  0.00  0.00    +0.000 A 
ATOM     13  C   UNL     1      46.477   0.976   7.991  0.00  0.00    +0.000 A 
ATOM     14  C   UNL     1      47.512   1.411   7.171  0.00  0.00    +0.000 A 
ATOM     15  C   UNL     1      47.547   2.748   6.815  0.00  0.00    +0.000 A 
ATOM     16  N   UNL     1      46.637   3.660   7.215  0.00  0.00    +0.000 NA
ENDBRANCH  10  11
ENDBRANCH   9  10
ENDBRANCH   8   9
ENDBRANCH   5   8
ENDBRANCH   1   2
BRANCH   1  17
ATOM     17  N   UNL     1      47.359   5.060  16.074  0.00  0.00    +0.000 NA
ATOM     18  H   UNL     1      46.472   5.501  15.825  0.00  0.00    +0.000 HD
BRANCH  17  20
ATOM     19  C   UNL     1      47.983   3.092  17.490  0.00  0.00    +0.000 C 
ATOM     20  C   UNL     1      47.200   4.404  17.372  0.00  0.00    +0.000 C 
BRANCH  20  21
ATOM     21  C   UNL     1      47.687   5.415  18.394  0.00  0.00    +0.000 A 
ATOM     22  C   UNL     1      46.907   5.909  19.432  0.00  0.00    +0.000 A 
ATOM     23  S   UNL     1      47.738   7.011  20.437  0.00  0.00    +0.000 S 
ATOM     24  C   UNL     1      49.162   6.856  19.520  0.00  0.00    +0.000 A 
ATOM     25  N   UNL     1      50.296   7.528  19.835  0.00  0.00    +0.000 NA
ATOM     26  N   UNL     1      51.323   7.368  19.127  0.00  0.00    +0.000 NA
ATOM     27  N   UNL     1      51.271   6.523  18.053  0.00  0.00    +0.000 N 
ATOM     28  C   UNL     1      50.175   5.798  17.641  0.00  0.00    +0.000 A 
ATOM     29  O   UNL     1      50.214   5.063  16.659  0.00  0.00    +0.000 OA
ATOM     30  C   UNL     1      49.006   5.987  18.466  0.00  0.00    +0.000 A 
ATOM     31  H   UNL     1      52.126   6.435  17.520  0.00  0.00    +0.000 HD
ENDBRANCH  20  21
ENDBRANCH  17  20
ENDBRANCH   1  17
TORSDOF 8
ENDMDL
MODEL 8
REMARK VINA RESULT:    -7.024      2.801      4.092
REMARK INTER + INTRA:         -10.975
REMARK INTER:                  -9.687
REMARK INTRA:                  -1.288
REMARK UNBOUND:                -0.666
REMARK  Name = 
REMARK  9 active torsions:
REMARK  status: ('A' for Active; 'I' for Inactive)
REMARK    1  A    between atoms: C_1  and  C_2
REMARK    2  A    between atoms: C_2  and  N_3
REMARK    3  A    between atoms: C_2  and  C_20
REMARK    4  A    between atoms: N_3  and  C_4
REMARK    5  A    between atoms: C_4  and  C_5
REMARK    6  A    between atoms: C_8  and  C_9
REMARK    7  A    between atoms: C_9  and  O_10
REMARK    8  A    between atoms: O_10  and  C_11
REMARK    9  A    between atoms: C_11  and  C_12
REMARK                            x       y       z     vdW  Elec       q    Type
REMARK                         _______ _______ _______ _____ _____    ______ ____
ROOT
ATOM      1  C   UNL     1      48.907   7.826  17.490  0.00  0.00    +0.000 C 
ENDROOT
BRANCH   1   2
ATOM      2  C   UNL     1      48.643   7.789  16.002  0.00  0.00    +0.000 A 
ATOM      3  C   UNL     1      48.191   8.942  15.340  0.00  0.00    +0.000 A 
ATOM      4  C   UNL     1      47.901   8.910  13.979  0.00  0.00    +0.000 A 
ATOM      5  C   UNL     1      48.068   7.728  13.248  0.00  0.00    +0.000 A 
ATOM      6  C   UNL     1      48.531   6.578  13.903  0.00  0.00    +0.000 A 
ATOM      7  C   UNL     1      48.816   6.609  15.269  0.00  0.00    +0.000 A 
BRANCH   5   8
ATOM      8  C   UNL     1      47.803   7.713  11.765  0.00  0.00    +0.000 C 
BRANCH   8   9
ATOM      9  O   UNL     1      46.943   6.634  11.406  0.00  0.00    +0.000 OA
BRANCH   9  10
ATOM     10  C   UNL     1      45.570   6.904  11.715  0.00  0.00    +0.000 C 
BRANCH  10  11
ATOM     11  C   UNL     1      44.793   5.611  11.743  0.00  0.00    +0.000 A 
ATOM     12  C   UNL     1      44.819   4.759  10.640  0.00  0.00    +0.000 A 
ATOM     13  C   UNL     1      44.111   3.563  10.697  0.00  0.00    +0.000 A 
ATOM     14  C   UNL     1      43.400   3.249  11.849  0.00  0.00    +0.000 A 
ATOM     15  C   UNL     1      43.434   4.147  12.903  0.00  0.00    +0.000 A 
ATOM     16  N   UNL     1      44.115   5.311  12.882  0.00  0.00    +0.000 NA
ENDBRANCH  10  11
ENDBRANCH   9  10
ENDBRANCH   8   9
ENDBRANCH   5   8
ENDBRANCH   1   2
BRANCH   1  17
ATOM     17  N   UNL     1      48.150   6.761  18.141  0.00  0.00    +0.000 NA
ATOM     18  H   UNL     1      47.945   6.052  17.437  0.00  0.00    +0.000 HD
BRANCH  17  20
ATOM     19  C   UNL     1      47.893   5.513  20.297  0.00  0.00    +0.000 C 
ATOM     20  C   UNL     1      48.844   6.118  19.258  0.00  0.00    +0.000 C 
BRANCH  20  21
ATOM     21  C   UNL     1      49.705   5.039  18.626  0.00  0.00    +0.000 A 
ATOM     22  C   UNL     1      51.071   4.910  18.840  0.00  0.00    +0.000 A 
ATOM     23  S   UNL     1      51.764   3.585  18.016  0.00  0.00    +0.000 S 
ATOM     24  C   UNL     1      50.261   3.142  17.355  0.00  0.00    +0.000 A 
ATOM     25  N   UNL     1      50.122   2.067  16.542  0.00  0.00    +0.000 NA
ATOM     26  N   UNL     1      48.984   1.781  16.089  0.00  0.00    +0.000 NA
ATOM     27  N   UNL     1      47.914   2.564  16.422  0.00  0.00    +0.000 N 
ATOM     28  C   UNL     1      47.942   3.679  17.231  0.00  0.00    +0.000 A 
ATOM     29  O   UNL     1      46.932   4.330  17.476  0.00  0.00    +0.000 OA
ATOM     30  C   UNL     1      49.253   3.992  17.748  0.00  0.00    +0.000 A 
ATOM     31  H   UNL     1      47.025   2.287  16.027  0.00  0.00    +0.000 HD
ENDBRANCH  20  21
ENDBRANCH  17  20
ENDBRANCH   1  17
TORSDOF 8
ENDMDL
MODEL 9
REMARK VINA RESULT:    -6.992      3.749      8.624
REMARK INTER + INTRA:         -10.928
REMARK INTER:                  -9.491
REMARK INTRA:                  -1.437
REMARK UNBOUND:                -0.666
REMARK  Name = 
REMARK  9 active torsions:
REMARK  status: ('A' for Active; 'I' for Inactive)
REMARK    1  A    between atoms: C_1  and  C_2
REMARK    2  A    between atoms: C_2  and  N_3
REMARK    3  A    between atoms: C_2  and  C_20
REMARK    4  A    between atoms: N_3  and  C_4
REMARK    5  A    between atoms: C_4  and  C_5
REMARK    6  A    between atoms: C_8  and  C_9
REMARK    7  A    between atoms: C_9  and  O_10
REMARK    8  A    between atoms: O_10  and  C_11
REMARK    9  A    between atoms: C_11  and  C_12
REMARK                            x       y       z     vdW  Elec       q    Type
REMARK                         _______ _______ _______ _____ _____    ______ ____
ROOT
ATOM      1  C   UNL     1      47.712   8.100  12.210  0.00  0.00    +0.000 C 
ENDROOT
BRANCH   1   2
ATOM      2  C   UNL     1      48.099   7.968  13.666  0.00  0.00    +0.000 A 
ATOM      3  C   UNL     1      47.958   9.065  14.531  0.00  0.00    +0.000 A 
ATOM      4  C   UNL     1      48.353   8.972  15.863  0.00  0.00    +0.000 A 
ATOM      5  C   UNL     1      48.883   7.776  16.361  0.00  0.00    +0.000 A 
ATOM      6  C   UNL     1      49.013   6.675  15.504  0.00  0.00    +0.000 A 
ATOM      7  C   UNL     1      48.623   6.771  14.166  0.00  0.00    +0.000 A 
BRANCH   5   8
ATOM      8  C   UNL     1      49.259   7.665  17.816  0.00  0.00    +0.000 C 
BRANCH   8   9
ATOM      9  O   UNL     1      48.169   7.177  18.595  0.00  0.00    +0.000 OA
BRANCH   9  10
ATOM     10  C   UNL     1      48.514   6.004  19.343  0.00  0.00    +0.000 C 
BRANCH  10  11
ATOM     11  C   UNL     1      48.509   4.802  18.432  0.00  0.00    +0.000 A 
ATOM     12  C   UNL     1      49.673   4.056  18.258  0.00  0.00    +0.000 A 
ATOM     13  C   UNL     1      49.639   2.940  17.428  0.00  0.00    +0.000 A 
ATOM     14  C   UNL     1      48.449   2.598  16.799  0.00  0.00    +0.000 A 
ATOM     15  C   UNL     1      47.336   3.388  17.032  0.00  0.00    +0.000 A 
ATOM     16  N   UNL     1      47.334   4.472  17.834  0.00  0.00    +0.000 NA
ENDBRANCH  10  11
ENDBRANCH   9  10
ENDBRANCH   8   9
ENDBRANCH   5   8
ENDBRANCH   1   2
BRANCH   1  17
ATOM     17  N   UNL     1      47.198   6.821  11.730  0.00  0.00    +0.000 NA
ATOM     18  H   UNL     1      47.724   6.081  12.196  0.00  0.00    +0.000 HD
BRANCH  17  20
ATOM     19  C   UNL     1      44.919   7.858  11.761  0.00  0.00    +0.000 C 
ATOM     20  C   UNL     1      45.773   6.605  11.981  0.00  0.00    +0.000 C 
BRANCH  20  21
ATOM     21  C   UNL     1      45.361   5.499  11.026  0.00  0.00    +0.000 A 
ATOM     22  C   UNL     1      45.673   5.484   9.673  0.00  0.00    +0.000 A 
ATOM     23  S   UNL     1      45.097   4.097   8.861  0.00  0.00    +0.000 S 
ATOM     24  C   UNL     1      44.421   3.475  10.292  0.00  0.00    +0.000 A 
ATOM     25  N   UNL     1      43.770   2.286  10.322  0.00  0.00    +0.000 NA
ATOM     26  N   UNL     1      43.298   1.870  11.410  0.00  0.00    +0.000 NA
ATOM     27  N   UNL     1      43.447   2.629  12.539  0.00  0.00    +0.000 N 
ATOM     28  C   UNL     1      44.081   3.849  12.621  0.00  0.00    +0.000 A 
ATOM     29  O   UNL     1      44.166   4.467  13.677  0.00  0.00    +0.000 OA
ATOM     30  C   UNL     1      44.624   4.311  11.365  0.00  0.00    +0.000 A 
ATOM     31  H   UNL     1      43.046   2.245  13.384  0.00  0.00    +0.000 HD
ENDBRANCH  20  21
ENDBRANCH  17  20
ENDBRANCH   1  17
TORSDOF 8
ENDMDL
