MODEL 1
REMARK VINA RESULT:    -6.952      0.000      0.000
REMARK INTER + INTRA:          -9.189
REMARK INTER:                  -8.780
REMARK INTRA:                  -0.409
REMARK UNBOUND:                -0.409
REMARK  Name = 
REMARK  7 active torsions:
REMARK  status: ('A' for Active; 'I' for Inactive)
REMARK    1  A    between atoms: C_1  and  C_2
REMARK    2  A    between atoms: C_2  and  C_3
REMARK    3  A    between atoms: C_2  and  N_4
REMARK    4  A    between atoms: C_2  and  C_5
REMARK    5  A    between atoms: C_8  and  O_9
REMARK    6  A    between atoms: O_9  and  C_10
REMARK    7  A    between atoms: C_10  and  C_11
REMARK                            x       y       z     vdW  Elec       q    Type
REMARK                         _______ _______ _______ _____ _____    ______ ____
ROOT
ATOM      1  C   UNL     1      46.396   5.898  12.284  0.00  0.00    +0.000 A 
ATOM      2  C   UNL     1      45.989   4.636  12.721  0.00  0.00    +0.000 A 
ATOM      3  N   UNL     1      45.300   3.761  11.942  0.00  0.00    +0.000 NA
ATOM      4  C   UNL     1      45.029   4.183  10.692  0.00  0.00    +0.000 A 
ATOM      5  C   UNL     1      45.394   5.454  10.266  0.00  0.00    +0.000 A 
ATOM      6  N   UNL     1      46.085   6.323  11.035  0.00  0.00    +0.000 NA
ENDROOT
BRANCH   1   8
ATOM      7  C   UNL     1      46.567   8.213  13.255  0.00  0.00    +0.000 C 
ATOM      8  C   UNL     1      47.228   6.829  13.167  0.00  0.00    +0.000 C 
ATOM      9  C   UNL     1      48.657   6.991  12.600  0.00  0.00    +0.000 C 
BRANCH   8  10
ATOM     10  N   UNL     1      47.345   6.292  14.539  0.00  0.00    +0.000 NA
ATOM     11  H   UNL     1      48.083   5.588  14.556  0.00  0.00    +0.000 HD
ATOM     12  H   UNL     1      46.486   5.786  14.762  0.00  0.00    +0.000 HD
ENDBRANCH   8  10
ENDBRANCH   1   8
BRANCH   4  13
ATOM     13  O   UNL     1      44.410   3.258   9.897  0.00  0.00    +0.000 OA
BRANCH  13  14
ATOM     14  C   UNL     1      44.597   3.503   8.501  0.00  0.00    +0.000 C 
BRANCH  14  15
ATOM     15  C   UNL     1      45.787   2.752   7.973  0.00  0.00    +0.000 A 
ATOM     16  C   UNL     1      45.891   1.373   8.189  0.00  0.00    +0.000 A 
ATOM     17  C   UNL     1      46.971   0.698   7.645  0.00  0.00    +0.000 A 
ATOM     18  N   UNL     1      47.928   1.287   6.904  0.00  0.00    +0.000 NA
ATOM     19  C   UNL     1      47.799   2.619   6.693  0.00  0.00    +0.000 A 
ATOM     20  C   UNL     1      46.757   3.381   7.191  0.00  0.00    +0.000 A 
ENDBRANCH  14  15
ENDBRANCH  13  14
ENDBRANCH   4  13
TORSDOF 5
ENDMDL
MODEL 2
REMARK VINA RESULT:    -6.749      1.527      6.205
REMARK INTER + INTRA:          -8.933
REMARK INTER:                  -8.553
REMARK INTRA:                  -0.380
REMARK UNBOUND:                -0.409
REMARK  Name = 
REMARK  7 active torsions:
REMARK  status: ('A' for Active; 'I' for Inactive)
REMARK    1  A    between atoms: C_1  and  C_2
REMARK    2  A    between atoms: C_2  and  C_3
REMARK    3  A    between atoms: C_2  and  N_4
REMARK    4  A    between atoms: C_2  and  C_5
REMARK    5  A    between atoms: C_8  and  O_9
REMARK    6  A    between atoms: O_9  and  C_10
REMARK    7  A    between atoms: C_10  and  C_11
REMARK                            x       y       z     vdW  Elec       q    Type
REMARK                         _______ _______ _______ _____ _____    ______ ____
ROOT
ATOM      1  C   UNL     1      46.407   2.925   7.745  0.00  0.00    +0.000 A 
ATOM      2  C   UNL     1      45.696   2.169   8.679  0.00  0.00    +0.000 A 
ATOM      3  N   UNL     1      44.917   2.718   9.648  0.00  0.00    +0.000 NA
ATOM      4  C   UNL     1      44.862   4.064   9.658  0.00  0.00    +0.000 A 
ATOM      5  C   UNL     1      45.602   4.822   8.759  0.00  0.00    +0.000 A 
ATOM      6  N   UNL     1      46.370   4.279   7.789  0.00  0.00    +0.000 NA
ENDROOT
BRANCH   1   8
ATOM      7  C   UNL     1      46.694   2.719   5.254  0.00  0.00    +0.000 C 
ATOM      8  C   UNL     1      47.219   2.271   6.626  0.00  0.00    +0.000 C 
ATOM      9  C   UNL     1      47.136   0.730   6.716  0.00  0.00    +0.000 C 
BRANCH   8  10
ATOM     10  N   UNL     1      48.644   2.652   6.716  0.00  0.00    +0.000 NA
ATOM     11  H   UNL     1      48.898   3.181   5.882  0.00  0.00    +0.000 HD
ATOM     12  H   UNL     1      49.209   1.802   6.676  0.00  0.00    +0.000 HD
ENDBRANCH   8  10
ENDBRANCH   1   8
BRANCH   4  13
ATOM     13  O   UNL     1      44.010   4.596  10.586  0.00  0.00    +0.000 OA
BRANCH  13  14
ATOM     14  C   UNL     1      44.479   5.828  11.138  0.00  0.00    +0.000 C 
BRANCH  14  15
ATOM     15  C   UNL     1      45.584   5.593  12.130  0.00  0.00    +0.000 A 
ATOM     16  C   UNL     1      46.790   6.291  12.005  0.00  0.00    +0.000 A 
ATOM     17  C   UNL     1      47.770   6.095  12.963  0.00  0.00    +0.000 A 
ATOM     18  N   UNL     1      47.629   5.279  14.024  0.00  0.00    +0.000 NA
ATOM     19  C   UNL     1      46.447   4.627  14.136  0.00  0.00    +0.000 A 
ATOM     20  C   UNL     1      45.407   4.757  13.233  0.00  0.00    +0.000 A 
ENDBRANCH  14  15
ENDBRANCH  13  14
ENDBRANCH   4  13
TORSDOF 5
ENDMDL
MODEL 3
REMARK VINA RESULT:    -6.265      1.449      1.830
REMARK INTER + INTRA:          -8.321
REMARK INTER:                  -7.870
REMARK INTRA:                  -0.451
REMARK UNBOUND:                -0.409
REMARK  Name = 
REMARK  7 active torsions:
REMARK  status: ('A' for Active; 'I' for Inactive)
REMARK    1  A    between atoms: C_1  and  C_2
REMARK    2  A    between atoms: C_2  and  C_3
REMARK    3  A    between atoms: C_2  and  N_4
REMARK    4  A    between atoms: C_2  and  C_5
REMARK    5  A    between atoms: C_8  and  O_9
REMARK    6  A    between atoms: O_9  and  C_10
REMARK    7  A    between atoms: C_10  and  C_11
REMARK                            x       y       z     vdW  Elec       q    Type
REMARK                         _______ _______ _______ _____ _____    ______ ____
ROOT
ATOM      1  C   UNL     1      47.010   5.996  13.334  0.00  0.00    +0.000 A 
ATOM      2  C   UNL     1      46.845   4.636  13.601  0.00  0.00    +0.000 A 
ATOM      3  N   UNL     1      45.872   3.874  13.035  0.00  0.00    +0.000 NA
ATOM      4  C   UNL     1      45.057   4.516  12.176  0.00  0.00    +0.000 A 
ATOM      5  C   UNL     1      45.188   5.879  11.940  0.00  0.00    +0.000 A 
ATOM      6  N   UNL     1      46.159   6.637  12.495  0.00  0.00    +0.000 NA
ENDROOT
BRANCH   1   8
ATOM      7  C   UNL     1      48.475   6.306  15.355  0.00  0.00    +0.000 C 
ATOM      8  C   UNL     1      48.158   6.805  13.938  0.00  0.00    +0.000 C 
ATOM      9  C   UNL     1      47.798   8.307  14.004  0.00  0.00    +0.000 C 
BRANCH   8  10
ATOM     10  N   UNL     1      49.384   6.671  13.123  0.00  0.00    +0.000 NA
ATOM     11  H   UNL     1      49.189   6.060  12.331  0.00  0.00    +0.000 HD
ATOM     12  H   UNL     1      50.088   6.179  13.675  0.00  0.00    +0.000 HD
ENDBRANCH   8  10
ENDBRANCH   1   8
BRANCH   4  13
ATOM     13  O   UNL     1      44.137   3.717  11.554  0.00  0.00    +0.000 OA
BRANCH  13  14
ATOM     14  C   UNL     1      43.884   4.102  10.201  0.00  0.00    +0.000 C 
BRANCH  14  15
ATOM     15  C   UNL     1      44.904   3.510   9.268  0.00  0.00    +0.000 A 
ATOM     16  C   UNL     1      45.101   2.125   9.241  0.00  0.00    +0.000 A 
ATOM     17  C   UNL     1      46.008   1.603   8.334  0.00  0.00    +0.000 A 
ATOM     18  N   UNL     1      46.708   2.349   7.460  0.00  0.00    +0.000 NA
ATOM     19  C   UNL     1      46.489   3.686   7.491  0.00  0.00    +0.000 A 
ATOM     20  C   UNL     1      45.603   4.302   8.357  0.00  0.00    +0.000 A 
ENDBRANCH  14  15
ENDBRANCH  13  14
ENDBRANCH   4  13
TORSDOF 5
ENDMDL
MODEL 4
REMARK VINA RESULT:    -6.018      3.550      5.449
REMARK INTER + INTRA:          -8.010
REMARK INTER:                  -7.686
REMARK INTRA:                  -0.324
REMARK UNBOUND:                -0.409
REMARK  Name = 
REMARK  7 active torsions:
REMARK  status: ('A' for Active; 'I' for Inactive)
REMARK    1  A    between atoms: C_1  and  C_2
REMARK    2  A    between atoms: C_2  and  C_3
REMARK    3  A    between atoms: C_2  and  N_4
REMARK    4  A    between atoms: C_2  and  C_5
REMARK    5  A    between atoms: C_8  and  O_9
REMARK    6  A    between atoms: O_9  and  C_10
REMARK    7  A    between atoms: C_10  and  C_11
REMARK                            x       y       z     vdW  Elec       q    Type
REMARK                         _______ _______ _______ _____ _____    ______ ____
ROOT
ATOM      1  C   UNL     1      47.760   4.411  16.089  0.00  0.00    +0.000 A 
ATOM      2  C   UNL     1      48.268   5.669  15.761  0.00  0.00    +0.000 A 
ATOM      3  N   UNL     1      48.150   6.225  14.526  0.00  0.00    +0.000 NA
ATOM      4  C   UNL     1      47.496   5.481  13.613  0.00  0.00    +0.000 A 
ATOM      5  C   UNL     1      47.027   4.211  13.922  0.00  0.00    +0.000 A 
ATOM      6  N   UNL     1      47.135   3.659  15.150  0.00  0.00    +0.000 NA
ENDROOT
BRANCH   1   8
ATOM      7  C   UNL     1      47.752   4.980  18.539  0.00  0.00    +0.000 C 
ATOM      8  C   UNL     1      47.852   3.847  17.508  0.00  0.00    +0.000 C 
ATOM      9  C   UNL     1      49.187   3.096  17.715  0.00  0.00    +0.000 C 
BRANCH   8  10
ATOM     10  N   UNL     1      46.753   2.894  17.769  0.00  0.00    +0.000 NA
ATOM     11  H   UNL     1      45.919   3.416  18.033  0.00  0.00    +0.000 HD
ATOM     12  H   UNL     1      46.995   2.340  18.593  0.00  0.00    +0.000 HD
ENDBRANCH   8  10
ENDBRANCH   1   8
BRANCH   4  13
ATOM     13  O   UNL     1      47.315   6.090  12.402  0.00  0.00    +0.000 OA
BRANCH  13  14
ATOM     14  C   UNL     1      46.099   6.839  12.327  0.00  0.00    +0.000 C 
BRANCH  14  15
ATOM     15  C   UNL     1      44.949   5.967  11.910  0.00  0.00    +0.000 A 
ATOM     16  C   UNL     1      44.994   5.297  10.682  0.00  0.00    +0.000 A 
ATOM     17  C   UNL     1      43.944   4.458  10.347  0.00  0.00    +0.000 A 
ATOM     18  N   UNL     1      42.881   4.233  11.141  0.00  0.00    +0.000 NA
ATOM     19  C   UNL     1      42.866   4.878  12.333  0.00  0.00    +0.000 A 
ATOM     20  C   UNL     1      43.866   5.734  12.759  0.00  0.00    +0.000 A 
ENDBRANCH  14  15
ENDBRANCH  13  14
ENDBRANCH   4  13
TORSDOF 5
ENDMDL
MODEL 5
REMARK VINA RESULT:    -5.949      1.673      6.332
REMARK INTER + INTRA:          -7.923
REMARK INTER:                  -7.463
REMARK INTRA:                  -0.460
REMARK UNBOUND:                -0.409
REMARK  Name = 
REMARK  7 active torsions:
REMARK  status: ('A' for Active; 'I' for Inactive)
REMARK    1  A    between atoms: C_1  and  C_2
REMARK    2  A    between atoms: C_2  and  C_3
REMARK    3  A    between atoms: C_2  and  N_4
REMARK    4  A    between atoms: C_2  and  C_5
REMARK    5  A    between atoms: C_8  and  O_9
REMARK    6  A    between atoms: O_9  and  C_10
REMARK    7  A    between atoms: C_10  and  C_11
REMARK                            x       y       z     vdW  Elec       q    Type
REMARK                         _______ _______ _______ _____ _____    ______ ____
ROOT
ATOM      1  C   UNL     1      46.084   2.587   7.627  0.00  0.00    +0.000 A 
ATOM      2  C   UNL     1      45.668   3.920   7.612  0.00  0.00    +0.000 A 
ATOM      3  N   UNL     1      44.847   4.458   8.553  0.00  0.00    +0.000 NA
ATOM      4  C   UNL     1      44.451   3.618   9.529  0.00  0.00    +0.000 A 
ATOM      5  C   UNL     1      44.826   2.281   9.524  0.00  0.00    +0.000 A 
ATOM      6  N   UNL     1      45.648   1.745   8.596  0.00  0.00    +0.000 NA
ENDROOT
BRANCH   1   8
ATOM      7  C   UNL     1      48.482   2.553   6.867  0.00  0.00    +0.000 C 
ATOM      8  C   UNL     1      47.062   2.035   6.590  0.00  0.00    +0.000 C 
ATOM      9  C   UNL     1      46.645   2.455   5.162  0.00  0.00    +0.000 C 
BRANCH   8  10
ATOM     10  N   UNL     1      47.099   0.558   6.633  0.00  0.00    +0.000 NA
ATOM     11  H   UNL     1      47.875   0.230   6.058  0.00  0.00    +0.000 HD
ATOM     12  H   UNL     1      46.258   0.200   6.177  0.00  0.00    +0.000 HD
ENDBRANCH   8  10
ENDBRANCH   1   8
BRANCH   4  13
ATOM     13  O   UNL     1      43.694   4.197  10.509  0.00  0.00    +0.000 OA
BRANCH  13  14
ATOM     14  C   UNL     1      44.073   3.788  11.826  0.00  0.00    +0.000 C 
BRANCH  14  15
ATOM     15  C   UNL     1      45.063   4.745  12.428  0.00  0.00    +0.000 A 
ATOM     16  C   UNL     1      46.133   4.254  13.185  0.00  0.00    +0.000 A 
ATOM     17  C   UNL     1      47.060   5.155  13.682  0.00  0.00    +0.000 A 
ATOM     18  N   UNL     1      47.004   6.483  13.470  0.00  0.00    +0.000 NA
ATOM     19  C   UNL     1      45.971   6.935  12.719  0.00  0.00    +0.000 A 
ATOM     20  C   UNL     1      44.996   6.116  12.177  0.00  0.00    +0.000 A 
ENDBRANCH  14  15
ENDBRANCH  13  14
ENDBRANCH   4  13
TORSDOF 5
ENDMDL
MODEL 6
REMARK VINA RESULT:    -5.876      3.856      7.071
REMARK INTER + INTRA:          -7.831
REMARK INTER:                  -7.467
REMARK INTRA:                  -0.363
REMARK UNBOUND:                -0.409
REMARK  Name = 
REMARK  7 active torsions:
REMARK  status: ('A' for Active; 'I' for Inactive)
REMARK    1  A    between atoms: C_1  and  C_2
REMARK    2  A    between atoms: C_2  and  C_3
REMARK    3  A    between atoms: C_2  and  N_4
REMARK    4  A    between atoms: C_2  and  C_5
REMARK    5  A    between atoms: C_8  and  O_9
REMARK    6  A    between atoms: O_9  and  C_10
REMARK    7  A    between atoms: C_10  and  C_11
REMARK                            x       y       z     vdW  Elec       q    Type
REMARK                         _______ _______ _______ _____ _____    ______ ____
ROOT
ATOM      1  C   UNL     1      45.411   4.564  11.568  0.00  0.00    +0.000 A 
ATOM      2  C   UNL     1      45.589   3.556  12.517  0.00  0.00    +0.000 A 
ATOM      3  N   UNL     1      46.253   3.740  13.688  0.00  0.00    +0.000 NA
ATOM      4  C   UNL     1      46.739   4.979  13.894  0.00  0.00    +0.000 A 
ATOM      5  C   UNL     1      46.602   5.974  12.934  0.00  0.00    +0.000 A 
ATOM      6  N   UNL     1      45.936   5.797  11.773  0.00  0.00    +0.000 NA
ENDROOT
BRANCH   1   8
ATOM      7  C   UNL     1      44.135   2.877  10.207  0.00  0.00    +0.000 C 
ATOM      8  C   UNL     1      44.599   4.338  10.292  0.00  0.00    +0.000 C 
ATOM      9  C   UNL     1      45.441   4.672   9.039  0.00  0.00    +0.000 C 
BRANCH   8  10
ATOM     10  N   UNL     1      43.398   5.200  10.271  0.00  0.00    +0.000 NA
ATOM     11  H   UNL     1      43.234   5.514   9.315  0.00  0.00    +0.000 HD
ATOM     12  H   UNL     1      43.600   6.049  10.802  0.00  0.00    +0.000 HD
ENDBRANCH   8  10
ENDBRANCH   1   8
BRANCH   4  13
ATOM     13  O   UNL     1      47.331   5.167  15.112  0.00  0.00    +0.000 OA
BRANCH  13  14
ATOM     14  C   UNL     1      47.173   4.051  15.991  0.00  0.00    +0.000 C 
BRANCH  14  15
ATOM     15  C   UNL     1      48.478   3.683  16.641  0.00  0.00    +0.000 A 
ATOM     16  C   UNL     1      48.936   2.362  16.580  0.00  0.00    +0.000 A 
ATOM     17  C   UNL     1      50.167   2.062  17.141  0.00  0.00    +0.000 A 
ATOM     18  N   UNL     1      50.962   2.972  17.733  0.00  0.00    +0.000 NA
ATOM     19  C   UNL     1      50.507   4.248  17.766  0.00  0.00    +0.000 A 
ATOM     20  C   UNL     1      49.295   4.647  17.233  0.00  0.00    +0.000 A 
ENDBRANCH  14  15
ENDBRANCH  13  14
ENDBRANCH   4  13
TORSDOF 5
ENDMDL
MODEL 7
REMARK VINA RESULT:    -5.778      4.446      6.298
REMARK INTER + INTRA:          -7.706
REMARK INTER:                  -7.412
REMARK INTRA:                  -0.295
REMARK UNBOUND:                -0.409
REMARK  Name = 
REMARK  7 active torsions:
REMARK  status: ('A' for Active; 'I' for Inactive)
REMARK    1  A    between atoms: C_1  and  C_2
REMARK    2  A    between atoms: C_2  and  C_3
REMARK    3  A    between atoms: C_2  and  N_4
REMARK    4  A    between atoms: C_2  and  C_5
REMARK    5  A    between atoms: C_8  and  O_9
REMARK    6  A    between atoms: O_9  and  C_10
REMARK    7  A    between atoms: C_10  and  C_11
REMARK                            x       y       z     vdW  Elec       q    Type
REMARK                         _______ _______ _______ _____ _____    ______ ____
ROOT
ATOM      1  C   UNL     1      48.004   4.737  18.297  0.00  0.00    +0.000 A 
ATOM      2  C   UNL     1      47.191   3.639  18.009  0.00  0.00    +0.000 A 
ATOM      3  N   UNL     1      46.764   3.334  16.755  0.00  0.00    +0.000 NA
ATOM      4  C   UNL     1      47.181   4.164  15.779  0.00  0.00    +0.000 A 
ATOM      5  C   UNL     1      47.954   5.282  16.067  0.00  0.00    +0.000 A 
ATOM      6  N   UNL     1      48.387   5.584  17.310  0.00  0.00    +0.000 NA
ENDROOT
BRANCH   1   8
ATOM      7  C   UNL     1      47.658   6.079  20.396  0.00  0.00    +0.000 C 
ATOM      8  C   UNL     1      48.521   5.010  19.710  0.00  0.00    +0.000 C 
ATOM      9  C   UNL     1      49.988   5.497  19.674  0.00  0.00    +0.000 C 
BRANCH   8  10
ATOM     10  N   UNL     1      48.472   3.786  20.536  0.00  0.00    +0.000 NA
ATOM     11  H   UNL     1      48.621   2.976  19.936  0.00  0.00    +0.000 HD
ATOM     12  H   UNL     1      47.524   3.679  20.901  0.00  0.00    +0.000 HD
ENDBRANCH   8  10
ENDBRANCH   1   8
BRANCH   4  13
ATOM     13  O   UNL     1      46.810   3.794  14.516  0.00  0.00    +0.000 OA
BRANCH  13  14
ATOM     14  C   UNL     1      46.352   4.891  13.722  0.00  0.00    +0.000 C 
BRANCH  14  15
ATOM     15  C   UNL     1      45.136   4.513  12.923  0.00  0.00    +0.000 A 
ATOM     16  C   UNL     1      44.032   5.371  12.889  0.00  0.00    +0.000 A 
ATOM     17  C   UNL     1      42.947   5.023  12.101  0.00  0.00    +0.000 A 
ATOM     18  N   UNL     1      42.894   3.908  11.349  0.00  0.00    +0.000 NA
ATOM     19  C   UNL     1      43.981   3.100  11.383  0.00  0.00    +0.000 A 
ATOM     20  C   UNL     1      45.112   3.361  12.135  0.00  0.00    +0.000 A 
ENDBRANCH  14  15
ENDBRANCH  13  14
ENDBRANCH   4  13
TORSDOF 5
ENDMDL
MODEL 8
REMARK VINA RESULT:    -5.776      1.737      2.445
REMARK INTER + INTRA:          -7.704
REMARK INTER:                  -7.263
REMARK INTRA:                  -0.442
REMARK UNBOUND:                -0.409
REMARK  Name = 
REMARK  7 active torsions:
REMARK  status: ('A' for Active; 'I' for Inactive)
REMARK    1  A    between atoms: C_1  and  C_2
REMARK    2  A    between atoms: C_2  and  C_3
REMARK    3  A    between atoms: C_2  and  N_4
REMARK    4  A    between atoms: C_2  and  C_5
REMARK    5  A    between atoms: C_8  and  O_9
REMARK    6  A    between atoms: O_9  and  C_10
REMARK    7  A    between atoms: C_10  and  C_11
REMARK                            x       y       z     vdW  Elec       q    Type
REMARK                         _______ _______ _______ _____ _____    ______ ____
ROOT
ATOM      1  C   UNL     1      46.652   7.649  12.523  0.00  0.00    +0.000 A 
ATOM      2  C   UNL     1      47.109   6.360  12.807  0.00  0.00    +0.000 A 
ATOM      3  N   UNL     1      46.401   5.236  12.522  0.00  0.00    +0.000 NA
ATOM      4  C   UNL     1      45.207   5.434  11.931  0.00  0.00    +0.000 A 
ATOM      5  C   UNL     1      44.728   6.715  11.686  0.00  0.00    +0.000 A 
ATOM      6  N   UNL     1      45.433   7.834  11.961  0.00  0.00    +0.000 NA
ENDROOT
BRANCH   1   8
ATOM      7  C   UNL     1      48.702   8.934  11.833  0.00  0.00    +0.000 C 
ATOM      8  C   UNL     1      47.507   8.887  12.796  0.00  0.00    +0.000 C 
ATOM      9  C   UNL     1      48.033   8.882  14.250  0.00  0.00    +0.000 C 
BRANCH   8  10
ATOM     10  N   UNL     1      46.720  10.124  12.606  0.00  0.00    +0.000 NA
ATOM     11  H   UNL     1      46.971  10.541  11.711  0.00  0.00    +0.000 HD
ATOM     12  H   UNL     1      47.010  10.804  13.311  0.00  0.00    +0.000 HD
ENDBRANCH   8  10
ENDBRANCH   1   8
BRANCH   4  13
ATOM     13  O   UNL     1      44.546   4.290  11.577  0.00  0.00    +0.000 OA
BRANCH  13  14
ATOM     14  C   UNL     1      44.002   4.342  10.256  0.00  0.00    +0.000 C 
BRANCH  14  15
ATOM     15  C   UNL     1      44.875   3.605   9.280  0.00  0.00    +0.000 A 
ATOM     16  C   UNL     1      45.566   4.315   8.291  0.00  0.00    +0.000 A 
ATOM     17  C   UNL     1      46.405   3.617   7.439  0.00  0.00    +0.000 A 
ATOM     18  N   UNL     1      46.611   2.289   7.511  0.00  0.00    +0.000 NA
ATOM     19  C   UNL     1      45.947   1.623   8.487  0.00  0.00    +0.000 A 
ATOM     20  C   UNL     1      45.089   2.230   9.387  0.00  0.00    +0.000 A 
ENDBRANCH  14  15
ENDBRANCH  13  14
ENDBRANCH   4  13
TORSDOF 5
ENDMDL
MODEL 9
REMARK VINA RESULT:    -5.419      3.750      5.153
REMARK INTER + INTRA:          -7.254
REMARK INTER:                  -6.914
REMARK INTRA:                  -0.340
REMARK UNBOUND:                -0.409
REMARK  Name = 
REMARK  7 active torsions:
REMARK  status: ('A' for Active; 'I' for Inactive)
REMARK    1  A    between atoms: C_1  and  C_2
REMARK    2  A    between atoms: C_2  and  C_3
REMARK    3  A    between atoms: C_2  and  N_4
REMARK    4  A    between atoms: C_2  and  C_5
REMARK    5  A    between atoms: C_8  and  O_9
REMARK    6  A    between atoms: O_9  and  C_10
REMARK    7  A    between atoms: C_10  and  C_11
REMARK                            x       y       z     vdW  Elec       q    Type
REMARK                         _______ _______ _______ _____ _____    ______ ____
ROOT
ATOM      1  C   UNL     1      48.579   4.328  16.786  0.00  0.00    +0.000 A 
ATOM      2  C   UNL     1      47.473   3.636  16.288  0.00  0.00    +0.000 A 
ATOM      3  N   UNL     1      46.741   4.061  15.225  0.00  0.00    +0.000 NA
ATOM      4  C   UNL     1      47.152   5.212  14.658  0.00  0.00    +0.000 A 
ATOM      5  C   UNL     1      48.224   5.927  15.176  0.00  0.00    +0.000 A 
ATOM      6  N   UNL     1      48.959   5.504  16.227  0.00  0.00    +0.000 NA
ENDROOT
BRANCH   1   8
ATOM      7  C   UNL     1      50.271   4.905  18.555  0.00  0.00    +0.000 C 
ATOM      8  C   UNL     1      49.419   3.784  17.941  0.00  0.00    +0.000 C 
ATOM      9  C   UNL     1      50.353   2.651  17.456  0.00  0.00    +0.000 C 
BRANCH   8  10
ATOM     10  N   UNL     1      48.557   3.231  19.007  0.00  0.00    +0.000 NA
ATOM     11  H   UNL     1      49.092   3.185  19.874  0.00  0.00    +0.000 HD
ATOM     12  H   UNL     1      48.337   2.261  18.775  0.00  0.00    +0.000 HD
ENDBRANCH   8  10
ENDBRANCH   1   8
BRANCH   4  13
ATOM     13  O   UNL     1      46.454   5.581  13.541  0.00  0.00    +0.000 OA
BRANCH  13  14
ATOM     14  C   UNL     1      45.291   4.780  13.315  0.00  0.00    +0.000 C 
BRANCH  14  15
ATOM     15  C   UNL     1      45.102   4.498  11.851  0.00  0.00    +0.000 A 
ATOM     16  C   UNL     1      44.358   3.382  11.450  0.00  0.00    +0.000 A 
ATOM     17  C   UNL     1      44.153   3.176  10.095  0.00  0.00    +0.000 A 
ATOM     18  N   UNL     1      44.618   3.995   9.134  0.00  0.00    +0.000 NA
ATOM     19  C   UNL     1      45.320   5.079   9.545  0.00  0.00    +0.000 A 
ATOM     20  C   UNL     1      45.575   5.373  10.873  0.00  0.00    +0.000 A 
ENDBRANCH  14  15
ENDBRANCH  13  14
ENDBRANCH   4  13
TORSDOF 5
ENDMDL
