MODEL 1
REMARK VINA RESULT:    -7.791      0.000      0.000
REMARK INTER + INTRA:          -9.677
REMARK INTER:                  -9.157
REMARK INTRA:                  -0.519
REMARK UNBOUND:                -0.519
REMARK  Name = 
REMARK  3 active torsions:
REMARK  status: ('A' for Active; 'I' for Inactive)
REMARK    1  A    between atoms: N_6  and  C_7
REMARK    2  A    between atoms: C_7  and  C_8
REMARK    3  A    between atoms: C_12  and  C_13
REMARK                            x       y       z     vdW  Elec       q    Type
REMARK                         _______ _______ _______ _____ _____    ______ ____
ROOT
ATOM      1  C   UNL     1      44.864   3.999  11.550  0.00  0.00    +0.000 A 
ATOM      2  C   UNL     1      45.561   3.282  12.518  0.00  0.00    +0.000 A 
ATOM      3  C   UNL     1      46.389   3.972  13.393  0.00  0.00    +0.000 A 
ATOM      4  C   UNL     1      46.501   5.352  13.278  0.00  0.00    +0.000 A 
ATOM      5  C   UNL     1      45.780   6.021  12.288  0.00  0.00    +0.000 A 
ATOM      6  N   UNL     1      44.953   5.354  11.440  0.00  0.00    +0.000 NA
ENDROOT
BRANCH   5   7
ATOM      7  C   UNL     1      45.876   7.484  12.099  0.00  0.00    +0.000 A 
ATOM      8  C   UNL     1      47.076   8.183  12.310  0.00  0.00    +0.000 A 
ATOM      9  C   UNL     1      47.100   9.562  12.157  0.00  0.00    +0.000 A 
ATOM     10  N   UNL     1      46.029  10.295  11.803  0.00  0.00    +0.000 NA
ATOM     11  C   UNL     1      44.886   9.617  11.579  0.00  0.00    +0.000 A 
ATOM     12  C   UNL     1      44.764   8.241  11.708  0.00  0.00    +0.000 A 
ENDBRANCH   5   7
BRANCH   1  13
ATOM     13  C   UNL     1      44.008   3.259  10.540  0.00  0.00    +0.000 C 
BRANCH  13  19
ATOM     14 CL   UNL     1      47.940   2.402   5.162  0.00  0.00    +0.000 Cl
ATOM     15  C   UNL     1      47.008   2.346   6.593  0.00  0.00    +0.000 A 
ATOM     16  C   UNL     1      46.392   3.454   7.117  0.00  0.00    +0.000 A 
ATOM     17  N   UNL     1      45.619   3.430   8.228  0.00  0.00    +0.000 NA
ATOM     18  C   UNL     1      45.486   2.248   8.852  0.00  0.00    +0.000 A 
ATOM     19  N   UNL     1      44.671   2.122   9.944  0.00  0.00    +0.000 N 
ATOM     20  N   UNL     1      46.083   1.122   8.439  0.00  0.00    +0.000 NA
ATOM     21  C   UNL     1      46.815   1.189   7.304  0.00  0.00    +0.000 A 
ATOM     22  H   UNL     1      44.948   1.365  10.551  0.00  0.00    +0.000 HD
ENDBRANCH  13  19
ENDBRANCH   1  13
TORSDOF 3
ENDMDL
MODEL 2
REMARK VINA RESULT:    -7.265      4.155      7.412
REMARK INTER + INTRA:          -9.058
REMARK INTER:                  -8.685
REMARK INTRA:                  -0.373
REMARK UNBOUND:                -0.519
REMARK  Name = 
REMARK  3 active torsions:
REMARK  status: ('A' for Active; 'I' for Inactive)
REMARK    1  A    between atoms: N_6  and  C_7
REMARK    2  A    between atoms: C_7  and  C_8
REMARK    3  A    between atoms: C_12  and  C_13
REMARK                            x       y       z     vdW  Elec       q    Type
REMARK                         _______ _______ _______ _____ _____    ______ ____
ROOT
ATOM      1  C   UNL     1      45.122   5.064  12.583  0.00  0.00    +0.000 A 
ATOM      2  C   UNL     1      43.790   5.449  12.692  0.00  0.00    +0.000 A 
ATOM      3  C   UNL     1      42.929   5.183  11.636  0.00  0.00    +0.000 A 
ATOM      4  C   UNL     1      43.419   4.547  10.502  0.00  0.00    +0.000 A 
ATOM      5  C   UNL     1      44.765   4.183  10.445  0.00  0.00    +0.000 A 
ATOM      6  N   UNL     1      45.609   4.423  11.483  0.00  0.00    +0.000 NA
ENDROOT
BRANCH   5   7
ATOM      7  C   UNL     1      45.352   3.526   9.258  0.00  0.00    +0.000 A 
ATOM      8  C   UNL     1      45.458   2.129   9.159  0.00  0.00    +0.000 A 
ATOM      9  C   UNL     1      46.053   1.566   8.039  0.00  0.00    +0.000 A 
ATOM     10  N   UNL     1      46.542   2.283   7.010  0.00  0.00    +0.000 NA
ATOM     11  C   UNL     1      46.416   3.622   7.099  0.00  0.00    +0.000 A 
ATOM     12  C   UNL     1      45.838   4.275   8.178  0.00  0.00    +0.000 A 
ENDBRANCH   5   7
BRANCH   1  13
ATOM     13  C   UNL     1      46.095   5.404  13.695  0.00  0.00    +0.000 C 
BRANCH  13  19
ATOM     14 CL   UNL     1      50.427   4.308  18.711  0.00  0.00    +0.000 Cl
ATOM     15  C   UNL     1      49.194   4.346  17.529  0.00  0.00    +0.000 A 
ATOM     16  C   UNL     1      49.033   5.399  16.664  0.00  0.00    +0.000 A 
ATOM     17  N   UNL     1      48.087   5.439  15.696  0.00  0.00    +0.000 NA
ATOM     18  C   UNL     1      47.254   4.388  15.615  0.00  0.00    +0.000 A 
ATOM     19  N   UNL     1      46.312   4.318  14.624  0.00  0.00    +0.000 N 
ATOM     20  N   UNL     1      47.309   3.335  16.441  0.00  0.00    +0.000 NA
ATOM     21  C   UNL     1      48.293   3.325  17.368  0.00  0.00    +0.000 A 
ATOM     22  H   UNL     1      45.519   3.750  14.882  0.00  0.00    +0.000 HD
ENDBRANCH  13  19
ENDBRANCH   1  13
TORSDOF 3
ENDMDL
MODEL 3
REMARK VINA RESULT:    -7.130      1.895      3.358
REMARK INTER + INTRA:          -8.900
REMARK INTER:                  -8.667
REMARK INTRA:                  -0.233
REMARK UNBOUND:                -0.519
REMARK  Name = 
REMARK  3 active torsions:
REMARK  status: ('A' for Active; 'I' for Inactive)
REMARK    1  A    between atoms: N_6  and  C_7
REMARK    2  A    between atoms: C_7  and  C_8
REMARK    3  A    between atoms: C_12  and  C_13
REMARK                            x       y       z     vdW  Elec       q    Type
REMARK                         _______ _______ _______ _____ _____    ______ ____
ROOT
ATOM      1  C   UNL     1      44.485   4.483  11.418  0.00  0.00    +0.000 A 
ATOM      2  C   UNL     1      44.232   5.720  10.833  0.00  0.00    +0.000 A 
ATOM      3  C   UNL     1      44.878   6.841  11.336  0.00  0.00    +0.000 A 
ATOM      4  C   UNL     1      45.753   6.699  12.406  0.00  0.00    +0.000 A 
ATOM      5  C   UNL     1      45.969   5.435  12.955  0.00  0.00    +0.000 A 
ATOM      6  N   UNL     1      45.355   4.330  12.456  0.00  0.00    +0.000 NA
ENDROOT
BRANCH   5   7
ATOM      7  C   UNL     1      46.869   5.223  14.109  0.00  0.00    +0.000 A 
ATOM      8  C   UNL     1      46.798   4.066  14.903  0.00  0.00    +0.000 A 
ATOM      9  C   UNL     1      47.640   3.936  15.998  0.00  0.00    +0.000 A 
ATOM     10  N   UNL     1      48.548   4.861  16.359  0.00  0.00    +0.000 NA
ATOM     11  C   UNL     1      48.628   5.958  15.580  0.00  0.00    +0.000 A 
ATOM     12  C   UNL     1      47.829   6.177  14.467  0.00  0.00    +0.000 A 
ENDBRANCH   5   7
BRANCH   1  13
ATOM     13  C   UNL     1      43.740   3.256  10.930  0.00  0.00    +0.000 C 
BRANCH  13  19
ATOM     14 CL   UNL     1      47.264   2.770   5.232  0.00  0.00    +0.000 Cl
ATOM     15  C   UNL     1      46.505   2.651   6.758  0.00  0.00    +0.000 A 
ATOM     16  C   UNL     1      45.689   3.635   7.256  0.00  0.00    +0.000 A 
ATOM     17  N   UNL     1      45.048   3.550   8.445  0.00  0.00    +0.000 NA
ATOM     18  C   UNL     1      45.261   2.442   9.174  0.00  0.00    +0.000 A 
ATOM     19  N   UNL     1      44.602   2.247  10.358  0.00  0.00    +0.000 N 
ATOM     20  N   UNL     1      46.073   1.448   8.790  0.00  0.00    +0.000 NA
ATOM     21  C   UNL     1      46.662   1.562   7.578  0.00  0.00    +0.000 A 
ATOM     22  H   UNL     1      45.108   1.643  10.989  0.00  0.00    +0.000 HD
ENDBRANCH  13  19
ENDBRANCH   1  13
TORSDOF 3
ENDMDL
MODEL 4
REMARK VINA RESULT:    -7.094      3.113      6.804
REMARK INTER + INTRA:          -8.857
REMARK INTER:                  -8.301
REMARK INTRA:                  -0.556
REMARK UNBOUND:                -0.519
REMARK  Name = 
REMARK  3 active torsions:
REMARK  status: ('A' for Active; 'I' for Inactive)
REMARK    1  A    between atoms: N_6  and  C_7
REMARK    2  A    between atoms: C_7  and  C_8
REMARK    3  A    between atoms: C_12  and  C_13
REMARK                            x       y       z     vdW  Elec       q    Type
REMARK                         _______ _______ _______ _____ _____    ______ ____
ROOT
ATOM      1  C   UNL     1      44.417   4.980  11.051  0.00  0.00    +0.000 A 
ATOM      2  C   UNL     1      43.553   4.166  11.777  0.00  0.00    +0.000 A 
ATOM      3  C   UNL     1      43.401   2.841  11.393  0.00  0.00    +0.000 A 
ATOM      4  C   UNL     1      44.110   2.366  10.295  0.00  0.00    +0.000 A 
ATOM      5  C   UNL     1      44.962   3.226   9.601  0.00  0.00    +0.000 A 
ATOM      6  N   UNL     1      45.130   4.520   9.985  0.00  0.00    +0.000 NA
ENDROOT
BRANCH   5   7
ATOM      7  C   UNL     1      45.723   2.788   8.413  0.00  0.00    +0.000 A 
ATOM      8  C   UNL     1      46.181   1.467   8.270  0.00  0.00    +0.000 A 
ATOM      9  C   UNL     1      46.925   1.119   7.152  0.00  0.00    +0.000 A 
ATOM     10  N   UNL     1      47.241   1.977   6.165  0.00  0.00    +0.000 NA
ATOM     11  C   UNL     1      46.779   3.237   6.295  0.00  0.00    +0.000 A 
ATOM     12  C   UNL     1      46.029   3.678   7.376  0.00  0.00    +0.000 A 
ENDBRANCH   5   7
BRANCH   1  13
ATOM     13  C   UNL     1      44.547   6.447  11.411  0.00  0.00    +0.000 C 
BRANCH  13  19
ATOM     14 CL   UNL     1      50.160   7.093  15.044  0.00  0.00    +0.000 Cl
ATOM     15  C   UNL     1      48.896   7.017  13.897  0.00  0.00    +0.000 A 
ATOM     16  C   UNL     1      47.661   6.496  14.194  0.00  0.00    +0.000 A 
ATOM     17  N   UNL     1      46.632   6.456  13.315  0.00  0.00    +0.000 NA
ATOM     18  C   UNL     1      46.865   6.934  12.082  0.00  0.00    +0.000 A 
ATOM     19  N   UNL     1      45.861   6.991  11.153  0.00  0.00    +0.000 N 
ATOM     20  N   UNL     1      48.049   7.423  11.689  0.00  0.00    +0.000 NA
ATOM     21  C   UNL     1      49.035   7.475  12.612  0.00  0.00    +0.000 A 
ATOM     22  H   UNL     1      46.207   6.963  10.205  0.00  0.00    +0.000 HD
ENDBRANCH  13  19
ENDBRANCH   1  13
TORSDOF 3
ENDMDL
MODEL 5
REMARK VINA RESULT:    -6.969      2.181      2.860
REMARK INTER + INTRA:          -8.710
REMARK INTER:                  -8.178
REMARK INTRA:                  -0.532
REMARK UNBOUND:                -0.519
REMARK  Name = 
REMARK  3 active torsions:
REMARK  status: ('A' for Active; 'I' for Inactive)
REMARK    1  A    between atoms: N_6  and  C_7
REMARK    2  A    between atoms: C_7  and  C_8
REMARK    3  A    between atoms: C_12  and  C_13
REMARK                            x       y       z     vdW  Elec       q    Type
REMARK                         _______ _______ _______ _____ _____    ______ ____
ROOT
ATOM      1  C   UNL     1      45.460   5.517  11.896  0.00  0.00    +0.000 A 
ATOM      2  C   UNL     1      45.194   4.653  12.954  0.00  0.00    +0.000 A 
ATOM      3  C   UNL     1      46.082   4.609  14.020  0.00  0.00    +0.000 A 
ATOM      4  C   UNL     1      47.209   5.420  14.000  0.00  0.00    +0.000 A 
ATOM      5  C   UNL     1      47.429   6.267  12.912  0.00  0.00    +0.000 A 
ATOM      6  N   UNL     1      46.553   6.330  11.875  0.00  0.00    +0.000 NA
ENDROOT
BRANCH   5   7
ATOM      7  C   UNL     1      48.621   7.136  12.821  0.00  0.00    +0.000 A 
ATOM      8  C   UNL     1      49.492   7.319  13.909  0.00  0.00    +0.000 A 
ATOM      9  C   UNL     1      50.575   8.177  13.780  0.00  0.00    +0.000 A 
ATOM     10  N   UNL     1      50.862   8.858  12.656  0.00  0.00    +0.000 NA
ATOM     11  C   UNL     1      50.037   8.661  11.608  0.00  0.00    +0.000 A 
ATOM     12  C   UNL     1      48.930   7.825  11.642  0.00  0.00    +0.000 A 
ENDBRANCH   5   7
BRANCH   1  13
ATOM     13  C   UNL     1      44.540   5.533  10.690  0.00  0.00    +0.000 C 
BRANCH  13  19
ATOM     14 CL   UNL     1      47.005   0.614   6.837  0.00  0.00    +0.000 Cl
ATOM     15  C   UNL     1      46.442   2.039   7.594  0.00  0.00    +0.000 A 
ATOM     16  C   UNL     1      45.785   2.024   8.798  0.00  0.00    +0.000 A 
ATOM     17  N   UNL     1      45.360   3.140   9.437  0.00  0.00    +0.000 NA
ATOM     18  C   UNL     1      45.581   4.314   8.822  0.00  0.00    +0.000 A 
ATOM     19  N   UNL     1      45.242   5.494   9.428  0.00  0.00    +0.000 N 
ATOM     20  N   UNL     1      46.177   4.424   7.628  0.00  0.00    +0.000 NA
ATOM     21  C   UNL     1      46.616   3.284   7.047  0.00  0.00    +0.000 A 
ATOM     22  H   UNL     1      45.065   6.234   8.765  0.00  0.00    +0.000 HD
ENDBRANCH  13  19
ENDBRANCH   1  13
TORSDOF 3
ENDMDL
MODEL 6
REMARK VINA RESULT:    -6.730      5.290      7.692
REMARK INTER + INTRA:          -8.429
REMARK INTER:                  -7.905
REMARK INTRA:                  -0.525
REMARK UNBOUND:                -0.519
REMARK  Name = 
REMARK  3 active torsions:
REMARK  status: ('A' for Active; 'I' for Inactive)
REMARK    1  A    between atoms: N_6  and  C_7
REMARK    2  A    between atoms: C_7  and  C_8
REMARK    3  A    between atoms: C_12  and  C_13
REMARK                            x       y       z     vdW  Elec       q    Type
REMARK                         _______ _______ _______ _____ _____    ______ ____
ROOT
ATOM      1  C   UNL     1      47.214   4.804  15.241  0.00  0.00    +0.000 A 
ATOM      2  C   UNL     1      48.068   5.877  15.008  0.00  0.00    +0.000 A 
ATOM      3  C   UNL     1      48.015   6.518  13.777  0.00  0.00    +0.000 A 
ATOM      4  C   UNL     1      47.118   6.069  12.815  0.00  0.00    +0.000 A 
ATOM      5  C   UNL     1      46.285   4.987  13.102  0.00  0.00    +0.000 A 
ATOM      6  N   UNL     1      46.318   4.368  14.311  0.00  0.00    +0.000 NA
ENDROOT
BRANCH   5   7
ATOM      7  C   UNL     1      45.328   4.449  12.112  0.00  0.00    +0.000 A 
ATOM      8  C   UNL     1      44.450   3.398  12.424  0.00  0.00    +0.000 A 
ATOM      9  C   UNL     1      43.599   2.904  11.446  0.00  0.00    +0.000 A 
ATOM     10  N   UNL     1      43.549   3.379  10.188  0.00  0.00    +0.000 NA
ATOM     11  C   UNL     1      44.377   4.404   9.900  0.00  0.00    +0.000 A 
ATOM     12  C   UNL     1      45.262   4.962  10.811  0.00  0.00    +0.000 A 
ENDBRANCH   5   7
BRANCH   1  13
ATOM     13  C   UNL     1      47.301   4.047  16.553  0.00  0.00    +0.000 C 
BRANCH  13  19
ATOM     14 CL   UNL     1      53.610   2.473  18.237  0.00  0.00    +0.000 Cl
ATOM     15  C   UNL     1      51.973   2.589  17.761  0.00  0.00    +0.000 A 
ATOM     16  C   UNL     1      51.260   3.758  17.850  0.00  0.00    +0.000 A 
ATOM     17  N   UNL     1      49.973   3.886  17.448  0.00  0.00    +0.000 NA
ATOM     18  C   UNL     1      49.375   2.786  16.962  0.00  0.00    +0.000 A 
ATOM     19  N   UNL     1      48.098   2.844  16.473  0.00  0.00    +0.000 N 
ATOM     20  N   UNL     1      49.978   1.593  16.875  0.00  0.00    +0.000 NA
ATOM     21  C   UNL     1      51.273   1.524  17.256  0.00  0.00    +0.000 A 
ATOM     22  H   UNL     1      47.621   1.956  16.526  0.00  0.00    +0.000 HD
ENDBRANCH  13  19
ENDBRANCH   1  13
TORSDOF 3
ENDMDL
MODEL 7
REMARK VINA RESULT:    -6.373      2.365      4.143
REMARK INTER + INTRA:          -8.010
REMARK INTER:                  -7.497
REMARK INTRA:                  -0.513
REMARK UNBOUND:                -0.519
REMARK  Name = 
REMARK  3 active torsions:
REMARK  status: ('A' for Active; 'I' for Inactive)
REMARK    1  A    between atoms: N_6  and  C_7
REMARK    2  A    between atoms: C_7  and  C_8
REMARK    3  A    between atoms: C_12  and  C_13
REMARK                            x       y       z     vdW  Elec       q    Type
REMARK                         _______ _______ _______ _____ _____    ______ ____
ROOT
ATOM      1  C   UNL     1      45.403   6.507  11.679  0.00  0.00    +0.000 A 
ATOM      2  C   UNL     1      45.396   7.898  11.632  0.00  0.00    +0.000 A 
ATOM      3  C   UNL     1      46.095   8.603  12.603  0.00  0.00    +0.000 A 
ATOM      4  C   UNL     1      46.776   7.905  13.592  0.00  0.00    +0.000 A 
ATOM      5  C   UNL     1      46.748   6.509  13.593  0.00  0.00    +0.000 A 
ATOM      6  N   UNL     1      46.082   5.813  12.635  0.00  0.00    +0.000 NA
ENDROOT
BRANCH   5   7
ATOM      7  C   UNL     1      47.432   5.710  14.632  0.00  0.00    +0.000 A 
ATOM      8  C   UNL     1      47.086   4.373  14.888  0.00  0.00    +0.000 A 
ATOM      9  C   UNL     1      47.734   3.682  15.902  0.00  0.00    +0.000 A 
ATOM     10  N   UNL     1      48.700   4.213  16.673  0.00  0.00    +0.000 NA
ATOM     11  C   UNL     1      49.045   5.489  16.407  0.00  0.00    +0.000 A 
ATOM     12  C   UNL     1      48.455   6.260  15.417  0.00  0.00    +0.000 A 
ENDBRANCH   5   7
BRANCH   1  13
ATOM     13  C   UNL     1      44.591   5.718  10.670  0.00  0.00    +0.000 C 
BRANCH  13  19
ATOM     14 CL   UNL     1      46.725   0.330   7.274  0.00  0.00    +0.000 Cl
ATOM     15  C   UNL     1      46.252   1.848   7.898  0.00  0.00    +0.000 A 
ATOM     16  C   UNL     1      45.613   1.983   9.105  0.00  0.00    +0.000 A 
ATOM     17  N   UNL     1      45.260   3.176   9.639  0.00  0.00    +0.000 NA
ATOM     18  C   UNL     1      45.535   4.273   8.915  0.00  0.00    +0.000 A 
ATOM     19  N   UNL     1      45.271   5.522   9.410  0.00  0.00    +0.000 N 
ATOM     20  N   UNL     1      46.118   4.237   7.709  0.00  0.00    +0.000 NA
ATOM     21  C   UNL     1      46.485   3.026   7.235  0.00  0.00    +0.000 A 
ATOM     22  H   UNL     1      45.124   6.205   8.682  0.00  0.00    +0.000 HD
ENDBRANCH  13  19
ENDBRANCH   1  13
TORSDOF 3
ENDMDL
MODEL 8
REMARK VINA RESULT:    -6.197      3.988      7.234
REMARK INTER + INTRA:          -7.803
REMARK INTER:                  -7.459
REMARK INTRA:                  -0.345
REMARK UNBOUND:                -0.519
REMARK  Name = 
REMARK  3 active torsions:
REMARK  status: ('A' for Active; 'I' for Inactive)
REMARK    1  A    between atoms: N_6  and  C_7
REMARK    2  A    between atoms: C_7  and  C_8
REMARK    3  A    between atoms: C_12  and  C_13
REMARK                            x       y       z     vdW  Elec       q    Type
REMARK                         _______ _______ _______ _____ _____    ______ ____
ROOT
ATOM      1  C   UNL     1      47.282   7.299  12.776  0.00  0.00    +0.000 A 
ATOM      2  C   UNL     1      46.526   8.453  12.956  0.00  0.00    +0.000 A 
ATOM      3  C   UNL     1      45.289   8.546  12.333  0.00  0.00    +0.000 A 
ATOM      4  C   UNL     1      44.843   7.490  11.547  0.00  0.00    +0.000 A 
ATOM      5  C   UNL     1      45.642   6.356  11.399  0.00  0.00    +0.000 A 
ATOM      6  N   UNL     1      46.846   6.251  12.022  0.00  0.00    +0.000 NA
ENDROOT
BRANCH   5   7
ATOM      7  C   UNL     1      45.234   5.211  10.558  0.00  0.00    +0.000 A 
ATOM      8  C   UNL     1      44.459   4.155  11.066  0.00  0.00    +0.000 A 
ATOM      9  C   UNL     1      44.138   3.086  10.242  0.00  0.00    +0.000 A 
ATOM     10  N   UNL     1      44.518   2.990   8.955  0.00  0.00    +0.000 NA
ATOM     11  C   UNL     1      45.241   4.018   8.466  0.00  0.00    +0.000 A 
ATOM     12  C   UNL     1      45.612   5.127   9.212  0.00  0.00    +0.000 A 
ENDBRANCH   5   7
BRANCH   1  13
ATOM     13  C   UNL     1      48.665   7.203  13.391  0.00  0.00    +0.000 C 
BRANCH  13  19
ATOM     14 CL   UNL     1      47.073   2.559  17.975  0.00  0.00    +0.000 Cl
ATOM     15  C   UNL     1      47.575   3.894  17.035  0.00  0.00    +0.000 A 
ATOM     16  C   UNL     1      47.562   3.877  15.663  0.00  0.00    +0.000 A 
ATOM     17  N   UNL     1      47.920   4.933  14.894  0.00  0.00    +0.000 NA
ATOM     18  C   UNL     1      48.335   6.039  15.534  0.00  0.00    +0.000 A 
ATOM     19  N   UNL     1      48.653   7.173  14.836  0.00  0.00    +0.000 N 
ATOM     20  N   UNL     1      48.420   6.134  16.868  0.00  0.00    +0.000 NA
ATOM     21  C   UNL     1      48.017   5.067  17.593  0.00  0.00    +0.000 A 
ATOM     22  H   UNL     1      49.310   7.760  15.328  0.00  0.00    +0.000 HD
ENDBRANCH  13  19
ENDBRANCH   1  13
TORSDOF 3
ENDMDL
MODEL 9
REMARK VINA RESULT:    -6.167      3.711      7.352
REMARK INTER + INTRA:          -7.768
REMARK INTER:                  -7.367
REMARK INTRA:                  -0.400
REMARK UNBOUND:                -0.519
REMARK  Name = 
REMARK  3 active torsions:
REMARK  status: ('A' for Active; 'I' for Inactive)
REMARK    1  A    between atoms: N_6  and  C_7
REMARK    2  A    between atoms: C_7  and  C_8
REMARK    3  A    between atoms: C_12  and  C_13
REMARK                            x       y       z     vdW  Elec       q    Type
REMARK                         _______ _______ _______ _____ _____    ______ ____
ROOT
ATOM      1  C   UNL     1      44.964   5.888  11.985  0.00  0.00    +0.000 A 
ATOM      2  C   UNL     1      43.640   5.706  12.373  0.00  0.00    +0.000 A 
ATOM      3  C   UNL     1      42.865   4.776  11.692  0.00  0.00    +0.000 A 
ATOM      4  C   UNL     1      43.429   4.059  10.645  0.00  0.00    +0.000 A 
ATOM      5  C   UNL     1      44.762   4.281  10.296  0.00  0.00    +0.000 A 
ATOM      6  N   UNL     1      45.532   5.176  10.971  0.00  0.00    +0.000 NA
ENDROOT
BRANCH   5   7
ATOM      7  C   UNL     1      45.412   3.567   9.177  0.00  0.00    +0.000 A 
ATOM      8  C   UNL     1      45.973   4.251   8.085  0.00  0.00    +0.000 A 
ATOM      9  C   UNL     1      46.535   3.529   7.042  0.00  0.00    +0.000 A 
ATOM     10  N   UNL     1      46.590   2.186   7.005  0.00  0.00    +0.000 NA
ATOM     11  C   UNL     1      46.072   1.535   8.066  0.00  0.00    +0.000 A 
ATOM     12  C   UNL     1      45.489   2.169   9.153  0.00  0.00    +0.000 A 
ENDBRANCH   5   7
BRANCH   1  13
ATOM     13  C   UNL     1      45.808   6.946  12.670  0.00  0.00    +0.000 C 
BRANCH  13  19
ATOM     14 CL   UNL     1      51.043   9.688  15.861  0.00  0.00    +0.000 Cl
ATOM     15  C   UNL     1      49.871   8.749  15.047  0.00  0.00    +0.000 A 
ATOM     16  C   UNL     1      48.607   9.213  14.782  0.00  0.00    +0.000 A 
ATOM     17  N   UNL     1      47.672   8.503  14.108  0.00  0.00    +0.000 NA
ATOM     18  C   UNL     1      48.015   7.267  13.711  0.00  0.00    +0.000 A 
ATOM     19  N   UNL     1      47.152   6.507  12.967  0.00  0.00    +0.000 N 
ATOM     20  N   UNL     1      49.210   6.714  13.960  0.00  0.00    +0.000 NA
ATOM     21  C   UNL     1      50.122   7.475  14.604  0.00  0.00    +0.000 A 
ATOM     22  H   UNL     1      47.314   5.517  13.076  0.00  0.00    +0.000 HD
ENDBRANCH  13  19
ENDBRANCH   1  13
TORSDOF 3
ENDMDL
