MODEL 1
REMARK VINA RESULT:    -8.425      0.000      0.000
REMARK INTER + INTRA:         -13.115
REMARK INTER:                 -12.119
REMARK INTRA:                  -0.996
REMARK UNBOUND:                -0.996
REMARK  Name = 
REMARK  8 active torsions:
REMARK  status: ('A' for Active; 'I' for Inactive)
REMARK    1  A    between atoms: C_2  and  C_4
REMARK    2  A    between atoms: N_8  and  C_9
REMARK    3  A    between atoms: C_9  and  C_10
REMARK    4  A    between atoms: C_10  and  C_11
REMARK    5  A    between atoms: C_10  and  C_13
REMARK    6  A    between atoms: C_11  and  O_12
REMARK    7  A    between atoms: C_17  and  C_18
REMARK    8  A    between atoms: C_18  and  C_19
REMARK                            x       y       z     vdW  Elec       q    Type
REMARK                         _______ _______ _______ _____ _____    ______ ____
ROOT
ATOM      1  C   UNL     1      44.025   6.091  11.985  0.00  0.00    +0.000 C 
ENDROOT
BRANCH   1   2
ATOM      2  C   UNL     1      45.426   5.873  12.575  0.00  0.00    +0.000 A 
ATOM      3  C   UNL     1      46.504   6.638  12.096  0.00  0.00    +0.000 A 
ATOM      4  C   UNL     1      47.765   6.557  12.687  0.00  0.00    +0.000 A 
ATOM      5  C   UNL     1      47.984   5.682  13.748  0.00  0.00    +0.000 A 
ATOM      6  C   UNL     1      46.950   4.864  14.210  0.00  0.00    +0.000 A 
ATOM      7  C   UNL     1      45.681   4.967  13.618  0.00  0.00    +0.000 A 
BRANCH   6   8
ATOM      8  C   UNL     1      47.174   3.907  15.355  0.00  0.00    +0.000 C 
BRANCH   8   9
ATOM      9  C   UNL     1      47.930   4.603  16.477  0.00  0.00    +0.000 C 
ATOM     10  C   UNL     1      48.978   3.791  17.250  0.00  0.00    +0.000 C 
ATOM     11  O   UNL     1      48.295   4.014  18.504  0.00  0.00    +0.000 OA
ATOM     12  C   UNL     1      47.194   4.656  17.822  0.00  0.00    +0.000 C 
ENDBRANCH   8   9
ENDBRANCH   6   8
ENDBRANCH   1   2
BRANCH   1  13
ATOM     13  C   UNL     1      43.647   4.848  11.135  0.00  0.00    +0.000 C 
BRANCH  13  18
ATOM     14  C   UNL     1      46.520   2.500   7.679  0.00  0.00    +0.000 A 
ATOM     15  C   UNL     1      45.679   1.938   8.636  0.00  0.00    +0.000 A 
ATOM     16  C   UNL     1      44.816   2.767   9.356  0.00  0.00    +0.000 A 
ATOM     17  C   UNL     1      44.824   4.137   9.120  0.00  0.00    +0.000 A 
ATOM     18  N   UNL     1      43.935   5.023   9.715  0.00  0.00    +0.000 N 
ATOM     19  N   UNL     1      45.663   4.698   8.227  0.00  0.00    +0.000 NA
ATOM     20  C   UNL     1      46.495   3.877   7.531  0.00  0.00    +0.000 A 
ATOM     21  H   UNL     1      44.281   5.940   9.436  0.00  0.00    +0.000 HD
BRANCH  14  23
ATOM     22  N   UNL     1      48.488   2.336   6.270  0.00  0.00    +0.000 N 
ATOM     23  C   UNL     1      47.412   1.697   6.825  0.00  0.00    +0.000 C 
ATOM     24  O   UNL     1      47.231   0.497   6.648  0.00  0.00    +0.000 OA
ATOM     25  H   UNL     1      49.159   1.754   5.783  0.00  0.00    +0.000 HD
ATOM     26  H   UNL     1      48.809   3.239   6.593  0.00  0.00    +0.000 HD
ENDBRANCH  14  23
ENDBRANCH  13  18
ENDBRANCH   1  13
BRANCH   1  27
ATOM     27  C   UNL     1      43.871   7.378  11.142  0.00  0.00    +0.000 C 
BRANCH  27  28
ATOM     28  O   UNL     1      42.512   7.790  10.995  0.00  0.00    +0.000 OA
ATOM     29  H   UNL     1      42.017   7.504  11.782  0.00  0.00    +0.000 HD
ENDBRANCH  27  28
ENDBRANCH   1  27
TORSDOF 8
ENDMDL
MODEL 2
REMARK VINA RESULT:    -8.270      2.286      3.273
REMARK INTER + INTRA:         -12.893
REMARK INTER:                 -11.576
REMARK INTRA:                  -1.317
REMARK UNBOUND:                -0.996
REMARK  Name = 
REMARK  8 active torsions:
REMARK  status: ('A' for Active; 'I' for Inactive)
REMARK    1  A    between atoms: C_2  and  C_4
REMARK    2  A    between atoms: N_8  and  C_9
REMARK    3  A    between atoms: C_9  and  C_10
REMARK    4  A    between atoms: C_10  and  C_11
REMARK    5  A    between atoms: C_10  and  C_13
REMARK    6  A    between atoms: C_11  and  O_12
REMARK    7  A    between atoms: C_17  and  C_18
REMARK    8  A    between atoms: C_18  and  C_19
REMARK                            x       y       z     vdW  Elec       q    Type
REMARK                         _______ _______ _______ _____ _____    ______ ____
ROOT
ATOM      1  C   UNL     1      43.929   5.855  12.137  0.00  0.00    +0.000 C 
ENDROOT
BRANCH   1   2
ATOM      2  C   UNL     1      45.289   5.501  12.756  0.00  0.00    +0.000 A 
ATOM      3  C   UNL     1      45.508   4.202  13.247  0.00  0.00    +0.000 A 
ATOM      4  C   UNL     1      46.765   3.806  13.704  0.00  0.00    +0.000 A 
ATOM      5  C   UNL     1      47.821   4.712  13.715  0.00  0.00    +0.000 A 
ATOM      6  C   UNL     1      47.624   6.028  13.289  0.00  0.00    +0.000 A 
ATOM      7  C   UNL     1      46.358   6.410  12.815  0.00  0.00    +0.000 A 
BRANCH   6   8
ATOM      8  C   UNL     1      48.759   7.022  13.299  0.00  0.00    +0.000 C 
BRANCH   8   9
ATOM      9  C   UNL     1      48.954   7.608  11.909  0.00  0.00    +0.000 C 
ATOM     10  C   UNL     1      50.390   7.873  11.435  0.00  0.00    +0.000 C 
ATOM     11  O   UNL     1      50.114   9.278  11.236  0.00  0.00    +0.000 OA
ATOM     12  C   UNL     1      48.799   9.130  11.816  0.00  0.00    +0.000 C 
ENDBRANCH   8   9
ENDBRANCH   6   8
ENDBRANCH   1   2
BRANCH   1  13
ATOM     13  C   UNL     1      43.469   4.670  11.244  0.00  0.00    +0.000 C 
BRANCH  13  18
ATOM     14  C   UNL     1      46.449   2.513   7.755  0.00  0.00    +0.000 A 
ATOM     15  C   UNL     1      45.631   1.898   8.699  0.00  0.00    +0.000 A 
ATOM     16  C   UNL     1      44.731   2.675   9.431  0.00  0.00    +0.000 A 
ATOM     17  C   UNL     1      44.681   4.049   9.221  0.00  0.00    +0.000 A 
ATOM     18  N   UNL     1      43.753   4.884   9.829  0.00  0.00    +0.000 N 
ATOM     19  N   UNL     1      45.497   4.661   8.340  0.00  0.00    +0.000 NA
ATOM     20  C   UNL     1      46.365   3.890   7.632  0.00  0.00    +0.000 A 
ATOM     21  H   UNL     1      44.060   5.820   9.568  0.00  0.00    +0.000 HD
BRANCH  14  23
ATOM     22  N   UNL     1      48.502   2.420   6.465  0.00  0.00    +0.000 N 
ATOM     23  C   UNL     1      47.377   1.765   6.889  0.00  0.00    +0.000 C 
ATOM     24  O   UNL     1      47.181   0.592   6.591  0.00  0.00    +0.000 OA
ATOM     25  H   UNL     1      49.190   1.866   5.970  0.00  0.00    +0.000 HD
ATOM     26  H   UNL     1      48.821   3.281   6.890  0.00  0.00    +0.000 HD
ENDBRANCH  14  23
ENDBRANCH  13  18
ENDBRANCH   1  13
BRANCH   1  27
ATOM     27  C   UNL     1      43.908   7.171  11.327  0.00  0.00    +0.000 C 
BRANCH  27  28
ATOM     28  O   UNL     1      42.591   7.576  10.953  0.00  0.00    +0.000 OA
ATOM     29  H   UNL     1      42.212   8.098  11.682  0.00  0.00    +0.000 HD
ENDBRANCH  27  28
ENDBRANCH   1  27
TORSDOF 8
ENDMDL
MODEL 3
REMARK VINA RESULT:    -8.169      2.480      5.165
REMARK INTER + INTRA:         -12.747
REMARK INTER:                 -11.973
REMARK INTRA:                  -0.774
REMARK UNBOUND:                -0.996
REMARK  Name = 
REMARK  8 active torsions:
REMARK  status: ('A' for Active; 'I' for Inactive)
REMARK    1  A    between atoms: C_2  and  C_4
REMARK    2  A    between atoms: N_8  and  C_9
REMARK    3  A    between atoms: C_9  and  C_10
REMARK    4  A    between atoms: C_10  and  C_11
REMARK    5  A    between atoms: C_10  and  C_13
REMARK    6  A    between atoms: C_11  and  O_12
REMARK    7  A    between atoms: C_17  and  C_18
REMARK    8  A    between atoms: C_18  and  C_19
REMARK                            x       y       z     vdW  Elec       q    Type
REMARK                         _______ _______ _______ _____ _____    ______ ____
ROOT
ATOM      1  C   UNL     1      45.317   5.048  11.797  0.00  0.00    +0.000 C 
ENDROOT
BRANCH   1   2
ATOM      2  C   UNL     1      45.751   6.503  12.029  0.00  0.00    +0.000 A 
ATOM      3  C   UNL     1      47.071   6.774  12.428  0.00  0.00    +0.000 A 
ATOM      4  C   UNL     1      47.538   8.085  12.531  0.00  0.00    +0.000 A 
ATOM      5  C   UNL     1      46.684   9.153  12.273  0.00  0.00    +0.000 A 
ATOM      6  C   UNL     1      45.349   8.919  11.932  0.00  0.00    +0.000 A 
ATOM      7  C   UNL     1      44.895   7.596  11.815  0.00  0.00    +0.000 A 
BRANCH   6   8
ATOM      8  C   UNL     1      44.410  10.068  11.654  0.00  0.00    +0.000 C 
BRANCH   8   9
ATOM      9  C   UNL     1      43.455   9.702  10.528  0.00  0.00    +0.000 C 
ATOM     10  C   UNL     1      43.310  10.687   9.360  0.00  0.00    +0.000 C 
ATOM     11  O   UNL     1      41.889  10.824   9.591  0.00  0.00    +0.000 OA
ATOM     12  C   UNL     1      41.980  10.028  10.794  0.00  0.00    +0.000 C 
ENDBRANCH   8   9
ENDBRANCH   6   8
ENDBRANCH   1   2
BRANCH   1  13
ATOM     13  C   UNL     1      43.947   5.050  11.066  0.00  0.00    +0.000 C 
BRANCH  13  18
ATOM     14  C   UNL     1      46.456   2.301   7.624  0.00  0.00    +0.000 A 
ATOM     15  C   UNL     1      45.730   1.860   8.726  0.00  0.00    +0.000 A 
ATOM     16  C   UNL     1      44.940   2.770   9.432  0.00  0.00    +0.000 A 
ATOM     17  C   UNL     1      44.908   4.102   9.035  0.00  0.00    +0.000 A 
ATOM     18  N   UNL     1      44.079   5.054   9.613  0.00  0.00    +0.000 N 
ATOM     19  N   UNL     1      45.639   4.551   7.996  0.00  0.00    +0.000 NA
ATOM     20  C   UNL     1      46.401   3.651   7.316  0.00  0.00    +0.000 A 
ATOM     21  H   UNL     1      44.382   5.930   9.191  0.00  0.00    +0.000 HD
BRANCH  14  23
ATOM     22  N   UNL     1      48.314   1.953   6.102  0.00  0.00    +0.000 N 
ATOM     23  C   UNL     1      47.261   1.401   6.779  0.00  0.00    +0.000 C 
ATOM     24  O   UNL     1      47.029   0.198   6.713  0.00  0.00    +0.000 OA
ATOM     25  H   UNL     1      48.931   1.310   5.620  0.00  0.00    +0.000 HD
ATOM     26  H   UNL     1      48.686   2.866   6.329  0.00  0.00    +0.000 HD
ENDBRANCH  14  23
ENDBRANCH  13  18
ENDBRANCH   1  13
BRANCH   1  27
ATOM     27  C   UNL     1      45.236   4.184  13.076  0.00  0.00    +0.000 C 
BRANCH  27  28
ATOM     28  O   UNL     1      45.646   2.833  12.866  0.00  0.00    +0.000 OA
ATOM     29  H   UNL     1      45.775   2.696  11.911  0.00  0.00    +0.000 HD
ENDBRANCH  27  28
ENDBRANCH   1  27
TORSDOF 8
ENDMDL
MODEL 4
REMARK VINA RESULT:    -7.837      2.523      3.369
REMARK INTER + INTRA:         -12.270
REMARK INTER:                 -11.422
REMARK INTRA:                  -0.848
REMARK UNBOUND:                -0.996
REMARK  Name = 
REMARK  8 active torsions:
REMARK  status: ('A' for Active; 'I' for Inactive)
REMARK    1  A    between atoms: C_2  and  C_4
REMARK    2  A    between atoms: N_8  and  C_9
REMARK    3  A    between atoms: C_9  and  C_10
REMARK    4  A    between atoms: C_10  and  C_11
REMARK    5  A    between atoms: C_10  and  C_13
REMARK    6  A    between atoms: C_11  and  O_12
REMARK    7  A    between atoms: C_17  and  C_18
REMARK    8  A    between atoms: C_18  and  C_19
REMARK                            x       y       z     vdW  Elec       q    Type
REMARK                         _______ _______ _______ _____ _____    ______ ____
ROOT
ATOM      1  C   UNL     1      45.066   4.945  11.936  0.00  0.00    +0.000 C 
ENDROOT
BRANCH   1   2
ATOM      2  C   UNL     1      45.701   6.343  11.952  0.00  0.00    +0.000 A 
ATOM      3  C   UNL     1      44.895   7.464  12.218  0.00  0.00    +0.000 A 
ATOM      4  C   UNL     1      45.452   8.735  12.363  0.00  0.00    +0.000 A 
ATOM      5  C   UNL     1      46.823   8.918  12.208  0.00  0.00    +0.000 A 
ATOM      6  C   UNL     1      47.645   7.835  11.884  0.00  0.00    +0.000 A 
ATOM      7  C   UNL     1      47.075   6.558  11.758  0.00  0.00    +0.000 A 
BRANCH   6   8
ATOM      8  C   UNL     1      49.133   8.020  11.708  0.00  0.00    +0.000 C 
BRANCH   8   9
ATOM      9  C   UNL     1      49.737   8.624  12.967  0.00  0.00    +0.000 C 
ATOM     10  C   UNL     1      51.264   8.580  13.124  0.00  0.00    +0.000 C 
ATOM     11  O   UNL     1      51.161   7.839  14.361  0.00  0.00    +0.000 OA
ATOM     12  C   UNL     1      49.731   7.709  14.197  0.00  0.00    +0.000 C 
ENDBRANCH   8   9
ENDBRANCH   6   8
ENDBRANCH   1   2
BRANCH   1  13
ATOM     13  C   UNL     1      43.756   5.007  11.103  0.00  0.00    +0.000 C 
BRANCH  13  18
ATOM     14  C   UNL     1      46.450   2.303   7.765  0.00  0.00    +0.000 A 
ATOM     15  C   UNL     1      45.628   1.846   8.792  0.00  0.00    +0.000 A 
ATOM     16  C   UNL     1      44.811   2.755   9.468  0.00  0.00    +0.000 A 
ATOM     17  C   UNL     1      44.845   4.100   9.118  0.00  0.00    +0.000 A 
ATOM     18  N   UNL     1      44.000   5.056   9.665  0.00  0.00    +0.000 N 
ATOM     19  N   UNL     1      45.666   4.562   8.155  0.00  0.00    +0.000 NA
ATOM     20  C   UNL     1      46.454   3.663   7.503  0.00  0.00    +0.000 A 
ATOM     21  H   UNL     1      44.358   5.937   9.300  0.00  0.00    +0.000 HD
BRANCH  14  23
ATOM     22  N   UNL     1      48.316   1.983   6.248  0.00  0.00    +0.000 N 
ATOM     23  C   UNL     1      47.292   1.408   6.952  0.00  0.00    +0.000 C 
ATOM     24  O   UNL     1      47.118   0.194   6.936  0.00  0.00    +0.000 OA
ATOM     25  H   UNL     1      48.960   1.350   5.788  0.00  0.00    +0.000 HD
ATOM     26  H   UNL     1      48.644   2.921   6.435  0.00  0.00    +0.000 HD
ENDBRANCH  14  23
ENDBRANCH  13  18
ENDBRANCH   1  13
BRANCH   1  27
ATOM     27  C   UNL     1      44.780   4.347  13.332  0.00  0.00    +0.000 C 
BRANCH  27  28
ATOM     28  O   UNL     1      45.964   4.128  14.099  0.00  0.00    +0.000 OA
ATOM     29  H   UNL     1      46.201   3.187  14.036  0.00  0.00    +0.000 HD
ENDBRANCH  27  28
ENDBRANCH   1  27
TORSDOF 8
ENDMDL
MODEL 5
REMARK VINA RESULT:    -7.594      2.960      7.975
REMARK INTER + INTRA:         -11.919
REMARK INTER:                 -11.267
REMARK INTRA:                  -0.652
REMARK UNBOUND:                -0.996
REMARK  Name = 
REMARK  8 active torsions:
REMARK  status: ('A' for Active; 'I' for Inactive)
REMARK    1  A    between atoms: C_2  and  C_4
REMARK    2  A    between atoms: N_8  and  C_9
REMARK    3  A    between atoms: C_9  and  C_10
REMARK    4  A    between atoms: C_10  and  C_11
REMARK    5  A    between atoms: C_10  and  C_13
REMARK    6  A    between atoms: C_11  and  O_12
REMARK    7  A    between atoms: C_17  and  C_18
REMARK    8  A    between atoms: C_18  and  C_19
REMARK                            x       y       z     vdW  Elec       q    Type
REMARK                         _______ _______ _______ _____ _____    ______ ____
ROOT
ATOM      1  C   UNL     1      45.592   6.357  11.560  0.00  0.00    +0.000 C 
ENDROOT
BRANCH   1   2
ATOM      2  C   UNL     1      45.248   5.043  10.844  0.00  0.00    +0.000 A 
ATOM      3  C   UNL     1      44.508   4.059  11.523  0.00  0.00    +0.000 A 
ATOM      4  C   UNL     1      44.072   2.905  10.871  0.00  0.00    +0.000 A 
ATOM      5  C   UNL     1      44.399   2.693   9.535  0.00  0.00    +0.000 A 
ATOM      6  C   UNL     1      45.184   3.622   8.846  0.00  0.00    +0.000 A 
ATOM      7  C   UNL     1      45.602   4.787   9.509  0.00  0.00    +0.000 A 
BRANCH   6   8
ATOM      8  C   UNL     1      45.549   3.402   7.398  0.00  0.00    +0.000 C 
BRANCH   8   9
ATOM      9  C   UNL     1      46.991   2.932   7.289  0.00  0.00    +0.000 C 
ATOM     10  C   UNL     1      47.580   2.739   5.884  0.00  0.00    +0.000 C 
ATOM     11  O   UNL     1      47.871   1.348   6.147  0.00  0.00    +0.000 OA
ATOM     12  C   UNL     1      47.194   1.418   7.422  0.00  0.00    +0.000 C 
ENDBRANCH   8   9
ENDBRANCH   6   8
ENDBRANCH   1   2
BRANCH   1  13
ATOM     13  C   UNL     1      45.812   6.056  13.067  0.00  0.00    +0.000 C 
BRANCH  13  18
ATOM     14  C   UNL     1      48.557   4.355  16.976  0.00  0.00    +0.000 A 
ATOM     15  C   UNL     1      47.552   3.700  16.270  0.00  0.00    +0.000 A 
ATOM     16  C   UNL     1      47.063   4.269  15.093  0.00  0.00    +0.000 A 
ATOM     17  C   UNL     1      47.573   5.487  14.656  0.00  0.00    +0.000 A 
ATOM     18  N   UNL     1      47.220   6.078  13.450  0.00  0.00    +0.000 N 
ATOM     19  N   UNL     1      48.516   6.152  15.352  0.00  0.00    +0.000 NA
ATOM     20  C   UNL     1      48.984   5.582  16.496  0.00  0.00    +0.000 A 
ATOM     21  H   UNL     1      47.662   6.995  13.489  0.00  0.00    +0.000 HD
BRANCH  14  23
ATOM     22  N   UNL     1      48.347   3.241  19.122  0.00  0.00    +0.000 N 
ATOM     23  C   UNL     1      49.181   3.797  18.189  0.00  0.00    +0.000 C 
ATOM     24  O   UNL     1      50.397   3.788  18.345  0.00  0.00    +0.000 OA
ATOM     25  H   UNL     1      48.790   2.757  19.894  0.00  0.00    +0.000 HD
ATOM     26  H   UNL     1      47.386   3.003  18.917  0.00  0.00    +0.000 HD
ENDBRANCH  14  23
ENDBRANCH  13  18
ENDBRANCH   1  13
BRANCH   1  27
ATOM     27  C   UNL     1      44.542   7.480  11.391  0.00  0.00    +0.000 C 
BRANCH  27  28
ATOM     28  O   UNL     1      43.238   6.984  11.087  0.00  0.00    +0.000 OA
ATOM     29  H   UNL     1      42.815   6.705  11.917  0.00  0.00    +0.000 HD
ENDBRANCH  27  28
ENDBRANCH   1  27
TORSDOF 8
ENDMDL
MODEL 6
REMARK VINA RESULT:    -7.544      2.523      3.968
REMARK INTER + INTRA:         -11.848
REMARK INTER:                 -11.626
REMARK INTRA:                  -0.222
REMARK UNBOUND:                -0.996
REMARK  Name = 
REMARK  8 active torsions:
REMARK  status: ('A' for Active; 'I' for Inactive)
REMARK    1  A    between atoms: C_2  and  C_4
REMARK    2  A    between atoms: N_8  and  C_9
REMARK    3  A    between atoms: C_9  and  C_10
REMARK    4  A    between atoms: C_10  and  C_11
REMARK    5  A    between atoms: C_10  and  C_13
REMARK    6  A    between atoms: C_11  and  O_12
REMARK    7  A    between atoms: C_17  and  C_18
REMARK    8  A    between atoms: C_18  and  C_19
REMARK                            x       y       z     vdW  Elec       q    Type
REMARK                         _______ _______ _______ _____ _____    ______ ____
ROOT
ATOM      1  C   UNL     1      44.450   4.238  11.862  0.00  0.00    +0.000 C 
ENDROOT
BRANCH   1   2
ATOM      2  C   UNL     1      45.463   5.220  12.469  0.00  0.00    +0.000 A 
ATOM      3  C   UNL     1      46.464   4.735  13.330  0.00  0.00    +0.000 A 
ATOM      4  C   UNL     1      47.474   5.572  13.805  0.00  0.00    +0.000 A 
ATOM      5  C   UNL     1      47.485   6.920  13.458  0.00  0.00    +0.000 A 
ATOM      6  C   UNL     1      46.472   7.447  12.653  0.00  0.00    +0.000 A 
ATOM      7  C   UNL     1      45.470   6.592  12.167  0.00  0.00    +0.000 A 
BRANCH   6   8
ATOM      8  C   UNL     1      46.468   8.908  12.273  0.00  0.00    +0.000 C 
BRANCH   8   9
ATOM      9  C   UNL     1      47.895   9.422  12.159  0.00  0.00    +0.000 C 
ATOM     10  C   UNL     1      48.410  10.364  13.256  0.00  0.00    +0.000 C 
ATOM     11  O   UNL     1      48.690  11.406  12.295  0.00  0.00    +0.000 OA
ATOM     12  C   UNL     1      48.079  10.634  11.237  0.00  0.00    +0.000 C 
ENDBRANCH   8   9
ENDBRANCH   6   8
ENDBRANCH   1   2
BRANCH   1  13
ATOM     13  C   UNL     1      43.452   5.038  10.981  0.00  0.00    +0.000 C 
BRANCH  13  18
ATOM     14  C   UNL     1      46.400   2.349   7.853  0.00  0.00    +0.000 A 
ATOM     15  C   UNL     1      45.426   1.891   8.737  0.00  0.00    +0.000 A 
ATOM     16  C   UNL     1      44.581   2.813   9.358  0.00  0.00    +0.000 A 
ATOM     17  C   UNL     1      44.739   4.171   9.100  0.00  0.00    +0.000 A 
ATOM     18  N   UNL     1      43.885   5.149   9.592  0.00  0.00    +0.000 N 
ATOM     19  N   UNL     1      45.704   4.629   8.279  0.00  0.00    +0.000 NA
ATOM     20  C   UNL     1      46.517   3.718   7.679  0.00  0.00    +0.000 A 
ATOM     21  H   UNL     1      44.339   6.023   9.331  0.00  0.00    +0.000 HD
BRANCH  14  23
ATOM     22  N   UNL     1      48.401   1.999   6.527  0.00  0.00    +0.000 N 
ATOM     23  C   UNL     1      47.289   1.446   7.101  0.00  0.00    +0.000 C 
ATOM     24  O   UNL     1      47.071   0.241   7.023  0.00  0.00    +0.000 OA
ATOM     25  H   UNL     1      49.066   1.355   6.114  0.00  0.00    +0.000 HD
ATOM     26  H   UNL     1      48.743   2.916   6.781  0.00  0.00    +0.000 HD
ENDBRANCH  14  23
ENDBRANCH  13  18
ENDBRANCH   1  13
BRANCH   1  27
ATOM     27  C   UNL     1      43.680   3.383  12.894  0.00  0.00    +0.000 C 
BRANCH  27  28
ATOM     28  O   UNL     1      43.513   2.026  12.481  0.00  0.00    +0.000 OA
ATOM     29  H   UNL     1      42.561   1.830  12.446  0.00  0.00    +0.000 HD
ENDBRANCH  27  28
ENDBRANCH   1  27
TORSDOF 8
ENDMDL
MODEL 7
REMARK VINA RESULT:    -6.699      3.770      7.597
REMARK INTER + INTRA:         -10.633
REMARK INTER:                 -10.012
REMARK INTRA:                  -0.621
REMARK UNBOUND:                -0.996
REMARK  Name = 
REMARK  8 active torsions:
REMARK  status: ('A' for Active; 'I' for Inactive)
REMARK    1  A    between atoms: C_2  and  C_4
REMARK    2  A    between atoms: N_8  and  C_9
REMARK    3  A    between atoms: C_9  and  C_10
REMARK    4  A    between atoms: C_10  and  C_11
REMARK    5  A    between atoms: C_10  and  C_13
REMARK    6  A    between atoms: C_11  and  O_12
REMARK    7  A    between atoms: C_17  and  C_18
REMARK    8  A    between atoms: C_18  and  C_19
REMARK                            x       y       z     vdW  Elec       q    Type
REMARK                         _______ _______ _______ _____ _____    ______ ____
ROOT
ATOM      1  C   UNL     1      45.220   6.515  11.321  0.00  0.00    +0.000 C 
ENDROOT
BRANCH   1   2
ATOM      2  C   UNL     1      45.022   5.148  10.649  0.00  0.00    +0.000 A 
ATOM      3  C   UNL     1      44.325   4.137  11.333  0.00  0.00    +0.000 A 
ATOM      4  C   UNL     1      44.018   2.926  10.712  0.00  0.00    +0.000 A 
ATOM      5  C   UNL     1      44.434   2.686   9.406  0.00  0.00    +0.000 A 
ATOM      6  C   UNL     1      45.180   3.646   8.718  0.00  0.00    +0.000 A 
ATOM      7  C   UNL     1      45.468   4.868   9.347  0.00  0.00    +0.000 A 
BRANCH   6   8
ATOM      8  C   UNL     1      45.642   3.397   7.302  0.00  0.00    +0.000 C 
BRANCH   8   9
ATOM      9  C   UNL     1      47.057   2.839   7.304  0.00  0.00    +0.000 C 
ATOM     10  C   UNL     1      47.760   2.657   5.952  0.00  0.00    +0.000 C 
ATOM     11  O   UNL     1      47.941   1.242   6.184  0.00  0.00    +0.000 OA
ATOM     12  C   UNL     1      47.154   1.312   7.394  0.00  0.00    +0.000 C 
ENDBRANCH   8   9
ENDBRANCH   6   8
ENDBRANCH   1   2
BRANCH   1  13
ATOM     13  C   UNL     1      45.819   6.288  12.736  0.00  0.00    +0.000 C 
BRANCH  13  18
ATOM     14  C   UNL     1      50.416   8.424  12.833  0.00  0.00    +0.000 A 
ATOM     15  C   UNL     1      49.748   7.849  11.755  0.00  0.00    +0.000 A 
ATOM     16  C   UNL     1      48.402   7.503  11.893  0.00  0.00    +0.000 A 
ATOM     17  C   UNL     1      47.759   7.719  13.107  0.00  0.00    +0.000 A 
ATOM     18  N   UNL     1      46.403   7.498  13.306  0.00  0.00    +0.000 N 
ATOM     19  N   UNL     1      48.406   8.235  14.170  0.00  0.00    +0.000 NA
ATOM     20  C   UNL     1      49.716   8.571  14.018  0.00  0.00    +0.000 A 
ATOM     21  H   UNL     1      46.279   7.628  14.308  0.00  0.00    +0.000 HD
BRANCH  14  23
ATOM     22  N   UNL     1      52.792   7.951  12.971  0.00  0.00    +0.000 N 
ATOM     23  C   UNL     1      51.814   8.885  12.757  0.00  0.00    +0.000 C 
ATOM     24  O   UNL     1      52.098  10.043  12.473  0.00  0.00    +0.000 OA
ATOM     25  H   UNL     1      53.746   8.248  12.802  0.00  0.00    +0.000 HD
ATOM     26  H   UNL     1      52.607   6.957  12.952  0.00  0.00    +0.000 HD
ENDBRANCH  14  23
ENDBRANCH  13  18
ENDBRANCH   1  13
BRANCH   1  27
ATOM     27  C   UNL     1      43.943   7.380  11.417  0.00  0.00    +0.000 C 
BRANCH  27  28
ATOM     28  O   UNL     1      44.091   8.664  10.810  0.00  0.00    +0.000 OA
ATOM     29  H   UNL     1      43.789   9.340  11.441  0.00  0.00    +0.000 HD
ENDBRANCH  27  28
ENDBRANCH   1  27
TORSDOF 8
ENDMDL
MODEL 8
REMARK VINA RESULT:    -6.373      3.036      5.253
REMARK INTER + INTRA:         -10.163
REMARK INTER:                  -9.238
REMARK INTRA:                  -0.926
REMARK UNBOUND:                -0.996
REMARK  Name = 
REMARK  8 active torsions:
REMARK  status: ('A' for Active; 'I' for Inactive)
REMARK    1  A    between atoms: C_2  and  C_4
REMARK    2  A    between atoms: N_8  and  C_9
REMARK    3  A    between atoms: C_9  and  C_10
REMARK    4  A    between atoms: C_10  and  C_11
REMARK    5  A    between atoms: C_10  and  C_13
REMARK    6  A    between atoms: C_11  and  O_12
REMARK    7  A    between atoms: C_17  and  C_18
REMARK    8  A    between atoms: C_18  and  C_19
REMARK                            x       y       z     vdW  Elec       q    Type
REMARK                         _______ _______ _______ _____ _____    ______ ____
ROOT
ATOM      1  C   UNL     1      49.223   8.262  14.720  0.00  0.00    +0.000 C 
ENDROOT
BRANCH   1   2
ATOM      2  C   UNL     1      49.283   7.497  16.050  0.00  0.00    +0.000 A 
ATOM      3  C   UNL     1      48.468   7.907  17.120  0.00  0.00    +0.000 A 
ATOM      4  C   UNL     1      48.402   7.168  18.301  0.00  0.00    +0.000 A 
ATOM      5  C   UNL     1      49.177   6.021  18.452  0.00  0.00    +0.000 A 
ATOM      6  C   UNL     1      50.043   5.619  17.431  0.00  0.00    +0.000 A 
ATOM      7  C   UNL     1      50.087   6.361  16.240  0.00  0.00    +0.000 A 
BRANCH   6   8
ATOM      8  C   UNL     1      50.893   4.380  17.583  0.00  0.00    +0.000 C 
BRANCH   8   9
ATOM      9  C   UNL     1      50.008   3.148  17.686  0.00  0.00    +0.000 C 
ATOM     10  C   UNL     1      50.524   1.838  17.075  0.00  0.00    +0.000 C 
ATOM     11  O   UNL     1      49.377   1.739  16.201  0.00  0.00    +0.000 OA
ATOM     12  C   UNL     1      48.911   3.042  16.620  0.00  0.00    +0.000 C 
ENDBRANCH   8   9
ENDBRANCH   6   8
ENDBRANCH   1   2
BRANCH   1  13
ATOM     13  C   UNL     1      47.859   7.966  14.039  0.00  0.00    +0.000 C 
BRANCH  13  18
ATOM     14  C   UNL     1      44.833   4.920  11.343  0.00  0.00    +0.000 A 
ATOM     15  C   UNL     1      45.709   5.900  10.885  0.00  0.00    +0.000 A 
ATOM     16  C   UNL     1      46.606   6.486  11.781  0.00  0.00    +0.000 A 
ATOM     17  C   UNL     1      46.596   6.095  13.116  0.00  0.00    +0.000 A 
ATOM     18  N   UNL     1      47.514   6.548  14.054  0.00  0.00    +0.000 N 
ATOM     19  N   UNL     1      45.725   5.177  13.580  0.00  0.00    +0.000 NA
ATOM     20  C   UNL     1      44.860   4.614  12.693  0.00  0.00    +0.000 A 
ATOM     21  H   UNL     1      47.163   6.180  14.936  0.00  0.00    +0.000 HD
BRANCH  14  23
ATOM     22  N   UNL     1      43.987   4.459   9.116  0.00  0.00    +0.000 N 
ATOM     23  C   UNL     1      43.902   4.199  10.457  0.00  0.00    +0.000 C 
ATOM     24  O   UNL     1      43.111   3.368  10.890  0.00  0.00    +0.000 OA
ATOM     25  H   UNL     1      43.427   3.876   8.505  0.00  0.00    +0.000 HD
ATOM     26  H   UNL     1      44.780   4.932   8.704  0.00  0.00    +0.000 HD
ENDBRANCH  14  23
ENDBRANCH  13  18
ENDBRANCH   1  13
BRANCH   1  27
ATOM     27  C   UNL     1      50.382   7.956  13.744  0.00  0.00    +0.000 C 
BRANCH  27  28
ATOM     28  O   UNL     1      49.989   7.119  12.656  0.00  0.00    +0.000 OA
ATOM     29  H   UNL     1      49.323   6.487  12.978  0.00  0.00    +0.000 HD
ENDBRANCH  27  28
ENDBRANCH   1  27
TORSDOF 8
ENDMDL
MODEL 9
REMARK VINA RESULT:    -6.319      3.839      8.879
REMARK INTER + INTRA:         -10.085
REMARK INTER:                  -9.181
REMARK INTRA:                  -0.904
REMARK UNBOUND:                -0.996
REMARK  Name = 
REMARK  8 active torsions:
REMARK  status: ('A' for Active; 'I' for Inactive)
REMARK    1  A    between atoms: C_2  and  C_4
REMARK    2  A    between atoms: N_8  and  C_9
REMARK    3  A    between atoms: C_9  and  C_10
REMARK    4  A    between atoms: C_10  and  C_11
REMARK    5  A    between atoms: C_10  and  C_13
REMARK    6  A    between atoms: C_11  and  O_12
REMARK    7  A    between atoms: C_17  and  C_18
REMARK    8  A    between atoms: C_18  and  C_19
REMARK                            x       y       z     vdW  Elec       q    Type
REMARK                         _______ _______ _______ _____ _____    ______ ____
ROOT
ATOM      1  C   UNL     1      46.750   4.847  13.358  0.00  0.00    +0.000 C 
ENDROOT
BRANCH   1   2
ATOM      2  C   UNL     1      45.487   4.757  12.489  0.00  0.00    +0.000 A 
ATOM      3  C   UNL     1      44.240   5.094  13.046  0.00  0.00    +0.000 A 
ATOM      4  C   UNL     1      43.089   5.143  12.259  0.00  0.00    +0.000 A 
ATOM      5  C   UNL     1      43.153   4.821  10.907  0.00  0.00    +0.000 A 
ATOM      6  C   UNL     1      44.365   4.425  10.334  0.00  0.00    +0.000 A 
ATOM      7  C   UNL     1      45.520   4.396  11.132  0.00  0.00    +0.000 A 
BRANCH   6   8
ATOM      8  C   UNL     1      44.447   4.068   8.870  0.00  0.00    +0.000 C 
BRANCH   8   9
ATOM      9  C   UNL     1      45.821   3.500   8.547  0.00  0.00    +0.000 C 
ATOM     10  C   UNL     1      46.283   3.524   7.083  0.00  0.00    +0.000 C 
ATOM     11  O   UNL     1      46.445   2.088   7.063  0.00  0.00    +0.000 OA
ATOM     12  C   UNL     1      45.873   1.976   8.385  0.00  0.00    +0.000 C 
ENDBRANCH   8   9
ENDBRANCH   6   8
ENDBRANCH   1   2
BRANCH   1  13
ATOM     13  C   UNL     1      46.376   4.459  14.815  0.00  0.00    +0.000 C 
BRANCH  13  18
ATOM     14  C   UNL     1      49.215   4.822  19.000  0.00  0.00    +0.000 A 
ATOM     15  C   UNL     1      47.856   5.081  18.847  0.00  0.00    +0.000 A 
ATOM     16  C   UNL     1      47.222   4.719  17.656  0.00  0.00    +0.000 A 
ATOM     17  C   UNL     1      47.960   4.125  16.639  0.00  0.00    +0.000 A 
ATOM     18  N   UNL     1      47.398   3.644  15.464  0.00  0.00    +0.000 N 
ATOM     19  N   UNL     1      49.285   3.907  16.758  0.00  0.00    +0.000 NA
ATOM     20  C   UNL     1      49.887   4.262  17.925  0.00  0.00    +0.000 A 
ATOM     21  H   UNL     1      48.203   3.393  14.893  0.00  0.00    +0.000 HD
BRANCH  14  23
ATOM     22  N   UNL     1      51.103   4.398  20.464  0.00  0.00    +0.000 N 
ATOM     23  C   UNL     1      49.951   5.104  20.244  0.00  0.00    +0.000 C 
ATOM     24  O   UNL     1      49.579   5.966  21.034  0.00  0.00    +0.000 OA
ATOM     25  H   UNL     1      51.663   4.680  21.259  0.00  0.00    +0.000 HD
ATOM     26  H   UNL     1      51.569   3.878  19.732  0.00  0.00    +0.000 HD
ENDBRANCH  14  23
ENDBRANCH  13  18
ENDBRANCH   1  13
BRANCH   1  27
ATOM     27  C   UNL     1      47.453   6.223  13.339  0.00  0.00    +0.000 C 
BRANCH  27  28
ATOM     28  O   UNL     1      48.716   6.214  14.004  0.00  0.00    +0.000 OA
ATOM     29  H   UNL     1      49.037   7.130  14.066  0.00  0.00    +0.000 HD
ENDBRANCH  27  28
ENDBRANCH   1  27
TORSDOF 8
ENDMDL
