MODEL 1
REMARK VINA RESULT:    -7.798      0.000      0.000
REMARK INTER + INTRA:         -10.003
REMARK INTER:                  -9.621
REMARK INTRA:                  -0.382
REMARK UNBOUND:                -0.382
REMARK  Name = 
REMARK  5 active torsions:
REMARK  status: ('A' for Active; 'I' for Inactive)
REMARK    1  A    between atoms: C_1  and  C_2
REMARK    2  A    between atoms: C_6  and  C_7
REMARK    3  A    between atoms: C_7  and  N_8
REMARK    4  A    between atoms: N_8  and  C_9
REMARK    5  A    between atoms: C_12  and  C_13
REMARK                            x       y       z     vdW  Elec       q    Type
REMARK                         _______ _______ _______ _____ _____    ______ ____
ROOT
ATOM      1  C   UNL     1      45.242   5.008  11.258  0.00  0.00    +0.000 A 
ATOM      2  C   UNL     1      45.059   3.882  12.048  0.00  0.00    +0.000 A 
ATOM      3  N   UNL     1      45.634   3.680  13.258  0.00  0.00    +0.000 NA
ATOM      4  C   UNL     1      46.461   4.669  13.671  0.00  0.00    +0.000 A 
ATOM      5  N   UNL     1      46.759   5.786  12.982  0.00  0.00    +0.000 NA
ATOM      6  C   UNL     1      46.146   5.914  11.788  0.00  0.00    +0.000 A 
ENDROOT
BRANCH   4   7
ATOM      7  C   UNL     1      47.126   4.487  15.016  0.00  0.00    +0.000 C 
ATOM      8  N   UNL     1      47.675   5.613  15.577  0.00  0.00    +0.000 N 
ATOM      9  O   UNL     1      47.189   3.412  15.607  0.00  0.00    +0.000 OA
ATOM     10  H   UNL     1      47.614   6.504  15.096  0.00  0.00    +0.000 HD
ATOM     11  H   UNL     1      48.113   5.545  16.483  0.00  0.00    +0.000 HD
ENDBRANCH   4   7
BRANCH   1  12
ATOM     12  N   UNL     1      44.634   5.111  10.003  0.00  0.00    +0.000 N 
ATOM     13  H   UNL     1      43.852   5.766  10.037  0.00  0.00    +0.000 HD
BRANCH  12  14
ATOM     14  C   UNL     1      44.212   3.858   9.369  0.00  0.00    +0.000 C 
BRANCH  14  20
ATOM     15  C   UNL     1      46.769  -0.134   7.683  0.00  0.00    +0.000 C 
ATOM     16  C   UNL     1      46.557   1.350   7.690  0.00  0.00    +0.000 A 
ATOM     17  C   UNL     1      47.343   2.197   6.904  0.00  0.00    +0.000 A 
ATOM     18  C   UNL     1      47.135   3.577   6.929  0.00  0.00    +0.000 A 
ATOM     19  C   UNL     1      46.138   4.124   7.739  0.00  0.00    +0.000 A 
ATOM     20  C   UNL     1      45.337   3.295   8.534  0.00  0.00    +0.000 A 
ATOM     21  C   UNL     1      45.553   1.907   8.494  0.00  0.00    +0.000 A 
ENDBRANCH  14  20
ENDBRANCH  12  14
ENDBRANCH   1  12
TORSDOF 4
ENDMDL
MODEL 2
REMARK VINA RESULT:    -7.583      3.184      6.181
REMARK INTER + INTRA:          -9.738
REMARK INTER:                  -9.401
REMARK INTRA:                  -0.338
REMARK UNBOUND:                -0.382
REMARK  Name = 
REMARK  5 active torsions:
REMARK  status: ('A' for Active; 'I' for Inactive)
REMARK    1  A    between atoms: C_1  and  C_2
REMARK    2  A    between atoms: C_6  and  C_7
REMARK    3  A    between atoms: C_7  and  N_8
REMARK    4  A    between atoms: N_8  and  C_9
REMARK    5  A    between atoms: C_12  and  C_13
REMARK                            x       y       z     vdW  Elec       q    Type
REMARK                         _______ _______ _______ _____ _____    ______ ____
ROOT
ATOM      1  C   UNL     1      44.602   3.921   9.228  0.00  0.00    +0.000 A 
ATOM      2  C   UNL     1      45.541   4.396   8.323  0.00  0.00    +0.000 A 
ATOM      3  N   UNL     1      46.404   3.621   7.622  0.00  0.00    +0.000 NA
ATOM      4  C   UNL     1      46.321   2.295   7.879  0.00  0.00    +0.000 A 
ATOM      5  N   UNL     1      45.490   1.714   8.764  0.00  0.00    +0.000 NA
ATOM      6  C   UNL     1      44.662   2.551   9.420  0.00  0.00    +0.000 A 
ENDROOT
BRANCH   4   7
ATOM      7  C   UNL     1      47.266   1.391   7.120  0.00  0.00    +0.000 C 
ATOM      8  N   UNL     1      48.375   1.993   6.580  0.00  0.00    +0.000 N 
ATOM      9  O   UNL     1      47.089   0.184   6.975  0.00  0.00    +0.000 OA
ATOM     10  H   UNL     1      48.529   2.987   6.709  0.00  0.00    +0.000 HD
ATOM     11  H   UNL     1      49.045   1.428   6.081  0.00  0.00    +0.000 HD
ENDBRANCH   4   7
BRANCH   1  12
ATOM     12  N   UNL     1      43.777   4.804   9.934  0.00  0.00    +0.000 N 
ATOM     13  H   UNL     1      44.023   5.771   9.722  0.00  0.00    +0.000 HD
BRANCH  12  14
ATOM     14  C   UNL     1      43.693   4.612  11.385  0.00  0.00    +0.000 C 
BRANCH  14  20
ATOM     15  C   UNL     1      47.107   4.378  15.073  0.00  0.00    +0.000 C 
ATOM     16  C   UNL     1      46.600   5.041  13.828  0.00  0.00    +0.000 A 
ATOM     17  C   UNL     1      47.273   6.128  13.262  0.00  0.00    +0.000 A 
ATOM     18  C   UNL     1      46.782   6.737  12.106  0.00  0.00    +0.000 A 
ATOM     19  C   UNL     1      45.613   6.266  11.505  0.00  0.00    +0.000 A 
ATOM     20  C   UNL     1      44.923   5.179  12.054  0.00  0.00    +0.000 A 
ATOM     21  C   UNL     1      45.433   4.570  13.213  0.00  0.00    +0.000 A 
ENDBRANCH  14  20
ENDBRANCH  12  14
ENDBRANCH   1  12
TORSDOF 4
ENDMDL
MODEL 3
REMARK VINA RESULT:    -7.562      3.242      6.324
REMARK INTER + INTRA:          -9.712
REMARK INTER:                  -9.300
REMARK INTRA:                  -0.413
REMARK UNBOUND:                -0.382
REMARK  Name = 
REMARK  5 active torsions:
REMARK  status: ('A' for Active; 'I' for Inactive)
REMARK    1  A    between atoms: C_1  and  C_2
REMARK    2  A    between atoms: C_6  and  C_7
REMARK    3  A    between atoms: C_7  and  N_8
REMARK    4  A    between atoms: N_8  and  C_9
REMARK    5  A    between atoms: C_12  and  C_13
REMARK                            x       y       z     vdW  Elec       q    Type
REMARK                         _______ _______ _______ _____ _____    ______ ____
ROOT
ATOM      1  C   UNL     1      44.644   3.998   9.168  0.00  0.00    +0.000 A 
ATOM      2  C   UNL     1      45.553   4.583   8.298  0.00  0.00    +0.000 A 
ATOM      3  N   UNL     1      46.451   3.904   7.543  0.00  0.00    +0.000 NA
ATOM      4  C   UNL     1      46.438   2.561   7.707  0.00  0.00    +0.000 A 
ATOM      5  N   UNL     1      45.643   1.878   8.550  0.00  0.00    +0.000 NA
ATOM      6  C   UNL     1      44.776   2.623   9.264  0.00  0.00    +0.000 A 
ENDROOT
BRANCH   4   7
ATOM      7  C   UNL     1      47.424   1.762   6.885  0.00  0.00    +0.000 C 
ATOM      8  N   UNL     1      48.516   2.449   6.415  0.00  0.00    +0.000 N 
ATOM      9  O   UNL     1      47.294   0.567   6.633  0.00  0.00    +0.000 OA
ATOM     10  H   UNL     1      48.631   3.433   6.632  0.00  0.00    +0.000 HD
ATOM     11  H   UNL     1      49.212   1.955   5.878  0.00  0.00    +0.000 HD
ENDBRANCH   4   7
BRANCH   1  12
ATOM     12  N   UNL     1      43.778   4.785   9.935  0.00  0.00    +0.000 N 
ATOM     13  H   UNL     1      43.967   5.776   9.783  0.00  0.00    +0.000 HD
BRANCH  12  14
ATOM     14  C   UNL     1      43.723   4.498  11.372  0.00  0.00    +0.000 C 
BRANCH  14  20
ATOM     15  C   UNL     1      47.232   8.014  12.170  0.00  0.00    +0.000 C 
ATOM     16  C   UNL     1      46.699   6.641  12.447  0.00  0.00    +0.000 A 
ATOM     17  C   UNL     1      47.346   5.779  13.338  0.00  0.00    +0.000 A 
ATOM     18  C   UNL     1      46.839   4.502  13.578  0.00  0.00    +0.000 A 
ATOM     19  C   UNL     1      45.679   4.072  12.930  0.00  0.00    +0.000 A 
ATOM     20  C   UNL     1      45.013   4.918  12.035  0.00  0.00    +0.000 A 
ATOM     21  C   UNL     1      45.531   6.204  11.808  0.00  0.00    +0.000 A 
ENDBRANCH  14  20
ENDBRANCH  12  14
ENDBRANCH   1  12
TORSDOF 4
ENDMDL
MODEL 4
REMARK VINA RESULT:    -7.015      1.268      2.130
REMARK INTER + INTRA:          -9.037
REMARK INTER:                  -8.710
REMARK INTRA:                  -0.328
REMARK UNBOUND:                -0.382
REMARK  Name = 
REMARK  5 active torsions:
REMARK  status: ('A' for Active; 'I' for Inactive)
REMARK    1  A    between atoms: C_1  and  C_2
REMARK    2  A    between atoms: C_6  and  C_7
REMARK    3  A    between atoms: C_7  and  N_8
REMARK    4  A    between atoms: N_8  and  C_9
REMARK    5  A    between atoms: C_12  and  C_13
REMARK                            x       y       z     vdW  Elec       q    Type
REMARK                         _______ _______ _______ _____ _____    ______ ____
ROOT
ATOM      1  C   UNL     1      46.226   5.571  12.328  0.00  0.00    +0.000 A 
ATOM      2  C   UNL     1      45.533   4.646  13.096  0.00  0.00    +0.000 A 
ATOM      3  N   UNL     1      45.931   4.192  14.309  0.00  0.00    +0.000 NA
ATOM      4  C   UNL     1      47.112   4.688  14.748  0.00  0.00    +0.000 A 
ATOM      5  N   UNL     1      47.900   5.550  14.081  0.00  0.00    +0.000 NA
ATOM      6  C   UNL     1      47.435   5.956  12.883  0.00  0.00    +0.000 A 
ENDROOT
BRANCH   4   7
ATOM      7  C   UNL     1      47.596   4.207  16.097  0.00  0.00    +0.000 C 
ATOM      8  N   UNL     1      47.127   4.895  17.188  0.00  0.00    +0.000 N 
ATOM      9  O   UNL     1      48.361   3.258  16.250  0.00  0.00    +0.000 OA
ATOM     10  H   UNL     1      46.486   5.671  17.064  0.00  0.00    +0.000 HD
ATOM     11  H   UNL     1      47.407   4.599  18.111  0.00  0.00    +0.000 HD
ENDBRANCH   4   7
BRANCH   1  12
ATOM     12  N   UNL     1      45.754   5.954  11.068  0.00  0.00    +0.000 N 
ATOM     13  H   UNL     1      45.660   6.969  11.015  0.00  0.00    +0.000 HD
BRANCH  12  14
ATOM     14  C   UNL     1      44.522   5.310  10.601  0.00  0.00    +0.000 C 
BRANCH  14  20
ATOM     15  C   UNL     1      46.817   3.598   6.464  0.00  0.00    +0.000 C 
ATOM     16  C   UNL     1      46.000   3.323   7.691  0.00  0.00    +0.000 A 
ATOM     17  C   UNL     1      45.596   2.025   8.015  0.00  0.00    +0.000 A 
ATOM     18  C   UNL     1      44.830   1.789   9.157  0.00  0.00    +0.000 A 
ATOM     19  C   UNL     1      44.461   2.850   9.988  0.00  0.00    +0.000 A 
ATOM     20  C   UNL     1      44.855   4.158   9.683  0.00  0.00    +0.000 A 
ATOM     21  C   UNL     1      45.633   4.380   8.534  0.00  0.00    +0.000 A 
ENDBRANCH  14  20
ENDBRANCH  12  14
ENDBRANCH   1  12
TORSDOF 4
ENDMDL
MODEL 5
REMARK VINA RESULT:    -6.766      1.315      2.482
REMARK INTER + INTRA:          -8.730
REMARK INTER:                  -8.465
REMARK INTRA:                  -0.264
REMARK UNBOUND:                -0.382
REMARK  Name = 
REMARK  5 active torsions:
REMARK  status: ('A' for Active; 'I' for Inactive)
REMARK    1  A    between atoms: C_1  and  C_2
REMARK    2  A    between atoms: C_6  and  C_7
REMARK    3  A    between atoms: C_7  and  N_8
REMARK    4  A    between atoms: N_8  and  C_9
REMARK    5  A    between atoms: C_12  and  C_13
REMARK                            x       y       z     vdW  Elec       q    Type
REMARK                         _______ _______ _______ _____ _____    ______ ____
ROOT
ATOM      1  C   UNL     1      46.341   5.389  12.351  0.00  0.00    +0.000 A 
ATOM      2  C   UNL     1      47.203   6.155  13.124  0.00  0.00    +0.000 A 
ATOM      3  N   UNL     1      47.670   5.802  14.346  0.00  0.00    +0.000 NA
ATOM      4  C   UNL     1      47.212   4.617  14.814  0.00  0.00    +0.000 A 
ATOM      5  N   UNL     1      46.342   3.806  14.187  0.00  0.00    +0.000 NA
ATOM      6  C   UNL     1      45.924   4.225  12.976  0.00  0.00    +0.000 A 
ENDROOT
BRANCH   4   7
ATOM      7  C   UNL     1      47.707   4.183  16.175  0.00  0.00    +0.000 C 
ATOM      8  N   UNL     1      46.790   3.556  16.980  0.00  0.00    +0.000 N 
ATOM      9  O   UNL     1      48.856   4.360  16.573  0.00  0.00    +0.000 OA
ATOM     10  H   UNL     1      45.844   3.399  16.649  0.00  0.00    +0.000 HD
ATOM     11  H   UNL     1      47.078   3.231  17.891  0.00  0.00    +0.000 HD
ENDBRANCH   4   7
BRANCH   1  12
ATOM     12  N   UNL     1      45.883   5.854  11.114  0.00  0.00    +0.000 N 
ATOM     13  H   UNL     1      45.848   6.873  11.106  0.00  0.00    +0.000 HD
BRANCH  12  14
ATOM     14  C   UNL     1      44.612   5.303  10.631  0.00  0.00    +0.000 C 
BRANCH  14  20
ATOM     15  C   UNL     1      46.823   3.516   6.479  0.00  0.00    +0.000 C 
ATOM     16  C   UNL     1      45.974   3.276   7.692  0.00  0.00    +0.000 A 
ATOM     17  C   UNL     1      45.473   2.004   7.983  0.00  0.00    +0.000 A 
ATOM     18  C   UNL     1      44.680   1.801   9.113  0.00  0.00    +0.000 A 
ATOM     19  C   UNL     1      44.379   2.867   9.963  0.00  0.00    +0.000 A 
ATOM     20  C   UNL     1      44.871   4.149   9.691  0.00  0.00    +0.000 A 
ATOM     21  C   UNL     1      45.675   4.338   8.555  0.00  0.00    +0.000 A 
ENDBRANCH  14  20
ENDBRANCH  12  14
ENDBRANCH   1  12
TORSDOF 4
ENDMDL
MODEL 6
REMARK VINA RESULT:    -6.539      3.390      6.848
REMARK INTER + INTRA:          -8.449
REMARK INTER:                  -8.078
REMARK INTRA:                  -0.371
REMARK UNBOUND:                -0.382
REMARK  Name = 
REMARK  5 active torsions:
REMARK  status: ('A' for Active; 'I' for Inactive)
REMARK    1  A    between atoms: C_1  and  C_2
REMARK    2  A    between atoms: C_6  and  C_7
REMARK    3  A    between atoms: C_7  and  N_8
REMARK    4  A    between atoms: N_8  and  C_9
REMARK    5  A    between atoms: C_12  and  C_13
REMARK                            x       y       z     vdW  Elec       q    Type
REMARK                         _______ _______ _______ _____ _____    ______ ____
ROOT
ATOM      1  C   UNL     1      44.874   3.967   9.625  0.00  0.00    +0.000 A 
ATOM      2  C   UNL     1      45.613   4.707   8.712  0.00  0.00    +0.000 A 
ATOM      3  N   UNL     1      46.340   4.182   7.696  0.00  0.00    +0.000 NA
ATOM      4  C   UNL     1      46.333   2.831   7.624  0.00  0.00    +0.000 A 
ATOM      5  N   UNL     1      45.699   2.001   8.472  0.00  0.00    +0.000 NA
ATOM      6  C   UNL     1      44.997   2.598   9.455  0.00  0.00    +0.000 A 
ENDROOT
BRANCH   4   7
ATOM      7  C   UNL     1      47.132   2.201   6.505  0.00  0.00    +0.000 C 
ATOM      8  N   UNL     1      47.335   2.981   5.394  0.00  0.00    +0.000 N 
ATOM      9  O   UNL     1      47.593   1.063   6.551  0.00  0.00    +0.000 OA
ATOM     10  H   UNL     1      46.965   3.925   5.359  0.00  0.00    +0.000 HD
ATOM     11  H   UNL     1      47.878   2.611   4.629  0.00  0.00    +0.000 HD
ENDBRANCH   4   7
BRANCH   1  12
ATOM     12  N   UNL     1      44.183   4.597  10.665  0.00  0.00    +0.000 N 
ATOM     13  H   UNL     1      43.736   5.451  10.332  0.00  0.00    +0.000 HD
BRANCH  12  14
ATOM     14  C   UNL     1      44.940   4.870  11.890  0.00  0.00    +0.000 C 
BRANCH  14  20
ATOM     15  C   UNL     1      43.719   9.594  10.661  0.00  0.00    +0.000 C 
ATOM     16  C   UNL     1      44.575   8.649  11.450  0.00  0.00    +0.000 A 
ATOM     17  C   UNL     1      45.551   9.121  12.332  0.00  0.00    +0.000 A 
ATOM     18  C   UNL     1      46.342   8.226  13.053  0.00  0.00    +0.000 A 
ATOM     19  C   UNL     1      46.165   6.849  12.900  0.00  0.00    +0.000 A 
ATOM     20  C   UNL     1      45.193   6.354  12.023  0.00  0.00    +0.000 A 
ATOM     21  C   UNL     1      44.398   7.266  11.309  0.00  0.00    +0.000 A 
ENDBRANCH  14  20
ENDBRANCH  12  14
ENDBRANCH   1  12
TORSDOF 4
ENDMDL
MODEL 7
REMARK VINA RESULT:    -6.323      1.829      2.676
REMARK INTER + INTRA:          -8.184
REMARK INTER:                  -7.770
REMARK INTRA:                  -0.414
REMARK UNBOUND:                -0.382
REMARK  Name = 
REMARK  5 active torsions:
REMARK  status: ('A' for Active; 'I' for Inactive)
REMARK    1  A    between atoms: C_1  and  C_2
REMARK    2  A    between atoms: C_6  and  C_7
REMARK    3  A    between atoms: C_7  and  N_8
REMARK    4  A    between atoms: N_8  and  C_9
REMARK    5  A    between atoms: C_12  and  C_13
REMARK                            x       y       z     vdW  Elec       q    Type
REMARK                         _______ _______ _______ _____ _____    ______ ____
ROOT
ATOM      1  C   UNL     1      45.541   5.161  11.917  0.00  0.00    +0.000 A 
ATOM      2  C   UNL     1      46.094   6.317  11.382  0.00  0.00    +0.000 A 
ATOM      3  N   UNL     1      47.200   6.939  11.857  0.00  0.00    +0.000 NA
ATOM      4  C   UNL     1      47.754   6.366  12.952  0.00  0.00    +0.000 A 
ATOM      5  N   UNL     1      47.290   5.278  13.591  0.00  0.00    +0.000 NA
ATOM      6  C   UNL     1      46.188   4.715  13.057  0.00  0.00    +0.000 A 
ENDROOT
BRANCH   4   7
ATOM      7  C   UNL     1      48.991   7.028  13.517  0.00  0.00    +0.000 C 
ATOM      8  N   UNL     1      49.525   8.049  12.771  0.00  0.00    +0.000 N 
ATOM      9  O   UNL     1      49.514   6.702  14.579  0.00  0.00    +0.000 OA
ATOM     10  H   UNL     1      49.087   8.327  11.900  0.00  0.00    +0.000 HD
ATOM     11  H   UNL     1      50.339   8.534  13.117  0.00  0.00    +0.000 HD
ENDBRANCH   4   7
BRANCH   1  12
ATOM     12  N   UNL     1      44.373   4.611  11.379  0.00  0.00    +0.000 N 
ATOM     13  H   UNL     1      44.317   3.614  11.592  0.00  0.00    +0.000 HD
BRANCH  12  14
ATOM     14  C   UNL     1      44.134   4.834   9.950  0.00  0.00    +0.000 C 
BRANCH  14  20
ATOM     15  C   UNL     1      47.058   3.477   6.087  0.00  0.00    +0.000 C 
ATOM     16  C   UNL     1      46.238   3.088   7.280  0.00  0.00    +0.000 A 
ATOM     17  C   UNL     1      46.118   1.752   7.671  0.00  0.00    +0.000 A 
ATOM     18  C   UNL     1      45.345   1.408   8.780  0.00  0.00    +0.000 A 
ATOM     19  C   UNL     1      44.683   2.397   9.511  0.00  0.00    +0.000 A 
ATOM     20  C   UNL     1      44.789   3.742   9.138  0.00  0.00    +0.000 A 
ATOM     21  C   UNL     1      45.577   4.075   8.023  0.00  0.00    +0.000 A 
ENDBRANCH  14  20
ENDBRANCH  12  14
ENDBRANCH   1  12
TORSDOF 4
ENDMDL
MODEL 8
REMARK VINA RESULT:    -6.130      1.500      2.082
REMARK INTER + INTRA:          -7.946
REMARK INTER:                  -7.609
REMARK INTRA:                  -0.337
REMARK UNBOUND:                -0.382
REMARK  Name = 
REMARK  5 active torsions:
REMARK  status: ('A' for Active; 'I' for Inactive)
REMARK    1  A    between atoms: C_1  and  C_2
REMARK    2  A    between atoms: C_6  and  C_7
REMARK    3  A    between atoms: C_7  and  N_8
REMARK    4  A    between atoms: N_8  and  C_9
REMARK    5  A    between atoms: C_12  and  C_13
REMARK                            x       y       z     vdW  Elec       q    Type
REMARK                         _______ _______ _______ _____ _____    ______ ____
ROOT
ATOM      1  C   UNL     1      46.638   5.819  12.789  0.00  0.00    +0.000 A 
ATOM      2  C   UNL     1      46.007   4.730  13.374  0.00  0.00    +0.000 A 
ATOM      3  N   UNL     1      46.337   4.194  14.573  0.00  0.00    +0.000 NA
ATOM      4  C   UNL     1      47.385   4.784  15.195  0.00  0.00    +0.000 A 
ATOM      5  N   UNL     1      48.109   5.811  14.716  0.00  0.00    +0.000 NA
ATOM      6  C   UNL     1      47.717   6.289  13.518  0.00  0.00    +0.000 A 
ENDROOT
BRANCH   4   7
ATOM      7  C   UNL     1      47.790   4.218  16.538  0.00  0.00    +0.000 C 
ATOM      8  N   UNL     1      47.113   4.704  17.628  0.00  0.00    +0.000 N 
ATOM      9  O   UNL     1      48.665   3.369  16.685  0.00  0.00    +0.000 OA
ATOM     10  H   UNL     1      46.381   5.397  17.507  0.00  0.00    +0.000 HD
ATOM     11  H   UNL     1      47.334   4.342  18.543  0.00  0.00    +0.000 HD
ENDBRANCH   4   7
BRANCH   1  12
ATOM     12  N   UNL     1      46.250   6.280  11.526  0.00  0.00    +0.000 N 
ATOM     13  H   UNL     1      46.205   7.299  11.516  0.00  0.00    +0.000 HD
BRANCH  12  14
ATOM     14  C   UNL     1      45.016   5.717  10.968  0.00  0.00    +0.000 C 
BRANCH  14  20
ATOM     15  C   UNL     1      44.534   1.190   8.827  0.00  0.00    +0.000 C 
ATOM     16  C   UNL     1      45.078   2.586   8.778  0.00  0.00    +0.000 A 
ATOM     17  C   UNL     1      45.827   3.033   7.687  0.00  0.00    +0.000 A 
ATOM     18  C   UNL     1      46.331   4.334   7.662  0.00  0.00    +0.000 A 
ATOM     19  C   UNL     1      46.091   5.202   8.729  0.00  0.00    +0.000 A 
ATOM     20  C   UNL     1      45.342   4.776   9.833  0.00  0.00    +0.000 A 
ATOM     21  C   UNL     1      44.834   3.466   9.841  0.00  0.00    +0.000 A 
ENDBRANCH  14  20
ENDBRANCH  12  14
ENDBRANCH   1  12
TORSDOF 4
ENDMDL
MODEL 9
REMARK VINA RESULT:    -5.915      3.197      7.454
REMARK INTER + INTRA:          -7.680
REMARK INTER:                  -7.382
REMARK INTRA:                  -0.298
REMARK UNBOUND:                -0.382
REMARK  Name = 
REMARK  5 active torsions:
REMARK  status: ('A' for Active; 'I' for Inactive)
REMARK    1  A    between atoms: C_1  and  C_2
REMARK    2  A    between atoms: C_6  and  C_7
REMARK    3  A    between atoms: C_7  and  N_8
REMARK    4  A    between atoms: N_8  and  C_9
REMARK    5  A    between atoms: C_12  and  C_13
REMARK                            x       y       z     vdW  Elec       q    Type
REMARK                         _______ _______ _______ _____ _____    ______ ____
ROOT
ATOM      1  C   UNL     1      46.590   4.859  14.013  0.00  0.00    +0.000 A 
ATOM      2  C   UNL     1      46.367   3.540  13.644  0.00  0.00    +0.000 A 
ATOM      3  N   UNL     1      45.600   3.146  12.599  0.00  0.00    +0.000 NA
ATOM      4  C   UNL     1      45.008   4.151  11.912  0.00  0.00    +0.000 A 
ATOM      5  N   UNL     1      45.105   5.463  12.195  0.00  0.00    +0.000 NA
ATOM      6  C   UNL     1      45.887   5.774  13.248  0.00  0.00    +0.000 A 
ENDROOT
BRANCH   4   7
ATOM      7  C   UNL     1      44.142   3.758  10.737  0.00  0.00    +0.000 C 
ATOM      8  N   UNL     1      43.760   4.776   9.900  0.00  0.00    +0.000 N 
ATOM      9  O   UNL     1      43.782   2.605  10.508  0.00  0.00    +0.000 OA
ATOM     10  H   UNL     1      44.065   5.726  10.080  0.00  0.00    +0.000 HD
ATOM     11  H   UNL     1      43.197   4.560   9.091  0.00  0.00    +0.000 HD
ENDBRANCH   4   7
BRANCH   1  12
ATOM     12  N   UNL     1      47.370   5.168  15.133  0.00  0.00    +0.000 N 
ATOM     13  H   UNL     1      48.335   5.353  14.856  0.00  0.00    +0.000 HD
BRANCH  12  14
ATOM     14  C   UNL     1      47.340   4.211  16.243  0.00  0.00    +0.000 C 
BRANCH  14  20
ATOM     15  C   UNL     1      51.229   1.258  17.458  0.00  0.00    +0.000 C 
ATOM     16  C   UNL     1      50.623   2.628  17.393  0.00  0.00    +0.000 A 
ATOM     17  C   UNL     1      51.333   3.754  17.820  0.00  0.00    +0.000 A 
ATOM     18  C   UNL     1      50.750   5.020  17.759  0.00  0.00    +0.000 A 
ATOM     19  C   UNL     1      49.451   5.174  17.269  0.00  0.00    +0.000 A 
ATOM     20  C   UNL     1      48.722   4.060  16.835  0.00  0.00    +0.000 A 
ATOM     21  C   UNL     1      49.323   2.792  16.896  0.00  0.00    +0.000 A 
ENDBRANCH  14  20
ENDBRANCH  12  14
ENDBRANCH   1  12
TORSDOF 4
ENDMDL
