MODEL 1
REMARK VINA RESULT:    -7.548      0.000      0.000
REMARK INTER + INTRA:          -9.824
REMARK INTER:                  -9.313
REMARK INTRA:                  -0.510
REMARK UNBOUND:                -0.510
REMARK  Name = 
REMARK  4 active torsions:
REMARK  status: ('A' for Active; 'I' for Inactive)
REMARK    1  A    between atoms: C_5  and  N_6
REMARK    2  A    between atoms: N_6  and  C_7
REMARK    3  A    between atoms: C_7  and  C_8
REMARK    4  A    between atoms: C_12  and  C_13
REMARK                            x       y       z     vdW  Elec       q    Type
REMARK                         _______ _______ _______ _____ _____    ______ ____
ROOT
ATOM      1  C   UNL     1      44.941   4.097  11.281  0.00  0.00    +0.000 A 
ATOM      2  C   UNL     1      45.355   3.463  12.454  0.00  0.00    +0.000 A 
ATOM      3  C   UNL     1      46.181   4.157  13.321  0.00  0.00    +0.000 A 
ATOM      4  N   UNL     1      46.615   5.418  13.106  0.00  0.00    +0.000 NA
ATOM      5  C   UNL     1      46.205   6.039  11.974  0.00  0.00    +0.000 A 
ATOM      6  C   UNL     1      45.361   5.414  11.054  0.00  0.00    +0.000 A 
ENDROOT
BRANCH   5   7
ATOM      7  C   UNL     1      46.741   7.438  11.747  0.00  0.00    +0.000 C 
ATOM      8  C   UNL     1      48.264   7.523  11.913  0.00  0.00    +0.000 C 
ATOM      9  C   UNL     1      48.736   8.963  11.779  0.00  0.00    +0.000 C 
ATOM     10  O   UNL     1      48.052   9.805  12.707  0.00  0.00    +0.000 OA
ATOM     11  C   UNL     1      46.647   9.846  12.459  0.00  0.00    +0.000 C 
ATOM     12  C   UNL     1      46.033   8.466  12.642  0.00  0.00    +0.000 C 
ENDBRANCH   5   7
BRANCH   1  13
ATOM     13  C   UNL     1      44.050   3.393  10.284  0.00  0.00    +0.000 C 
BRANCH  13  14
ATOM     14  N   UNL     1      44.666   2.130   9.903  0.00  0.00    +0.000 N 
ATOM     15  H   UNL     1      45.218   1.733  10.659  0.00  0.00    +0.000 HD
BRANCH  14  20
ATOM     16 CL   UNL     1      47.835   2.631   5.048  0.00  0.00    +0.000 Cl
ATOM     17  C   UNL     1      46.901   2.446   6.470  0.00  0.00    +0.000 A 
ATOM     18  C   UNL     1      46.973   1.306   7.250  0.00  0.00    +0.000 A 
ATOM     19  N   UNL     1      46.241   1.148   8.388  0.00  0.00    +0.000 NA
ATOM     20  C   UNL     1      45.426   2.173   8.724  0.00  0.00    +0.000 A 
ATOM     21  C   UNL     1      45.382   3.319   7.918  0.00  0.00    +0.000 A 
ATOM     22  N   UNL     1      46.102   3.483   6.777  0.00  0.00    +0.000 NA
ENDBRANCH  14  20
ENDBRANCH  13  14
ENDBRANCH   1  13
TORSDOF 4
ENDMDL
MODEL 2
REMARK VINA RESULT:    -7.487      3.398      6.470
REMARK INTER + INTRA:          -9.748
REMARK INTER:                  -9.050
REMARK INTRA:                  -0.698
REMARK UNBOUND:                -0.510
REMARK  Name = 
REMARK  4 active torsions:
REMARK  status: ('A' for Active; 'I' for Inactive)
REMARK    1  A    between atoms: C_5  and  N_6
REMARK    2  A    between atoms: N_6  and  C_7
REMARK    3  A    between atoms: C_7  and  C_8
REMARK    4  A    between atoms: C_12  and  C_13
REMARK                            x       y       z     vdW  Elec       q    Type
REMARK                         _______ _______ _______ _____ _____    ______ ____
ROOT
ATOM      1  C   UNL     1      43.612   4.845  10.999  0.00  0.00    +0.000 A 
ATOM      2  C   UNL     1      43.120   3.791  11.769  0.00  0.00    +0.000 A 
ATOM      3  C   UNL     1      43.368   2.495  11.350  0.00  0.00    +0.000 A 
ATOM      4  N   UNL     1      44.064   2.182  10.235  0.00  0.00    +0.000 NA
ATOM      5  C   UNL     1      44.553   3.204   9.492  0.00  0.00    +0.000 A 
ATOM      6  C   UNL     1      44.357   4.538   9.853  0.00  0.00    +0.000 A 
ENDROOT
BRANCH   5   7
ATOM      7  C   UNL     1      45.297   2.816   8.229  0.00  0.00    +0.000 C 
ATOM      8  C   UNL     1      46.114   1.528   8.396  0.00  0.00    +0.000 C 
ATOM      9  C   UNL     1      46.921   1.242   7.138  0.00  0.00    +0.000 C 
ATOM     10  O   UNL     1      47.747   2.357   6.805  0.00  0.00    +0.000 OA
ATOM     11  C   UNL     1      46.980   3.521   6.502  0.00  0.00    +0.000 C 
ATOM     12  C   UNL     1      46.180   3.964   7.718  0.00  0.00    +0.000 C 
ENDBRANCH   5   7
BRANCH   1  13
ATOM     13  C   UNL     1      43.364   6.283  11.391  0.00  0.00    +0.000 C 
BRANCH  13  14
ATOM     14  N   UNL     1      43.888   6.509  12.730  0.00  0.00    +0.000 N 
ATOM     15  H   UNL     1      43.442   7.301  13.184  0.00  0.00    +0.000 HD
BRANCH  14  20
ATOM     16 CL   UNL     1      49.637   7.346  13.072  0.00  0.00    +0.000 Cl
ATOM     17  C   UNL     1      47.953   7.063  12.968  0.00  0.00    +0.000 A 
ATOM     18  C   UNL     1      47.374   5.906  13.457  0.00  0.00    +0.000 A 
ATOM     19  N   UNL     1      46.033   5.670  13.388  0.00  0.00    +0.000 NA
ATOM     20  C   UNL     1      45.285   6.633  12.808  0.00  0.00    +0.000 A 
ATOM     21  C   UNL     1      45.899   7.798  12.330  0.00  0.00    +0.000 A 
ATOM     22  N   UNL     1      47.235   8.040  12.387  0.00  0.00    +0.000 NA
ENDBRANCH  14  20
ENDBRANCH  13  14
ENDBRANCH   1  13
TORSDOF 4
ENDMDL
MODEL 3
REMARK VINA RESULT:    -7.413      1.322      2.005
REMARK INTER + INTRA:          -9.657
REMARK INTER:                  -9.079
REMARK INTRA:                  -0.578
REMARK UNBOUND:                -0.510
REMARK  Name = 
REMARK  4 active torsions:
REMARK  status: ('A' for Active; 'I' for Inactive)
REMARK    1  A    between atoms: C_5  and  N_6
REMARK    2  A    between atoms: N_6  and  C_7
REMARK    3  A    between atoms: C_7  and  C_8
REMARK    4  A    between atoms: C_12  and  C_13
REMARK                            x       y       z     vdW  Elec       q    Type
REMARK                         _______ _______ _______ _____ _____    ______ ____
ROOT
ATOM      1  C   UNL     1      44.604   4.886  11.958  0.00  0.00    +0.000 A 
ATOM      2  C   UNL     1      45.262   3.978  12.788  0.00  0.00    +0.000 A 
ATOM      3  C   UNL     1      46.316   4.435  13.561  0.00  0.00    +0.000 A 
ATOM      4  N   UNL     1      46.750   5.713  13.565  0.00  0.00    +0.000 NA
ATOM      5  C   UNL     1      46.106   6.599  12.769  0.00  0.00    +0.000 A 
ATOM      6  C   UNL     1      45.026   6.222  11.968  0.00  0.00    +0.000 A 
ENDROOT
BRANCH   5   7
ATOM      7  C   UNL     1      46.645   8.016  12.771  0.00  0.00    +0.000 C 
ATOM      8  C   UNL     1      45.673   9.019  12.135  0.00  0.00    +0.000 C 
ATOM      9  C   UNL     1      46.304  10.403  12.068  0.00  0.00    +0.000 C 
ATOM     10  O   UNL     1      47.550  10.356  11.374  0.00  0.00    +0.000 OA
ATOM     11  C   UNL     1      48.507   9.539  12.048  0.00  0.00    +0.000 C 
ATOM     12  C   UNL     1      48.028   8.096  12.110  0.00  0.00    +0.000 C 
ENDBRANCH   5   7
BRANCH   1  13
ATOM     13  C   UNL     1      43.455   4.451  11.077  0.00  0.00    +0.000 C 
BRANCH  13  14
ATOM     14  N   UNL     1      43.764   4.783   9.693  0.00  0.00    +0.000 N 
ATOM     15  H   UNL     1      42.925   4.868   9.127  0.00  0.00    +0.000 HD
BRANCH  14  20
ATOM     16 CL   UNL     1      47.355   0.984   7.137  0.00  0.00    +0.000 Cl
ATOM     17  C   UNL     1      46.326   2.128   7.885  0.00  0.00    +0.000 A 
ATOM     18  C   UNL     1      46.352   3.469   7.546  0.00  0.00    +0.000 A 
ATOM     19  N   UNL     1      45.533   4.390   8.128  0.00  0.00    +0.000 NA
ATOM     20  C   UNL     1      44.682   3.924   9.069  0.00  0.00    +0.000 A 
ATOM     21  C   UNL     1      44.673   2.559   9.384  0.00  0.00    +0.000 A 
ATOM     22  N   UNL     1      45.490   1.635   8.816  0.00  0.00    +0.000 NA
ENDBRANCH  14  20
ENDBRANCH  13  14
ENDBRANCH   1  13
TORSDOF 4
ENDMDL
MODEL 4
REMARK VINA RESULT:    -7.322      2.637      3.876
REMARK INTER + INTRA:          -9.544
REMARK INTER:                  -9.055
REMARK INTRA:                  -0.490
REMARK UNBOUND:                -0.510
REMARK  Name = 
REMARK  4 active torsions:
REMARK  status: ('A' for Active; 'I' for Inactive)
REMARK    1  A    between atoms: C_5  and  N_6
REMARK    2  A    between atoms: N_6  and  C_7
REMARK    3  A    between atoms: C_7  and  C_8
REMARK    4  A    between atoms: C_12  and  C_13
REMARK                            x       y       z     vdW  Elec       q    Type
REMARK                         _______ _______ _______ _____ _____    ______ ____
ROOT
ATOM      1  C   UNL     1      44.985   5.285  11.986  0.00  0.00    +0.000 A 
ATOM      2  C   UNL     1      45.634   6.396  11.446  0.00  0.00    +0.000 A 
ATOM      3  C   UNL     1      46.710   6.931  12.135  0.00  0.00    +0.000 A 
ATOM      4  N   UNL     1      47.177   6.441  13.304  0.00  0.00    +0.000 NA
ATOM      5  C   UNL     1      46.555   5.356  13.824  0.00  0.00    +0.000 A 
ATOM      6  C   UNL     1      45.472   4.750  13.185  0.00  0.00    +0.000 A 
ENDROOT
BRANCH   5   7
ATOM      7  C   UNL     1      47.083   4.857  15.154  0.00  0.00    +0.000 C 
ATOM      8  C   UNL     1      48.241   5.710  15.689  0.00  0.00    +0.000 C 
ATOM      9  C   UNL     1      48.800   5.107  16.970  0.00  0.00    +0.000 C 
ATOM     10  O   UNL     1      49.191   3.751  16.759  0.00  0.00    +0.000 OA
ATOM     11  C   UNL     1      48.084   2.922  16.406  0.00  0.00    +0.000 C 
ATOM     12  C   UNL     1      47.479   3.375  15.086  0.00  0.00    +0.000 C 
ENDBRANCH   5   7
BRANCH   1  13
ATOM     13  C   UNL     1      43.796   4.661  11.294  0.00  0.00    +0.000 C 
BRANCH  13  14
ATOM     14  N   UNL     1      43.902   4.893   9.860  0.00  0.00    +0.000 N 
ATOM     15  H   UNL     1      42.991   4.917   9.410  0.00  0.00    +0.000 HD
BRANCH  14  20
ATOM     16 CL   UNL     1      47.204   1.006   7.058  0.00  0.00    +0.000 Cl
ATOM     17  C   UNL     1      46.261   2.174   7.879  0.00  0.00    +0.000 A 
ATOM     18  C   UNL     1      46.371   3.526   7.608  0.00  0.00    +0.000 A 
ATOM     19  N   UNL     1      45.621   4.467   8.248  0.00  0.00    +0.000 NA
ATOM     20  C   UNL     1      44.754   4.010   9.179  0.00  0.00    +0.000 A 
ATOM     21  C   UNL     1      44.660   2.634   9.426  0.00  0.00    +0.000 A 
ATOM     22  N   UNL     1      45.408   1.689   8.799  0.00  0.00    +0.000 NA
ENDBRANCH  14  20
ENDBRANCH  13  14
ENDBRANCH   1  13
TORSDOF 4
ENDMDL
MODEL 5
REMARK VINA RESULT:    -7.187      4.091      7.081
REMARK INTER + INTRA:          -9.378
REMARK INTER:                  -8.932
REMARK INTRA:                  -0.446
REMARK UNBOUND:                -0.510
REMARK  Name = 
REMARK  4 active torsions:
REMARK  status: ('A' for Active; 'I' for Inactive)
REMARK    1  A    between atoms: C_5  and  N_6
REMARK    2  A    between atoms: N_6  and  C_7
REMARK    3  A    between atoms: C_7  and  C_8
REMARK    4  A    between atoms: C_12  and  C_13
REMARK                            x       y       z     vdW  Elec       q    Type
REMARK                         _______ _______ _______ _____ _____    ______ ____
ROOT
ATOM      1  C   UNL     1      44.980   5.812  11.947  0.00  0.00    +0.000 A 
ATOM      2  C   UNL     1      43.693   5.540  12.416  0.00  0.00    +0.000 A 
ATOM      3  C   UNL     1      42.922   4.619  11.728  0.00  0.00    +0.000 A 
ATOM      4  N   UNL     1      43.338   3.959  10.625  0.00  0.00    +0.000 NA
ATOM      5  C   UNL     1      44.590   4.213  10.175  0.00  0.00    +0.000 A 
ATOM      6  C   UNL     1      45.435   5.118  10.819  0.00  0.00    +0.000 A 
ENDROOT
BRANCH   5   7
ATOM      7  C   UNL     1      45.009   3.483   8.915  0.00  0.00    +0.000 C 
ATOM      8  C   UNL     1      45.553   2.077   9.199  0.00  0.00    +0.000 C 
ATOM      9  C   UNL     1      46.055   1.430   7.916  0.00  0.00    +0.000 C 
ATOM     10  O   UNL     1      47.028   2.259   7.281  0.00  0.00    +0.000 OA
ATOM     11  C   UNL     1      46.482   3.515   6.879  0.00  0.00    +0.000 C 
ATOM     12  C   UNL     1      46.012   4.304   8.092  0.00  0.00    +0.000 C 
ENDBRANCH   5   7
BRANCH   1  13
ATOM     13  C   UNL     1      45.869   6.817  12.642  0.00  0.00    +0.000 C 
BRANCH  13  14
ATOM     14  N   UNL     1      47.193   6.239  12.819  0.00  0.00    +0.000 N 
ATOM     15  H   UNL     1      47.434   5.602  12.065  0.00  0.00    +0.000 HD
BRANCH  14  20
ATOM     16 CL   UNL     1      48.048   3.387  17.819  0.00  0.00    +0.000 Cl
ATOM     17  C   UNL     1      47.800   4.259  16.368  0.00  0.00    +0.000 A 
ATOM     18  C   UNL     1      48.411   5.477  16.132  0.00  0.00    +0.000 A 
ATOM     19  N   UNL     1      48.229   6.179  14.978  0.00  0.00    +0.000 NA
ATOM     20  C   UNL     1      47.409   5.620  14.061  0.00  0.00    +0.000 A 
ATOM     21  C   UNL     1      46.811   4.381  14.325  0.00  0.00    +0.000 A 
ATOM     22  N   UNL     1      46.979   3.677  15.475  0.00  0.00    +0.000 NA
ENDBRANCH  14  20
ENDBRANCH  13  14
ENDBRANCH   1  13
TORSDOF 4
ENDMDL
MODEL 6
REMARK VINA RESULT:    -6.427      3.495      6.640
REMARK INTER + INTRA:          -8.440
REMARK INTER:                  -7.779
REMARK INTRA:                  -0.661
REMARK UNBOUND:                -0.510
REMARK  Name = 
REMARK  4 active torsions:
REMARK  status: ('A' for Active; 'I' for Inactive)
REMARK    1  A    between atoms: C_5  and  N_6
REMARK    2  A    between atoms: N_6  and  C_7
REMARK    3  A    between atoms: C_7  and  C_8
REMARK    4  A    between atoms: C_12  and  C_13
REMARK                            x       y       z     vdW  Elec       q    Type
REMARK                         _______ _______ _______ _____ _____    ______ ____
ROOT
ATOM      1  C   UNL     1      45.053   5.475  12.350  0.00  0.00    +0.000 A 
ATOM      2  C   UNL     1      43.710   5.849  12.425  0.00  0.00    +0.000 A 
ATOM      3  C   UNL     1      42.860   5.464  11.404  0.00  0.00    +0.000 A 
ATOM      4  N   UNL     1      43.247   4.740  10.331  0.00  0.00    +0.000 NA
ATOM      5  C   UNL     1      44.547   4.366  10.261  0.00  0.00    +0.000 A 
ATOM      6  C   UNL     1      45.466   4.703  11.256  0.00  0.00    +0.000 A 
ENDROOT
BRANCH   5   7
ATOM      7  C   UNL     1      44.954   3.588   9.025  0.00  0.00    +0.000 C 
ATOM      8  C   UNL     1      45.448   2.173   9.354  0.00  0.00    +0.000 C 
ATOM      9  C   UNL     1      45.941   1.474   8.094  0.00  0.00    +0.000 C 
ATOM     10  O   UNL     1      46.947   2.253   7.448  0.00  0.00    +0.000 OA
ATOM     11  C   UNL     1      46.447   3.514   7.006  0.00  0.00    +0.000 C 
ATOM     12  C   UNL     1      45.992   4.352   8.192  0.00  0.00    +0.000 C 
ENDBRANCH   5   7
BRANCH   1  13
ATOM     13  C   UNL     1      46.038   5.875  13.423  0.00  0.00    +0.000 C 
BRANCH  13  14
ATOM     14  N   UNL     1      46.235   7.316  13.377  0.00  0.00    +0.000 N 
ATOM     15  H   UNL     1      45.454   7.792  12.934  0.00  0.00    +0.000 HD
BRANCH  14  20
ATOM     16 CL   UNL     1      51.310   8.727  10.902  0.00  0.00    +0.000 Cl
ATOM     17  C   UNL     1      49.811   8.349  11.638  0.00  0.00    +0.000 A 
ATOM     18  C   UNL     1      48.741   9.225  11.613  0.00  0.00    +0.000 A 
ATOM     19  N   UNL     1      47.541   8.934  12.188  0.00  0.00    +0.000 NA
ATOM     20  C   UNL     1      47.444   7.732  12.796  0.00  0.00    +0.000 A 
ATOM     21  C   UNL     1      48.543   6.862  12.798  0.00  0.00    +0.000 A 
ATOM     22  N   UNL     1      49.746   7.145  12.235  0.00  0.00    +0.000 NA
ENDBRANCH  14  20
ENDBRANCH  13  14
ENDBRANCH   1  13
TORSDOF 4
ENDMDL
MODEL 7
REMARK VINA RESULT:    -6.338      4.746      7.647
REMARK INTER + INTRA:          -8.330
REMARK INTER:                  -7.740
REMARK INTRA:                  -0.590
REMARK UNBOUND:                -0.510
REMARK  Name = 
REMARK  4 active torsions:
REMARK  status: ('A' for Active; 'I' for Inactive)
REMARK    1  A    between atoms: C_5  and  N_6
REMARK    2  A    between atoms: N_6  and  C_7
REMARK    3  A    between atoms: C_7  and  C_8
REMARK    4  A    between atoms: C_12  and  C_13
REMARK                            x       y       z     vdW  Elec       q    Type
REMARK                         _______ _______ _______ _____ _____    ______ ____
ROOT
ATOM      1  C   UNL     1      47.978   6.434  14.323  0.00  0.00    +0.000 A 
ATOM      2  C   UNL     1      48.415   7.441  13.460  0.00  0.00    +0.000 A 
ATOM      3  C   UNL     1      47.916   7.464  12.169  0.00  0.00    +0.000 A 
ATOM      4  N   UNL     1      47.026   6.570  11.687  0.00  0.00    +0.000 NA
ATOM      5  C   UNL     1      46.592   5.599  12.526  0.00  0.00    +0.000 A 
ATOM      6  C   UNL     1      47.036   5.513  13.846  0.00  0.00    +0.000 A 
ENDROOT
BRANCH   5   7
ATOM      7  C   UNL     1      45.622   4.593  11.940  0.00  0.00    +0.000 C 
ATOM      8  C   UNL     1      45.077   5.024  10.572  0.00  0.00    +0.000 C 
ATOM      9  C   UNL     1      44.032   4.033  10.078  0.00  0.00    +0.000 C 
ATOM     10  O   UNL     1      42.991   3.878  11.041  0.00  0.00    +0.000 OA
ATOM     11  C   UNL     1      43.473   3.333  12.269  0.00  0.00    +0.000 C 
ATOM     12  C   UNL     1      44.477   4.278  12.913  0.00  0.00    +0.000 C 
ENDBRANCH   5   7
BRANCH   1  13
ATOM     13  C   UNL     1      48.493   6.341  15.741  0.00  0.00    +0.000 C 
BRANCH  13  14
ATOM     14  N   UNL     1      47.945   5.149  16.370  0.00  0.00    +0.000 N 
ATOM     15  H   UNL     1      47.361   5.375  17.170  0.00  0.00    +0.000 HD
BRANCH  14  20
ATOM     16 CL   UNL     1      51.778   0.943  17.590  0.00  0.00    +0.000 Cl
ATOM     17  C   UNL     1      50.663   2.199  17.262  0.00  0.00    +0.000 A 
ATOM     18  C   UNL     1      50.932   3.518  17.578  0.00  0.00    +0.000 A 
ATOM     19  N   UNL     1      50.056   4.530  17.316  0.00  0.00    +0.000 NA
ATOM     20  C   UNL     1      48.893   4.177  16.726  0.00  0.00    +0.000 A 
ATOM     21  C   UNL     1      48.653   2.833  16.410  0.00  0.00    +0.000 A 
ATOM     22  N   UNL     1      49.516   1.817  16.674  0.00  0.00    +0.000 NA
ENDBRANCH  14  20
ENDBRANCH  13  14
ENDBRANCH   1  13
TORSDOF 4
ENDMDL
MODEL 8
REMARK VINA RESULT:    -6.289      4.742      7.814
REMARK INTER + INTRA:          -8.271
REMARK INTER:                  -7.791
REMARK INTRA:                  -0.479
REMARK UNBOUND:                -0.510
REMARK  Name = 
REMARK  4 active torsions:
REMARK  status: ('A' for Active; 'I' for Inactive)
REMARK    1  A    between atoms: C_5  and  N_6
REMARK    2  A    between atoms: N_6  and  C_7
REMARK    3  A    between atoms: C_7  and  C_8
REMARK    4  A    between atoms: C_12  and  C_13
REMARK                            x       y       z     vdW  Elec       q    Type
REMARK                         _______ _______ _______ _____ _____    ______ ____
ROOT
ATOM      1  C   UNL     1      46.403   6.343  13.000  0.00  0.00    +0.000 A 
ATOM      2  C   UNL     1      45.805   7.598  12.881  0.00  0.00    +0.000 A 
ATOM      3  C   UNL     1      44.919   7.810  11.838  0.00  0.00    +0.000 A 
ATOM      4  N   UNL     1      44.591   6.873  10.923  0.00  0.00    +0.000 NA
ATOM      5  C   UNL     1      45.162   5.650  11.043  0.00  0.00    +0.000 A 
ATOM      6  C   UNL     1      46.055   5.351  12.073  0.00  0.00    +0.000 A 
ENDROOT
BRANCH   5   7
ATOM      7  C   UNL     1      44.799   4.635   9.977  0.00  0.00    +0.000 C 
ATOM      8  C   UNL     1      44.806   3.194  10.506  0.00  0.00    +0.000 C 
ATOM      9  C   UNL     1      44.539   2.210   9.376  0.00  0.00    +0.000 C 
ATOM     10  O   UNL     1      45.479   2.393   8.317  0.00  0.00    +0.000 OA
ATOM     11  C   UNL     1      45.372   3.686   7.722  0.00  0.00    +0.000 C 
ATOM     12  C   UNL     1      45.698   4.770   8.740  0.00  0.00    +0.000 C 
ENDBRANCH   5   7
BRANCH   1  13
ATOM     13  C   UNL     1      47.390   6.048  14.105  0.00  0.00    +0.000 C 
BRANCH  13  14
ATOM     14  N   UNL     1      47.116   4.726  14.649  0.00  0.00    +0.000 N 
ATOM     15  H   UNL     1      46.140   4.464  14.538  0.00  0.00    +0.000 HD
BRANCH  14  20
ATOM     16 CL   UNL     1      48.816   4.269  20.196  0.00  0.00    +0.000 Cl
ATOM     17  C   UNL     1      48.313   4.365  18.563  0.00  0.00    +0.000 A 
ATOM     18  C   UNL     1      47.419   3.462  18.018  0.00  0.00    +0.000 A 
ATOM     19  N   UNL     1      47.003   3.531  16.722  0.00  0.00    +0.000 NA
ATOM     20  C   UNL     1      47.516   4.538  15.982  0.00  0.00    +0.000 A 
ATOM     21  C   UNL     1      48.414   5.443  16.565  0.00  0.00    +0.000 A 
ATOM     22  N   UNL     1      48.840   5.378  17.853  0.00  0.00    +0.000 NA
ENDBRANCH  14  20
ENDBRANCH  13  14
ENDBRANCH   1  13
TORSDOF 4
ENDMDL
MODEL 9
REMARK VINA RESULT:    -5.884      3.617      5.490
REMARK INTER + INTRA:          -7.770
REMARK INTER:                  -7.186
REMARK INTRA:                  -0.584
REMARK UNBOUND:                -0.510
REMARK  Name = 
REMARK  4 active torsions:
REMARK  status: ('A' for Active; 'I' for Inactive)
REMARK    1  A    between atoms: C_5  and  N_6
REMARK    2  A    between atoms: N_6  and  C_7
REMARK    3  A    between atoms: C_7  and  C_8
REMARK    4  A    between atoms: C_12  and  C_13
REMARK                            x       y       z     vdW  Elec       q    Type
REMARK                         _______ _______ _______ _____ _____    ______ ____
ROOT
ATOM      1  C   UNL     1      47.991   7.140  13.103  0.00  0.00    +0.000 A 
ATOM      2  C   UNL     1      49.197   7.841  13.098  0.00  0.00    +0.000 A 
ATOM      3  C   UNL     1      50.048   7.697  14.180  0.00  0.00    +0.000 A 
ATOM      4  N   UNL     1      49.786   6.914  15.248  0.00  0.00    +0.000 NA
ATOM      5  C   UNL     1      48.620   6.223  15.250  0.00  0.00    +0.000 A 
ATOM      6  C   UNL     1      47.714   6.303  14.192  0.00  0.00    +0.000 A 
ENDROOT
BRANCH   5   7
ATOM      7  C   UNL     1      48.343   5.383  16.481  0.00  0.00    +0.000 C 
ATOM      8  C   UNL     1      49.624   4.983  17.226  0.00  0.00    +0.000 C 
ATOM      9  C   UNL     1      49.297   4.057  18.389  0.00  0.00    +0.000 C 
ATOM     10  O   UNL     1      48.567   2.918  17.936  0.00  0.00    +0.000 OA
ATOM     11  C   UNL     1      47.304   3.278  17.377  0.00  0.00    +0.000 C 
ATOM     12  C   UNL     1      47.495   4.148  16.143  0.00  0.00    +0.000 C 
ENDBRANCH   5   7
BRANCH   1  13
ATOM     13  C   UNL     1      47.009   7.263  11.960  0.00  0.00    +0.000 C 
BRANCH  13  14
ATOM     14  N   UNL     1      45.752   6.636  12.342  0.00  0.00    +0.000 N 
ATOM     15  H   UNL     1      45.716   6.432  13.337  0.00  0.00    +0.000 HD
BRANCH  14  20
ATOM     16 CL   UNL     1      44.549   1.991   9.048  0.00  0.00    +0.000 Cl
ATOM     17  C   UNL     1      44.878   3.345  10.042  0.00  0.00    +0.000 A 
ATOM     18  C   UNL     1      44.798   3.277  11.421  0.00  0.00    +0.000 A 
ATOM     19  N   UNL     1      45.064   4.345  12.226  0.00  0.00    +0.000 NA
ATOM     20  C   UNL     1      45.412   5.492  11.603  0.00  0.00    +0.000 A 
ATOM     21  C   UNL     1      45.492   5.527  10.204  0.00  0.00    +0.000 A 
ATOM     22  N   UNL     1      45.222   4.472   9.393  0.00  0.00    +0.000 NA
ENDBRANCH  14  20
ENDBRANCH  13  14
ENDBRANCH   1  13
TORSDOF 4
ENDMDL
