MODEL 1
REMARK VINA RESULT:    -8.213      0.000      0.000
REMARK INTER + INTRA:         -11.248
REMARK INTER:                 -10.614
REMARK INTRA:                  -0.634
REMARK UNBOUND:                -0.634
REMARK  Name = 
REMARK  5 active torsions:
REMARK  status: ('A' for Active; 'I' for Inactive)
REMARK    1  A    between atoms: C_2  and  C_3
REMARK    2  A    between atoms: C_7  and  N_8
REMARK    3  A    between atoms: N_8  and  C_9
REMARK    4  A    between atoms: C_9  and  C_10
REMARK    5  A    between atoms: C_14  and  C_15
REMARK                            x       y       z     vdW  Elec       q    Type
REMARK                         _______ _______ _______ _____ _____    ______ ____
ROOT
ATOM      1  C   UNL     1      44.157   4.896  11.913  0.00  0.00    +0.000 C 
ATOM      2  C   UNL     1      42.993   5.162  12.871  0.00  0.00    +0.000 C 
ATOM      3  C   UNL     1      43.134   5.982  11.636  0.00  0.00    +0.000 C 
ENDROOT
BRANCH   1   4
ATOM      4  C   UNL     1      45.534   5.333  12.411  0.00  0.00    +0.000 A 
ATOM      5  C   UNL     1      46.234   6.391  11.817  0.00  0.00    +0.000 A 
ATOM      6  C   UNL     1      47.387   6.905  12.407  0.00  0.00    +0.000 A 
ATOM      7  C   UNL     1      47.850   6.376  13.614  0.00  0.00    +0.000 A 
ATOM      8  C   UNL     1      47.207   5.293  14.230  0.00  0.00    +0.000 A 
ATOM      9  C   UNL     1      46.093   4.753  13.570  0.00  0.00    +0.000 A 
BRANCH   8  10
ATOM     10  C   UNL     1      47.600   4.806  15.571  0.00  0.00    +0.000 A 
ATOM     11  C   UNL     1      47.083   3.614  16.118  0.00  0.00    +0.000 A 
ATOM     12  C   UNL     1      47.425   3.194  17.410  0.00  0.00    +0.000 A 
ATOM     13  C   UNL     1      48.300   3.955  18.179  0.00  0.00    +0.000 A 
ATOM     14  C   UNL     1      48.810   5.134  17.657  0.00  0.00    +0.000 A 
ATOM     15  F   UNL     1      49.641   5.879  18.396  0.00  0.00    +0.000 F 
ATOM     16  C   UNL     1      48.465   5.563  16.380  0.00  0.00    +0.000 A 
ENDBRANCH   8  10
ENDBRANCH   1   4
BRANCH   1  17
ATOM     17  N   UNL     1      44.149   3.590  11.214  0.00  0.00    +0.000 N 
ATOM     18  H   UNL     1      44.338   2.816  11.850  0.00  0.00    +0.000 HD
BRANCH  17  23
ATOM     19  C   UNL     1      45.942   2.032   8.318  0.00  0.00    +0.000 A 
ATOM     20  C   UNL     1      46.118   3.170   7.554  0.00  0.00    +0.000 A 
ATOM     21  N   UNL     1      45.668   4.390   7.920  0.00  0.00    +0.000 NA
ATOM     22  C   UNL     1      45.019   4.460   9.110  0.00  0.00    +0.000 A 
ATOM     23  C   UNL     1      44.761   3.375   9.958  0.00  0.00    +0.000 A 
ATOM     24  C   UNL     1      45.253   2.141   9.534  0.00  0.00    +0.000 A 
BRANCH  19  26
ATOM     25  N   UNL     1      46.914  -0.236   7.521  0.00  0.00    +0.000 NA
ATOM     26  C   UNL     1      46.475   0.776   7.878  0.00  0.00    +0.000 C 
ENDBRANCH  19  26
ENDBRANCH  17  23
ENDBRANCH   1  17
TORSDOF 5
ENDMDL
MODEL 2
REMARK VINA RESULT:    -8.146      3.513      7.615
REMARK INTER + INTRA:         -11.161
REMARK INTER:                 -10.167
REMARK INTRA:                  -0.994
REMARK UNBOUND:                -0.634
REMARK  Name = 
REMARK  5 active torsions:
REMARK  status: ('A' for Active; 'I' for Inactive)
REMARK    1  A    between atoms: C_2  and  C_3
REMARK    2  A    between atoms: C_7  and  N_8
REMARK    3  A    between atoms: N_8  and  C_9
REMARK    4  A    between atoms: C_9  and  C_10
REMARK    5  A    between atoms: C_14  and  C_15
REMARK                            x       y       z     vdW  Elec       q    Type
REMARK                         _______ _______ _______ _____ _____    ______ ____
ROOT
ATOM      1  C   UNL     1      46.139   7.170  12.276  0.00  0.00    +0.000 C 
ATOM      2  C   UNL     1      46.008   8.587  11.713  0.00  0.00    +0.000 C 
ATOM      3  C   UNL     1      45.454   8.274  13.059  0.00  0.00    +0.000 C 
ENDROOT
BRANCH   1   4
ATOM      4  C   UNL     1      45.250   6.114  11.619  0.00  0.00    +0.000 A 
ATOM      5  C   UNL     1      43.857   6.130  11.759  0.00  0.00    +0.000 A 
ATOM      6  C   UNL     1      43.053   5.288  10.993  0.00  0.00    +0.000 A 
ATOM      7  C   UNL     1      43.632   4.426  10.059  0.00  0.00    +0.000 A 
ATOM      8  C   UNL     1      45.024   4.346   9.906  0.00  0.00    +0.000 A 
ATOM      9  C   UNL     1      45.805   5.154  10.746  0.00  0.00    +0.000 A 
BRANCH   8  10
ATOM     10  C   UNL     1      45.652   3.542   8.835  0.00  0.00    +0.000 A 
ATOM     11  C   UNL     1      46.182   4.127   7.668  0.00  0.00    +0.000 A 
ATOM     12  C   UNL     1      46.725   3.347   6.639  0.00  0.00    +0.000 A 
ATOM     13  C   UNL     1      46.758   1.962   6.761  0.00  0.00    +0.000 A 
ATOM     14  C   UNL     1      46.232   1.371   7.900  0.00  0.00    +0.000 A 
ATOM     15  F   UNL     1      46.246   0.037   8.018  0.00  0.00    +0.000 F 
ATOM     16  C   UNL     1      45.679   2.139   8.920  0.00  0.00    +0.000 A 
ENDBRANCH   8  10
ENDBRANCH   1   4
BRANCH   1  17
ATOM     17  N   UNL     1      47.513   6.706  12.577  0.00  0.00    +0.000 N 
ATOM     18  H   UNL     1      47.864   6.064  11.868  0.00  0.00    +0.000 HD
BRANCH  17  23
ATOM     19  C   UNL     1      47.768   5.006  15.906  0.00  0.00    +0.000 A 
ATOM     20  C   UNL     1      48.743   5.808  16.467  0.00  0.00    +0.000 A 
ATOM     21  N   UNL     1      49.325   6.840  15.818  0.00  0.00    +0.000 NA
ATOM     22  C   UNL     1      48.898   7.071  14.551  0.00  0.00    +0.000 A 
ATOM     23  C   UNL     1      47.937   6.314  13.868  0.00  0.00    +0.000 A 
ATOM     24  C   UNL     1      47.365   5.265  14.588  0.00  0.00    +0.000 A 
BRANCH  19  26
ATOM     25  N   UNL     1      46.704   3.089  17.289  0.00  0.00    +0.000 NA
ATOM     26  C   UNL     1      47.176   3.948  16.668  0.00  0.00    +0.000 C 
ENDBRANCH  19  26
ENDBRANCH  17  23
ENDBRANCH   1  17
TORSDOF 5
ENDMDL
MODEL 3
REMARK VINA RESULT:    -7.728      3.586      7.790
REMARK INTER + INTRA:         -10.620
REMARK INTER:                  -9.829
REMARK INTRA:                  -0.792
REMARK UNBOUND:                -0.634
REMARK  Name = 
REMARK  5 active torsions:
REMARK  status: ('A' for Active; 'I' for Inactive)
REMARK    1  A    between atoms: C_2  and  C_3
REMARK    2  A    between atoms: C_7  and  N_8
REMARK    3  A    between atoms: N_8  and  C_9
REMARK    4  A    between atoms: C_9  and  C_10
REMARK    5  A    between atoms: C_14  and  C_15
REMARK                            x       y       z     vdW  Elec       q    Type
REMARK                         _______ _______ _______ _____ _____    ______ ____
ROOT
ATOM      1  C   UNL     1      46.214   7.117  12.386  0.00  0.00    +0.000 C 
ATOM      2  C   UNL     1      46.337   8.477  11.695  0.00  0.00    +0.000 C 
ATOM      3  C   UNL     1      45.577   8.363  12.970  0.00  0.00    +0.000 C 
ENDROOT
BRANCH   1   4
ATOM      4  C   UNL     1      45.294   6.109  11.699  0.00  0.00    +0.000 A 
ATOM      5  C   UNL     1      43.901   6.175  11.824  0.00  0.00    +0.000 A 
ATOM      6  C   UNL     1      43.074   5.379  11.034  0.00  0.00    +0.000 A 
ATOM      7  C   UNL     1      43.631   4.512  10.091  0.00  0.00    +0.000 A 
ATOM      8  C   UNL     1      45.021   4.382   9.952  0.00  0.00    +0.000 A 
ATOM      9  C   UNL     1      45.822   5.144  10.816  0.00  0.00    +0.000 A 
BRANCH   8  10
ATOM     10  C   UNL     1      45.629   3.573   8.873  0.00  0.00    +0.000 A 
ATOM     11  C   UNL     1      46.155   4.156   7.703  0.00  0.00    +0.000 A 
ATOM     12  C   UNL     1      46.681   3.372   6.667  0.00  0.00    +0.000 A 
ATOM     13  C   UNL     1      46.699   1.987   6.785  0.00  0.00    +0.000 A 
ATOM     14  C   UNL     1      46.177   1.398   7.928  0.00  0.00    +0.000 A 
ATOM     15  F   UNL     1      46.178   0.064   8.043  0.00  0.00    +0.000 F 
ATOM     16  C   UNL     1      45.643   2.170   8.954  0.00  0.00    +0.000 A 
ENDBRANCH   8  10
ENDBRANCH   1   4
BRANCH   1  17
ATOM     17  N   UNL     1      47.469   6.533  12.915  0.00  0.00    +0.000 N 
ATOM     18  H   UNL     1      48.009   6.066  12.189  0.00  0.00    +0.000 HD
BRANCH  17  23
ATOM     19  C   UNL     1      48.391   5.440  16.378  0.00  0.00    +0.000 A 
ATOM     20  C   UNL     1      47.749   4.216  16.380  0.00  0.00    +0.000 A 
ATOM     21  N   UNL     1      47.027   3.750  15.337  0.00  0.00    +0.000 NA
ATOM     22  C   UNL     1      46.957   4.556  14.248  0.00  0.00    +0.000 A 
ATOM     23  C   UNL     1      47.542   5.824  14.136  0.00  0.00    +0.000 A 
ATOM     24  C   UNL     1      48.281   6.251  15.240  0.00  0.00    +0.000 A 
BRANCH  19  26
ATOM     25  N   UNL     1      49.797   6.187  18.424  0.00  0.00    +0.000 NA
ATOM     26  C   UNL     1      49.164   5.853  17.511  0.00  0.00    +0.000 C 
ENDBRANCH  19  26
ENDBRANCH  17  23
ENDBRANCH   1  17
TORSDOF 5
ENDMDL
MODEL 4
REMARK VINA RESULT:    -7.615      1.479      2.038
REMARK INTER + INTRA:         -10.475
REMARK INTER:                 -10.255
REMARK INTRA:                  -0.219
REMARK UNBOUND:                -0.634
REMARK  Name = 
REMARK  5 active torsions:
REMARK  status: ('A' for Active; 'I' for Inactive)
REMARK    1  A    between atoms: C_2  and  C_3
REMARK    2  A    between atoms: C_7  and  N_8
REMARK    3  A    between atoms: N_8  and  C_9
REMARK    4  A    between atoms: C_9  and  C_10
REMARK    5  A    between atoms: C_14  and  C_15
REMARK                            x       y       z     vdW  Elec       q    Type
REMARK                         _______ _______ _______ _____ _____    ______ ____
ROOT
ATOM      1  C   UNL     1      44.063   5.077  11.401  0.00  0.00    +0.000 C 
ATOM      2  C   UNL     1      43.314   4.141  12.352  0.00  0.00    +0.000 C 
ATOM      3  C   UNL     1      42.904   5.569  12.247  0.00  0.00    +0.000 C 
ENDROOT
BRANCH   1   4
ATOM      4  C   UNL     1      45.474   5.471  11.839  0.00  0.00    +0.000 A 
ATOM      5  C   UNL     1      46.249   6.377  11.105  0.00  0.00    +0.000 A 
ATOM      6  C   UNL     1      47.442   6.878  11.621  0.00  0.00    +0.000 A 
ATOM      7  C   UNL     1      47.872   6.491  12.893  0.00  0.00    +0.000 A 
ATOM      8  C   UNL     1      47.151   5.558  13.652  0.00  0.00    +0.000 A 
ATOM      9  C   UNL     1      45.993   5.019  13.070  0.00  0.00    +0.000 A 
BRANCH   8  10
ATOM     10  C   UNL     1      47.513   5.235  15.050  0.00  0.00    +0.000 A 
ATOM     11  C   UNL     1      48.429   6.012  15.787  0.00  0.00    +0.000 A 
ATOM     12  C   UNL     1      48.802   5.663  17.092  0.00  0.00    +0.000 A 
ATOM     13  C   UNL     1      48.258   4.532  17.690  0.00  0.00    +0.000 A 
ATOM     14  C   UNL     1      47.361   3.753  16.974  0.00  0.00    +0.000 A 
ATOM     15  F   UNL     1      46.844   2.654  17.538  0.00  0.00    +0.000 F 
ATOM     16  C   UNL     1      46.997   4.086  15.674  0.00  0.00    +0.000 A 
ENDBRANCH   8  10
ENDBRANCH   1   4
BRANCH   1  17
ATOM     17  N   UNL     1      43.934   4.786   9.954  0.00  0.00    +0.000 N 
ATOM     18  H   UNL     1      42.963   4.792   9.648  0.00  0.00    +0.000 HD
BRANCH  17  23
ATOM     19  C   UNL     1      45.983   2.881   7.463  0.00  0.00    +0.000 A 
ATOM     20  C   UNL     1      45.873   1.625   8.030  0.00  0.00    +0.000 A 
ATOM     21  N   UNL     1      45.196   1.380   9.173  0.00  0.00    +0.000 NA
ATOM     22  C   UNL     1      44.604   2.449   9.762  0.00  0.00    +0.000 A 
ATOM     23  C   UNL     1      44.665   3.769   9.297  0.00  0.00    +0.000 A 
ATOM     24  C   UNL     1      45.371   3.963   8.110  0.00  0.00    +0.000 A 
BRANCH  19  26
ATOM     25  N   UNL     1      47.265   3.193   5.231  0.00  0.00    +0.000 NA
ATOM     26  C   UNL     1      46.693   3.057   6.231  0.00  0.00    +0.000 C 
ENDBRANCH  19  26
ENDBRANCH  17  23
ENDBRANCH   1  17
TORSDOF 5
ENDMDL
MODEL 5
REMARK VINA RESULT:    -7.452      2.386      3.292
REMARK INTER + INTRA:         -10.264
REMARK INTER:                  -9.994
REMARK INTRA:                  -0.271
REMARK UNBOUND:                -0.634
REMARK  Name = 
REMARK  5 active torsions:
REMARK  status: ('A' for Active; 'I' for Inactive)
REMARK    1  A    between atoms: C_2  and  C_3
REMARK    2  A    between atoms: C_7  and  N_8
REMARK    3  A    between atoms: N_8  and  C_9
REMARK    4  A    between atoms: C_9  and  C_10
REMARK    5  A    between atoms: C_14  and  C_15
REMARK                            x       y       z     vdW  Elec       q    Type
REMARK                         _______ _______ _______ _____ _____    ______ ____
ROOT
ATOM      1  C   UNL     1      44.402   4.513  11.566  0.00  0.00    +0.000 C 
ATOM      2  C   UNL     1      45.203   3.548  12.443  0.00  0.00    +0.000 C 
ATOM      3  C   UNL     1      43.853   3.997  12.882  0.00  0.00    +0.000 C 
ENDROOT
BRANCH   1   4
ATOM      4  C   UNL     1      44.913   5.952  11.529  0.00  0.00    +0.000 A 
ATOM      5  C   UNL     1      44.051   7.039  11.342  0.00  0.00    +0.000 A 
ATOM      6  C   UNL     1      44.500   8.346  11.513  0.00  0.00    +0.000 A 
ATOM      7  C   UNL     1      45.823   8.587  11.894  0.00  0.00    +0.000 A 
ATOM      8  C   UNL     1      46.737   7.535  12.058  0.00  0.00    +0.000 A 
ATOM      9  C   UNL     1      46.268   6.237  11.804  0.00  0.00    +0.000 A 
BRANCH   8  10
ATOM     10  C   UNL     1      48.100   7.755  12.588  0.00  0.00    +0.000 A 
ATOM     11  C   UNL     1      49.076   8.480  11.875  0.00  0.00    +0.000 A 
ATOM     12  C   UNL     1      50.378   8.635  12.367  0.00  0.00    +0.000 A 
ATOM     13  C   UNL     1      50.730   8.074  13.590  0.00  0.00    +0.000 A 
ATOM     14  C   UNL     1      49.783   7.351  14.300  0.00  0.00    +0.000 A 
ATOM     15  F   UNL     1      50.118   6.795  15.471  0.00  0.00    +0.000 F 
ATOM     16  C   UNL     1      48.492   7.183  13.811  0.00  0.00    +0.000 A 
ENDBRANCH   8  10
ENDBRANCH   1   4
BRANCH   1  17
ATOM     17  N   UNL     1      43.958   3.992  10.251  0.00  0.00    +0.000 N 
ATOM     18  H   UNL     1      43.184   3.335  10.342  0.00  0.00    +0.000 HD
BRANCH  17  23
ATOM     19  C   UNL     1      46.176   1.940   8.037  0.00  0.00    +0.000 A 
ATOM     20  C   UNL     1      46.774   2.972   7.339  0.00  0.00    +0.000 A 
ATOM     21  N   UNL     1      46.478   4.275   7.536  0.00  0.00    +0.000 NA
ATOM     22  C   UNL     1      45.542   4.543   8.481  0.00  0.00    +0.000 A 
ATOM     23  C   UNL     1      44.851   3.584   9.234  0.00  0.00    +0.000 A 
ATOM     24  C   UNL     1      45.202   2.255   8.994  0.00  0.00    +0.000 A 
BRANCH  19  26
ATOM     25  N   UNL     1      46.871  -0.519   7.599  0.00  0.00    +0.000 NA
ATOM     26  C   UNL     1      46.565   0.582   7.794  0.00  0.00    +0.000 C 
ENDBRANCH  19  26
ENDBRANCH  17  23
ENDBRANCH   1  17
TORSDOF 5
ENDMDL
MODEL 6
REMARK VINA RESULT:    -7.130      3.922      7.638
REMARK INTER + INTRA:          -9.848
REMARK INTER:                  -8.756
REMARK INTRA:                  -1.092
REMARK UNBOUND:                -0.634
REMARK  Name = 
REMARK  5 active torsions:
REMARK  status: ('A' for Active; 'I' for Inactive)
REMARK    1  A    between atoms: C_2  and  C_3
REMARK    2  A    between atoms: C_7  and  N_8
REMARK    3  A    between atoms: N_8  and  C_9
REMARK    4  A    between atoms: C_9  and  C_10
REMARK    5  A    between atoms: C_14  and  C_15
REMARK                            x       y       z     vdW  Elec       q    Type
REMARK                         _______ _______ _______ _____ _____    ______ ____
ROOT
ATOM      1  C   UNL     1      48.668   8.071  12.642  0.00  0.00    +0.000 C 
ATOM      2  C   UNL     1      49.463   8.741  11.519  0.00  0.00    +0.000 C 
ATOM      3  C   UNL     1      49.084   9.527  12.726  0.00  0.00    +0.000 C 
ENDROOT
BRANCH   1   4
ATOM      4  C   UNL     1      47.202   7.772  12.325  0.00  0.00    +0.000 A 
ATOM      5  C   UNL     1      46.199   8.735  12.492  0.00  0.00    +0.000 A 
ATOM      6  C   UNL     1      44.911   8.515  12.011  0.00  0.00    +0.000 A 
ATOM      7  C   UNL     1      44.609   7.329  11.336  0.00  0.00    +0.000 A 
ATOM      8  C   UNL     1      45.568   6.318  11.175  0.00  0.00    +0.000 A 
ATOM      9  C   UNL     1      46.833   6.543  11.738  0.00  0.00    +0.000 A 
BRANCH   8  10
ATOM     10  C   UNL     1      45.311   5.116  10.352  0.00  0.00    +0.000 A 
ATOM     11  C   UNL     1      44.661   3.977  10.867  0.00  0.00    +0.000 A 
ATOM     12  C   UNL     1      44.472   2.827  10.089  0.00  0.00    +0.000 A 
ATOM     13  C   UNL     1      44.923   2.796   8.774  0.00  0.00    +0.000 A 
ATOM     14  C   UNL     1      45.571   3.907   8.255  0.00  0.00    +0.000 A 
ATOM     15  F   UNL     1      46.021   3.881   6.994  0.00  0.00    +0.000 F 
ATOM     16  C   UNL     1      45.773   5.047   9.026  0.00  0.00    +0.000 A 
ENDBRANCH   8  10
ENDBRANCH   1   4
BRANCH   1  17
ATOM     17  N   UNL     1      49.361   6.993  13.386  0.00  0.00    +0.000 N 
ATOM     18  H   UNL     1      49.464   6.148  12.827  0.00  0.00    +0.000 HD
BRANCH  17  23
ATOM     19  C   UNL     1      48.041   5.357  16.487  0.00  0.00    +0.000 A 
ATOM     20  C   UNL     1      48.443   6.310  17.404  0.00  0.00    +0.000 A 
ATOM     21  N   UNL     1      49.129   7.424  17.069  0.00  0.00    +0.000 NA
ATOM     22  C   UNL     1      49.415   7.581  15.752  0.00  0.00    +0.000 A 
ATOM     23  C   UNL     1      49.082   6.676  14.735  0.00  0.00    +0.000 A 
ATOM     24  C   UNL     1      48.369   5.547  15.137  0.00  0.00    +0.000 A 
BRANCH  19  26
ATOM     25  N   UNL     1      46.673   3.294  17.257  0.00  0.00    +0.000 NA
ATOM     26  C   UNL     1      47.289   4.215  16.914  0.00  0.00    +0.000 C 
ENDBRANCH  19  26
ENDBRANCH  17  23
ENDBRANCH   1  17
TORSDOF 5
ENDMDL
MODEL 7
REMARK VINA RESULT:    -6.914      1.765      2.897
REMARK INTER + INTRA:          -9.569
REMARK INTER:                  -8.585
REMARK INTRA:                  -0.985
REMARK UNBOUND:                -0.634
REMARK  Name = 
REMARK  5 active torsions:
REMARK  status: ('A' for Active; 'I' for Inactive)
REMARK    1  A    between atoms: C_2  and  C_3
REMARK    2  A    between atoms: C_7  and  N_8
REMARK    3  A    between atoms: N_8  and  C_9
REMARK    4  A    between atoms: C_9  and  C_10
REMARK    5  A    between atoms: C_14  and  C_15
REMARK                            x       y       z     vdW  Elec       q    Type
REMARK                         _______ _______ _______ _____ _____    ______ ____
ROOT
ATOM      1  C   UNL     1      45.224   7.823  12.046  0.00  0.00    +0.000 C 
ATOM      2  C   UNL     1      44.773   9.208  12.517  0.00  0.00    +0.000 C 
ATOM      3  C   UNL     1      45.083   8.983  11.078  0.00  0.00    +0.000 C 
ENDROOT
BRANCH   1   4
ATOM      4  C   UNL     1      46.639   7.415  12.457  0.00  0.00    +0.000 A 
ATOM      5  C   UNL     1      47.772   7.922  11.810  0.00  0.00    +0.000 A 
ATOM      6  C   UNL     1      49.048   7.700  12.324  0.00  0.00    +0.000 A 
ATOM      7  C   UNL     1      49.208   6.978  13.510  0.00  0.00    +0.000 A 
ATOM      8  C   UNL     1      48.108   6.418  14.176  0.00  0.00    +0.000 A 
ATOM      9  C   UNL     1      46.847   6.599  13.589  0.00  0.00    +0.000 A 
BRANCH   8  10
ATOM     10  C   UNL     1      48.240   5.767  15.498  0.00  0.00    +0.000 A 
ATOM     11  C   UNL     1      49.167   6.208  16.464  0.00  0.00    +0.000 A 
ATOM     12  C   UNL     1      49.316   5.547  17.691  0.00  0.00    +0.000 A 
ATOM     13  C   UNL     1      48.532   4.435  17.980  0.00  0.00    +0.000 A 
ATOM     14  C   UNL     1      47.621   3.985  17.036  0.00  0.00    +0.000 A 
ATOM     15  F   UNL     1      46.874   2.906  17.302  0.00  0.00    +0.000 F 
ATOM     16  C   UNL     1      47.478   4.628  15.812  0.00  0.00    +0.000 A 
ENDBRANCH   8  10
ENDBRANCH   1   4
BRANCH   1  17
ATOM     17  N   UNL     1      44.224   6.735  12.147  0.00  0.00    +0.000 N 
ATOM     18  H   UNL     1      43.975   6.533  13.114  0.00  0.00    +0.000 HD
BRANCH  17  23
ATOM     19  C   UNL     1      44.964   4.239   9.454  0.00  0.00    +0.000 A 
ATOM     20  C   UNL     1      44.133   3.223   9.886  0.00  0.00    +0.000 A 
ATOM     21  N   UNL     1      43.376   3.303  11.002  0.00  0.00    +0.000 NA
ATOM     22  C   UNL     1      43.463   4.461  11.706  0.00  0.00    +0.000 A 
ATOM     23  C   UNL     1      44.285   5.548  11.381  0.00  0.00    +0.000 A 
ATOM     24  C   UNL     1      45.039   5.413  10.216  0.00  0.00    +0.000 A 
BRANCH  19  26
ATOM     25  N   UNL     1      46.322   3.965   7.262  0.00  0.00    +0.000 NA
ATOM     26  C   UNL     1      45.714   4.093   8.242  0.00  0.00    +0.000 C 
ENDBRANCH  19  26
ENDBRANCH  17  23
ENDBRANCH   1  17
TORSDOF 5
ENDMDL
MODEL 8
REMARK VINA RESULT:    -6.718      2.133      4.130
REMARK INTER + INTRA:          -9.315
REMARK INTER:                  -8.460
REMARK INTRA:                  -0.855
REMARK UNBOUND:                -0.634
REMARK  Name = 
REMARK  5 active torsions:
REMARK  status: ('A' for Active; 'I' for Inactive)
REMARK    1  A    between atoms: C_2  and  C_3
REMARK    2  A    between atoms: C_7  and  N_8
REMARK    3  A    between atoms: N_8  and  C_9
REMARK    4  A    between atoms: C_9  and  C_10
REMARK    5  A    between atoms: C_14  and  C_15
REMARK                            x       y       z     vdW  Elec       q    Type
REMARK                         _______ _______ _______ _____ _____    ______ ____
ROOT
ATOM      1  C   UNL     1      47.782   8.004  12.722  0.00  0.00    +0.000 C 
ATOM      2  C   UNL     1      48.318   9.137  11.844  0.00  0.00    +0.000 C 
ATOM      3  C   UNL     1      48.822   7.750  11.647  0.00  0.00    +0.000 C 
ENDROOT
BRANCH   1   4
ATOM      4  C   UNL     1      48.256   8.014  14.175  0.00  0.00    +0.000 A 
ATOM      5  C   UNL     1      48.216   9.175  14.958  0.00  0.00    +0.000 A 
ATOM      6  C   UNL     1      48.458   9.121  16.329  0.00  0.00    +0.000 A 
ATOM      7  C   UNL     1      48.729   7.896  16.943  0.00  0.00    +0.000 A 
ATOM      8  C   UNL     1      48.817   6.710  16.199  0.00  0.00    +0.000 A 
ATOM      9  C   UNL     1      48.641   6.815  14.810  0.00  0.00    +0.000 A 
BRANCH   8  10
ATOM     10  C   UNL     1      48.970   5.388  16.843  0.00  0.00    +0.000 A 
ATOM     11  C   UNL     1      50.220   4.903  17.278  0.00  0.00    +0.000 A 
ATOM     12  C   UNL     1      50.356   3.627  17.839  0.00  0.00    +0.000 A 
ATOM     13  C   UNL     1      49.240   2.810  17.985  0.00  0.00    +0.000 A 
ATOM     14  C   UNL     1      48.004   3.270  17.555  0.00  0.00    +0.000 A 
ATOM     15  F   UNL     1      46.927   2.484  17.679  0.00  0.00    +0.000 F 
ATOM     16  C   UNL     1      47.864   4.531  16.985  0.00  0.00    +0.000 A 
ENDBRANCH   8  10
ENDBRANCH   1   4
BRANCH   1  17
ATOM     17  N   UNL     1      46.351   7.661  12.552  0.00  0.00    +0.000 N 
ATOM     18  H   UNL     1      45.767   8.092  13.267  0.00  0.00    +0.000 HD
BRANCH  17  23
ATOM     19  C   UNL     1      45.099   4.640  10.725  0.00  0.00    +0.000 A 
ATOM     20  C   UNL     1      44.805   3.849  11.820  0.00  0.00    +0.000 A 
ATOM     21  N   UNL     1      45.013   4.238  13.097  0.00  0.00    +0.000 NA
ATOM     22  C   UNL     1      45.535   5.478  13.271  0.00  0.00    +0.000 A 
ATOM     23  C   UNL     1      45.895   6.359  12.242  0.00  0.00    +0.000 A 
ATOM     24  C   UNL     1      45.652   5.909  10.944  0.00  0.00    +0.000 A 
BRANCH  19  26
ATOM     25  N   UNL     1      44.591   3.796   8.326  0.00  0.00    +0.000 NA
ATOM     26  C   UNL     1      44.822   4.170   9.400  0.00  0.00    +0.000 C 
ENDBRANCH  19  26
ENDBRANCH  17  23
ENDBRANCH   1  17
TORSDOF 5
ENDMDL
MODEL 9
REMARK VINA RESULT:    -6.114      4.595      7.432
REMARK INTER + INTRA:          -8.535
REMARK INTER:                  -7.607
REMARK INTRA:                  -0.928
REMARK UNBOUND:                -0.634
REMARK  Name = 
REMARK  5 active torsions:
REMARK  status: ('A' for Active; 'I' for Inactive)
REMARK    1  A    between atoms: C_2  and  C_3
REMARK    2  A    between atoms: C_7  and  N_8
REMARK    3  A    between atoms: N_8  and  C_9
REMARK    4  A    between atoms: C_9  and  C_10
REMARK    5  A    between atoms: C_14  and  C_15
REMARK                            x       y       z     vdW  Elec       q    Type
REMARK                         _______ _______ _______ _____ _____    ______ ____
ROOT
ATOM      1  C   UNL     1      48.411   7.895  13.398  0.00  0.00    +0.000 C 
ATOM      2  C   UNL     1      48.483   7.799  14.924  0.00  0.00    +0.000 C 
ATOM      3  C   UNL     1      49.002   6.681  14.089  0.00  0.00    +0.000 C 
ENDROOT
BRANCH   1   4
ATOM      4  C   UNL     1      47.014   7.753  12.793  0.00  0.00    +0.000 A 
ATOM      5  C   UNL     1      46.127   8.834  12.721  0.00  0.00    +0.000 A 
ATOM      6  C   UNL     1      44.945   8.740  11.988  0.00  0.00    +0.000 A 
ATOM      7  C   UNL     1      44.641   7.563  11.299  0.00  0.00    +0.000 A 
ATOM      8  C   UNL     1      45.478   6.440  11.370  0.00  0.00    +0.000 A 
ATOM      9  C   UNL     1      46.621   6.546  12.177  0.00  0.00    +0.000 A 
BRANCH   8  10
ATOM     10  C   UNL     1      45.245   5.235  10.545  0.00  0.00    +0.000 A 
ATOM     11  C   UNL     1      44.594   4.092  11.051  0.00  0.00    +0.000 A 
ATOM     12  C   UNL     1      44.428   2.939  10.273  0.00  0.00    +0.000 A 
ATOM     13  C   UNL     1      44.903   2.908   8.966  0.00  0.00    +0.000 A 
ATOM     14  C   UNL     1      45.552   4.023   8.456  0.00  0.00    +0.000 A 
ATOM     15  F   UNL     1      46.025   3.996   7.204  0.00  0.00    +0.000 F 
ATOM     16  C   UNL     1      45.732   5.166   9.228  0.00  0.00    +0.000 A 
ENDBRANCH   8  10
ENDBRANCH   1   4
BRANCH   1  17
ATOM     17  N   UNL     1      49.244   8.944  12.765  0.00  0.00    +0.000 N 
ATOM     18  H   UNL     1      48.706   9.525  12.125  0.00  0.00    +0.000 HD
BRANCH  17  23
ATOM     19  C   UNL     1      52.119   7.790  10.658  0.00  0.00    +0.000 A 
ATOM     20  C   UNL     1      53.147   8.128  11.518  0.00  0.00    +0.000 A 
ATOM     21  N   UNL     1      52.953   8.722  12.715  0.00  0.00    +0.000 NA
ATOM     22  C   UNL     1      51.665   8.980  13.057  0.00  0.00    +0.000 A 
ATOM     23  C   UNL     1      50.544   8.706  12.262  0.00  0.00    +0.000 A 
ATOM     24  C   UNL     1      50.803   8.087  11.039  0.00  0.00    +0.000 A 
BRANCH  19  26
ATOM     25  N   UNL     1      52.622   6.600   8.410  0.00  0.00    +0.000 NA
ATOM     26  C   UNL     1      52.401   7.134   9.416  0.00  0.00    +0.000 C 
ENDBRANCH  19  26
ENDBRANCH  17  23
ENDBRANCH   1  17
TORSDOF 5
ENDMDL
