MODEL 1
REMARK VINA RESULT:    -8.364      0.000      0.000
REMARK INTER + INTRA:          -9.959
REMARK INTER:                 -10.320
REMARK INTRA:                   0.361
REMARK UNBOUND:                 0.361
REMARK  Name = 
REMARK  4 active torsions:
REMARK  status: ('A' for Active; 'I' for Inactive)
REMARK    1  A    between atoms: C_2  and  C_3
REMARK    2  A    between atoms: C_6  and  C_7
REMARK    3  A    between atoms: C_7  and  N_8
REMARK    4  A    between atoms: C_12  and  C_13
REMARK                            x       y       z     vdW  Elec       q    Type
REMARK                         _______ _______ _______ _____ _____    ______ ____
ROOT
ATOM      1  N   UNL     1      44.606   5.208   9.854  0.00  0.00    +0.000 N 
ATOM      2  C   UNL     1      45.277   4.225   9.131  0.00  0.00    +0.000 A 
ATOM      3  N   UNL     1      45.179   2.915   9.406  0.00  0.00    +0.000 NA
ATOM      4  C   UNL     1      45.854   2.067   8.585  0.00  0.00    +0.000 A 
ATOM      5  C   UNL     1      46.608   2.479   7.504  0.00  0.00    +0.000 A 
ATOM      6  C   UNL     1      46.660   3.837   7.326  0.00  0.00    +0.000 A 
ATOM      7  N   UNL     1      46.009   4.717   8.115  0.00  0.00    +0.000 NA
ATOM      8  H   UNL     1      45.024   6.090   9.577  0.00  0.00    +0.000 HD
ENDROOT
BRANCH   5   9
ATOM      9  C   UNL     1      47.330   1.518   6.659  0.00  0.00    +0.000 C 
ATOM     10  N   UNL     1      48.311   1.998   5.833  0.00  0.00    +0.000 N 
ATOM     11  O   UNL     1      47.052   0.327   6.686  0.00  0.00    +0.000 OA
ATOM     12  H   UNL     1      48.492   2.975   5.653  0.00  0.00    +0.000 HD
ATOM     13  H   UNL     1      48.755   1.325   5.218  0.00  0.00    +0.000 HD
ENDBRANCH   5   9
BRANCH   1  14
ATOM     14  C   UNL     1      44.068   5.053  11.202  0.00  0.00    +0.000 C 
ATOM     15  C   UNL     1      42.686   5.550  11.575  0.00  0.00    +0.000 C 
ATOM     16  C   UNL     1      42.876   4.096  11.309  0.00  0.00    +0.000 C 
BRANCH  14  20
ATOM     17  C   UNL     1      46.924   4.789  14.337  0.00  0.00    +0.000 A 
ATOM     18  N   UNL     1      46.618   6.019  13.888  0.00  0.00    +0.000 NA
ATOM     19  C   UNL     1      45.730   6.068  12.867  0.00  0.00    +0.000 A 
ATOM     20  C   UNL     1      45.120   4.964  12.292  0.00  0.00    +0.000 A 
ATOM     21  C   UNL     1      45.558   3.762  12.827  0.00  0.00    +0.000 A 
ATOM     22  N   UNL     1      46.439   3.633  13.844  0.00  0.00    +0.000 NA
BRANCH  17  24
ATOM     23  N   UNL     1      48.541   4.620  16.371  0.00  0.00    +0.000 NA
ATOM     24  C   UNL     1      47.813   4.695  15.468  0.00  0.00    +0.000 C 
ENDBRANCH  17  24
ENDBRANCH  14  20
ENDBRANCH   1  14
TORSDOF 4
ENDMDL
MODEL 2
REMARK VINA RESULT:    -7.492      3.122      6.899
REMARK INTER + INTRA:          -8.882
REMARK INTER:                  -8.789
REMARK INTRA:                  -0.093
REMARK UNBOUND:                 0.361
REMARK  Name = 
REMARK  4 active torsions:
REMARK  status: ('A' for Active; 'I' for Inactive)
REMARK    1  A    between atoms: C_2  and  C_3
REMARK    2  A    between atoms: C_6  and  C_7
REMARK    3  A    between atoms: C_7  and  N_8
REMARK    4  A    between atoms: C_12  and  C_13
REMARK                            x       y       z     vdW  Elec       q    Type
REMARK                         _______ _______ _______ _____ _____    ______ ____
ROOT
ATOM      1  N   UNL     1      44.523   5.887  10.971  0.00  0.00    +0.000 N 
ATOM      2  C   UNL     1      45.414   6.567  11.798  0.00  0.00    +0.000 A 
ATOM      3  N   UNL     1      46.534   6.011  12.287  0.00  0.00    +0.000 NA
ATOM      4  C   UNL     1      47.333   6.810  13.042  0.00  0.00    +0.000 A 
ATOM      5  C   UNL     1      47.059   8.135  13.315  0.00  0.00    +0.000 A 
ATOM      6  C   UNL     1      45.880   8.598  12.788  0.00  0.00    +0.000 A 
ATOM      7  N   UNL     1      45.055   7.841  12.034  0.00  0.00    +0.000 NA
ATOM      8  H   UNL     1      43.686   6.458  10.937  0.00  0.00    +0.000 HD
ENDROOT
BRANCH   5   9
ATOM      9  C   UNL     1      47.951   8.950  14.151  0.00  0.00    +0.000 C 
ATOM     10  N   UNL     1      47.578   9.190  15.447  0.00  0.00    +0.000 N 
ATOM     11  O   UNL     1      48.990   9.409  13.696  0.00  0.00    +0.000 OA
ATOM     12  H   UNL     1      46.675   8.968  15.842  0.00  0.00    +0.000 HD
ATOM     13  H   UNL     1      48.181   9.802  15.986  0.00  0.00    +0.000 HD
ENDBRANCH   5   9
BRANCH   1  14
ATOM     14  C   UNL     1      44.416   4.436  10.849  0.00  0.00    +0.000 C 
ATOM     15  C   UNL     1      44.186   3.545  12.054  0.00  0.00    +0.000 C 
ATOM     16  C   UNL     1      43.029   3.867  11.170  0.00  0.00    +0.000 C 
BRANCH  14  20
ATOM     17  C   UNL     1      46.533   2.783   7.557  0.00  0.00    +0.000 A 
ATOM     18  N   UNL     1      46.424   4.122   7.606  0.00  0.00    +0.000 NA
ATOM     19  C   UNL     1      45.716   4.617   8.649  0.00  0.00    +0.000 A 
ATOM     20  C   UNL     1      45.136   3.851   9.648  0.00  0.00    +0.000 A 
ATOM     21  C   UNL     1      45.294   2.487   9.449  0.00  0.00    +0.000 A 
ATOM     22  N   UNL     1      45.986   1.920   8.436  0.00  0.00    +0.000 NA
BRANCH  17  24
ATOM     23  N   UNL     1      47.992   1.758   5.659  0.00  0.00    +0.000 NA
ATOM     24  C   UNL     1      47.336   2.219   6.501  0.00  0.00    +0.000 C 
ENDBRANCH  17  24
ENDBRANCH  14  20
ENDBRANCH   1  14
TORSDOF 4
ENDMDL
MODEL 3
REMARK VINA RESULT:    -7.267      2.589      6.806
REMARK INTER + INTRA:          -8.605
REMARK INTER:                  -8.383
REMARK INTRA:                  -0.223
REMARK UNBOUND:                 0.361
REMARK  Name = 
REMARK  4 active torsions:
REMARK  status: ('A' for Active; 'I' for Inactive)
REMARK    1  A    between atoms: C_2  and  C_3
REMARK    2  A    between atoms: C_6  and  C_7
REMARK    3  A    between atoms: C_7  and  N_8
REMARK    4  A    between atoms: C_12  and  C_13
REMARK                            x       y       z     vdW  Elec       q    Type
REMARK                         _______ _______ _______ _____ _____    ______ ____
ROOT
ATOM      1  N   UNL     1      45.489   5.315  11.672  0.00  0.00    +0.000 N 
ATOM      2  C   UNL     1      46.071   4.888  12.863  0.00  0.00    +0.000 A 
ATOM      3  N   UNL     1      46.217   3.595  13.188  0.00  0.00    +0.000 NA
ATOM      4  C   UNL     1      46.848   3.327  14.363  0.00  0.00    +0.000 A 
ATOM      5  C   UNL     1      47.341   4.300  15.210  0.00  0.00    +0.000 A 
ATOM      6  C   UNL     1      47.120   5.588  14.795  0.00  0.00    +0.000 A 
ATOM      7  N   UNL     1      46.497   5.901  13.639  0.00  0.00    +0.000 NA
ATOM      8  H   UNL     1      45.315   6.307  11.788  0.00  0.00    +0.000 HD
ENDROOT
BRANCH   5   9
ATOM      9  C   UNL     1      48.001   3.954  16.476  0.00  0.00    +0.000 C 
ATOM     10  N   UNL     1      47.217   3.542  17.520  0.00  0.00    +0.000 N 
ATOM     11  O   UNL     1      49.215   4.045  16.595  0.00  0.00    +0.000 OA
ATOM     12  H   UNL     1      46.207   3.583  17.540  0.00  0.00    +0.000 HD
ATOM     13  H   UNL     1      47.689   3.365  18.400  0.00  0.00    +0.000 HD
ENDBRANCH   5   9
BRANCH   1  14
ATOM     14  C   UNL     1      44.604   4.519  10.827  0.00  0.00    +0.000 C 
ATOM     15  C   UNL     1      43.357   3.854  11.375  0.00  0.00    +0.000 C 
ATOM     16  C   UNL     1      43.213   5.124  10.607  0.00  0.00    +0.000 C 
BRANCH  14  20
ATOM     17  C   UNL     1      46.598   2.757   7.514  0.00  0.00    +0.000 A 
ATOM     18  N   UNL     1      46.539   4.100   7.551  0.00  0.00    +0.000 NA
ATOM     19  C   UNL     1      45.869   4.630   8.602  0.00  0.00    +0.000 A 
ATOM     20  C   UNL     1      45.280   3.896   9.619  0.00  0.00    +0.000 A 
ATOM     21  C   UNL     1      45.385   2.526   9.432  0.00  0.00    +0.000 A 
ATOM     22  N   UNL     1      46.037   1.924   8.412  0.00  0.00    +0.000 NA
BRANCH  17  24
ATOM     23  N   UNL     1      47.985   1.664   5.601  0.00  0.00    +0.000 NA
ATOM     24  C   UNL     1      47.360   2.154   6.450  0.00  0.00    +0.000 C 
ENDBRANCH  17  24
ENDBRANCH  14  20
ENDBRANCH   1  14
TORSDOF 4
ENDMDL
MODEL 4
REMARK VINA RESULT:    -7.204      1.832      2.551
REMARK INTER + INTRA:          -8.527
REMARK INTER:                  -8.288
REMARK INTRA:                  -0.239
REMARK UNBOUND:                 0.361
REMARK  Name = 
REMARK  4 active torsions:
REMARK  status: ('A' for Active; 'I' for Inactive)
REMARK    1  A    between atoms: C_2  and  C_3
REMARK    2  A    between atoms: C_6  and  C_7
REMARK    3  A    between atoms: C_7  and  N_8
REMARK    4  A    between atoms: C_12  and  C_13
REMARK                            x       y       z     vdW  Elec       q    Type
REMARK                         _______ _______ _______ _____ _____    ______ ____
ROOT
ATOM      1  N   UNL     1      44.569   3.778  11.159  0.00  0.00    +0.000 N 
ATOM      2  C   UNL     1      45.177   3.613   9.917  0.00  0.00    +0.000 A 
ATOM      3  N   UNL     1      45.671   4.634   9.199  0.00  0.00    +0.000 NA
ATOM      4  C   UNL     1      46.280   4.317   8.025  0.00  0.00    +0.000 A 
ATOM      5  C   UNL     1      46.418   3.027   7.555  0.00  0.00    +0.000 A 
ATOM      6  C   UNL     1      45.860   2.062   8.353  0.00  0.00    +0.000 A 
ATOM      7  N   UNL     1      45.245   2.329   9.524  0.00  0.00    +0.000 NA
ATOM      8  H   UNL     1      44.109   2.897  11.363  0.00  0.00    +0.000 HD
ENDROOT
BRANCH   5   9
ATOM      9  C   UNL     1      47.072   2.742   6.270  0.00  0.00    +0.000 C 
ATOM     10  N   UNL     1      48.415   2.475   6.276  0.00  0.00    +0.000 N 
ATOM     11  O   UNL     1      46.435   2.756   5.226  0.00  0.00    +0.000 OA
ATOM     12  H   UNL     1      49.026   2.589   7.072  0.00  0.00    +0.000 HD
ATOM     13  H   UNL     1      48.855   2.339   5.372  0.00  0.00    +0.000 HD
ENDBRANCH   5   9
BRANCH   1  14
ATOM     14  C   UNL     1      44.005   5.024  11.670  0.00  0.00    +0.000 C 
ATOM     15  C   UNL     1      42.620   5.497  11.278  0.00  0.00    +0.000 C 
ATOM     16  C   UNL     1      42.805   4.847  12.607  0.00  0.00    +0.000 C 
BRANCH  14  20
ATOM     17  C   UNL     1      46.837   7.950  12.887  0.00  0.00    +0.000 A 
ATOM     18  N   UNL     1      45.838   8.359  12.085  0.00  0.00    +0.000 NA
ATOM     19  C   UNL     1      44.971   7.397  11.688  0.00  0.00    +0.000 A 
ATOM     20  C   UNL     1      45.036   6.065  12.066  0.00  0.00    +0.000 A 
ATOM     21  C   UNL     1      46.136   5.779  12.860  0.00  0.00    +0.000 A 
ATOM     22  N   UNL     1      47.042   6.683  13.297  0.00  0.00    +0.000 NA
BRANCH  17  24
ATOM     23  N   UNL     1      48.470   9.771  13.780  0.00  0.00    +0.000 NA
ATOM     24  C   UNL     1      47.742   8.954  13.388  0.00  0.00    +0.000 C 
ENDBRANCH  17  24
ENDBRANCH  14  20
ENDBRANCH   1  14
TORSDOF 4
ENDMDL
MODEL 5
REMARK VINA RESULT:    -6.657      3.759      6.528
REMARK INTER + INTRA:          -7.853
REMARK INTER:                  -7.927
REMARK INTRA:                   0.074
REMARK UNBOUND:                 0.361
REMARK  Name = 
REMARK  4 active torsions:
REMARK  status: ('A' for Active; 'I' for Inactive)
REMARK    1  A    between atoms: C_2  and  C_3
REMARK    2  A    between atoms: C_6  and  C_7
REMARK    3  A    between atoms: C_7  and  N_8
REMARK    4  A    between atoms: C_12  and  C_13
REMARK                            x       y       z     vdW  Elec       q    Type
REMARK                         _______ _______ _______ _____ _____    ______ ____
ROOT
ATOM      1  N   UNL     1      47.149   3.839  15.764  0.00  0.00    +0.000 N 
ATOM      2  C   UNL     1      46.830   4.495  14.578  0.00  0.00    +0.000 A 
ATOM      3  N   UNL     1      47.592   5.464  14.047  0.00  0.00    +0.000 NA
ATOM      4  C   UNL     1      47.181   5.982  12.858  0.00  0.00    +0.000 A 
ATOM      5  C   UNL     1      46.050   5.562  12.187  0.00  0.00    +0.000 A 
ATOM      6  C   UNL     1      45.332   4.585  12.826  0.00  0.00    +0.000 A 
ATOM      7  N   UNL     1      45.700   4.043  14.006  0.00  0.00    +0.000 NA
ATOM      8  H   UNL     1      46.314   3.330  16.033  0.00  0.00    +0.000 HD
ENDROOT
BRANCH   5   9
ATOM      9  C   UNL     1      45.643   6.168  10.912  0.00  0.00    +0.000 C 
ATOM     10  N   UNL     1      44.790   7.237  10.950  0.00  0.00    +0.000 N 
ATOM     11  O   UNL     1      46.049   5.720   9.848  0.00  0.00    +0.000 OA
ATOM     12  H   UNL     1      44.305   7.564  11.775  0.00  0.00    +0.000 HD
ATOM     13  H   UNL     1      44.477   7.602  10.057  0.00  0.00    +0.000 HD
ENDBRANCH   5   9
BRANCH   1  14
ATOM     14  C   UNL     1      48.056   4.338  16.794  0.00  0.00    +0.000 C 
ATOM     15  C   UNL     1      48.125   5.808  17.157  0.00  0.00    +0.000 C 
ATOM     16  C   UNL     1      47.362   4.885  18.047  0.00  0.00    +0.000 C 
BRANCH  14  20
ATOM     17  C   UNL     1      51.462   1.899  17.505  0.00  0.00    +0.000 A 
ATOM     18  N   UNL     1      51.551   3.194  17.856  0.00  0.00    +0.000 NA
ATOM     19  C   UNL     1      50.461   3.952  17.587  0.00  0.00    +0.000 A 
ATOM     20  C   UNL     1      49.291   3.483  17.012  0.00  0.00    +0.000 A 
ATOM     21  C   UNL     1      49.355   2.141  16.666  0.00  0.00    +0.000 A 
ATOM     22  N   UNL     1      50.404   1.322  16.902  0.00  0.00    +0.000 NA
BRANCH  17  24
ATOM     23  N   UNL     1      53.478   0.363  18.102  0.00  0.00    +0.000 NA
ATOM     24  C   UNL     1      52.574   1.042  17.836  0.00  0.00    +0.000 C 
ENDBRANCH  17  24
ENDBRANCH  14  20
ENDBRANCH   1  14
TORSDOF 4
ENDMDL
MODEL 6
REMARK VINA RESULT:    -6.618      3.273      6.905
REMARK INTER + INTRA:          -7.805
REMARK INTER:                  -7.698
REMARK INTRA:                  -0.106
REMARK UNBOUND:                 0.361
REMARK  Name = 
REMARK  4 active torsions:
REMARK  status: ('A' for Active; 'I' for Inactive)
REMARK    1  A    between atoms: C_2  and  C_3
REMARK    2  A    between atoms: C_6  and  C_7
REMARK    3  A    between atoms: C_7  and  N_8
REMARK    4  A    between atoms: C_12  and  C_13
REMARK                            x       y       z     vdW  Elec       q    Type
REMARK                         _______ _______ _______ _____ _____    ______ ____
ROOT
ATOM      1  N   UNL     1      44.769   6.476  11.675  0.00  0.00    +0.000 N 
ATOM      2  C   UNL     1      45.895   6.750  12.447  0.00  0.00    +0.000 A 
ATOM      3  N   UNL     1      46.882   5.863  12.647  0.00  0.00    +0.000 NA
ATOM      4  C   UNL     1      47.944   6.285  13.383  0.00  0.00    +0.000 A 
ATOM      5  C   UNL     1      48.055   7.555  13.914  0.00  0.00    +0.000 A 
ATOM      6  C   UNL     1      46.984   8.375  13.670  0.00  0.00    +0.000 A 
ATOM      7  N   UNL     1      45.908   7.998  12.946  0.00  0.00    +0.000 NA
ATOM      8  H   UNL     1      44.109   7.221  11.873  0.00  0.00    +0.000 HD
ENDROOT
BRANCH   5   9
ATOM      9  C   UNL     1      49.219   7.955  14.716  0.00  0.00    +0.000 C 
ATOM     10  N   UNL     1      50.327   8.417  14.059  0.00  0.00    +0.000 N 
ATOM     11  O   UNL     1      49.199   7.864  15.936  0.00  0.00    +0.000 OA
ATOM     12  H   UNL     1      50.466   8.382  13.058  0.00  0.00    +0.000 HD
ATOM     13  H   UNL     1      51.137   8.632  14.630  0.00  0.00    +0.000 HD
ENDBRANCH   5   9
BRANCH   1  14
ATOM     14  C   UNL     1      44.276   5.145  11.333  0.00  0.00    +0.000 C 
ATOM     15  C   UNL     1      43.722   4.202  12.382  0.00  0.00    +0.000 C 
ATOM     16  C   UNL     1      42.766   4.954  11.519  0.00  0.00    +0.000 C 
BRANCH  14  20
ATOM     17  C   UNL     1      45.920   3.526   7.765  0.00  0.00    +0.000 A 
ATOM     18  N   UNL     1      45.173   2.705   8.524  0.00  0.00    +0.000 NA
ATOM     19  C   UNL     1      44.691   3.241   9.671  0.00  0.00    +0.000 A 
ATOM     20  C   UNL     1      44.894   4.548  10.083  0.00  0.00    +0.000 A 
ATOM     21  C   UNL     1      45.713   5.267   9.225  0.00  0.00    +0.000 A 
ATOM     22  N   UNL     1      46.230   4.803   8.065  0.00  0.00    +0.000 NA
BRANCH  17  24
ATOM     23  N   UNL     1      46.767   2.612   5.479  0.00  0.00    +0.000 NA
ATOM     24  C   UNL     1      46.395   3.017   6.503  0.00  0.00    +0.000 C 
ENDBRANCH  17  24
ENDBRANCH  14  20
ENDBRANCH   1  14
TORSDOF 4
ENDMDL
MODEL 7
REMARK VINA RESULT:    -6.006      4.547      8.863
REMARK INTER + INTRA:          -7.049
REMARK INTER:                  -6.767
REMARK INTRA:                  -0.282
REMARK UNBOUND:                 0.361
REMARK  Name = 
REMARK  4 active torsions:
REMARK  status: ('A' for Active; 'I' for Inactive)
REMARK    1  A    between atoms: C_2  and  C_3
REMARK    2  A    between atoms: C_6  and  C_7
REMARK    3  A    between atoms: C_7  and  N_8
REMARK    4  A    between atoms: C_12  and  C_13
REMARK                            x       y       z     vdW  Elec       q    Type
REMARK                         _______ _______ _______ _____ _____    ______ ____
ROOT
ATOM      1  N   UNL     1      50.206   5.256  17.444  0.00  0.00    +0.000 N 
ATOM      2  C   UNL     1      50.862   4.031  17.527  0.00  0.00    +0.000 A 
ATOM      3  N   UNL     1      50.271   2.859  17.247  0.00  0.00    +0.000 NA
ATOM      4  C   UNL     1      51.049   1.747  17.325  0.00  0.00    +0.000 A 
ATOM      5  C   UNL     1      52.388   1.768  17.663  0.00  0.00    +0.000 A 
ATOM      6  C   UNL     1      52.887   3.012  17.952  0.00  0.00    +0.000 A 
ATOM      7  N   UNL     1      52.153   4.142  17.889  0.00  0.00    +0.000 NA
ATOM      8  H   UNL     1      50.808   5.926  17.910  0.00  0.00    +0.000 HD
ENDROOT
BRANCH   5   9
ATOM      9  C   UNL     1      53.179   0.533  17.748  0.00  0.00    +0.000 C 
ATOM     10  N   UNL     1      52.653  -0.522  18.445  0.00  0.00    +0.000 N 
ATOM     11  O   UNL     1      54.280   0.457  17.221  0.00  0.00    +0.000 OA
ATOM     12  H   UNL     1      51.825  -0.482  19.022  0.00  0.00    +0.000 HD
ATOM     13  H   UNL     1      53.242  -1.342  18.539  0.00  0.00    +0.000 HD
ENDBRANCH   5   9
BRANCH   1  14
ATOM     14  C   UNL     1      48.758   5.447  17.463  0.00  0.00    +0.000 C 
ATOM     15  C   UNL     1      47.931   5.174  18.704  0.00  0.00    +0.000 C 
ATOM     16  C   UNL     1      48.276   6.586  18.369  0.00  0.00    +0.000 C 
BRANCH  14  20
ATOM     17  C   UNL     1      46.801   5.169  13.703  0.00  0.00    +0.000 A 
ATOM     18  N   UNL     1      46.536   4.207  14.604  0.00  0.00    +0.000 NA
ATOM     19  C   UNL     1      47.200   4.306  15.781  0.00  0.00    +0.000 A 
ATOM     20  C   UNL     1      48.089   5.318  16.108  0.00  0.00    +0.000 A 
ATOM     21  C   UNL     1      48.295   6.216  15.072  0.00  0.00    +0.000 A 
ATOM     22  N   UNL     1      47.670   6.184  13.873  0.00  0.00    +0.000 NA
BRANCH  17  24
ATOM     23  N   UNL     1      45.476   5.129  11.461  0.00  0.00    +0.000 NA
ATOM     24  C   UNL     1      46.064   5.140  12.464  0.00  0.00    +0.000 C 
ENDBRANCH  17  24
ENDBRANCH  14  20
ENDBRANCH   1  14
TORSDOF 4
ENDMDL
MODEL 8
REMARK VINA RESULT:    -5.490      4.424      5.911
REMARK INTER + INTRA:          -6.413
REMARK INTER:                  -6.377
REMARK INTRA:                  -0.036
REMARK UNBOUND:                 0.361
REMARK  Name = 
REMARK  4 active torsions:
REMARK  status: ('A' for Active; 'I' for Inactive)
REMARK    1  A    between atoms: C_2  and  C_3
REMARK    2  A    between atoms: C_6  and  C_7
REMARK    3  A    between atoms: C_7  and  N_8
REMARK    4  A    between atoms: C_12  and  C_13
REMARK                            x       y       z     vdW  Elec       q    Type
REMARK                         _______ _______ _______ _____ _____    ______ ____
ROOT
ATOM      1  N   UNL     1      47.473   6.715  13.109  0.00  0.00    +0.000 N 
ATOM      2  C   UNL     1      46.581   5.891  12.427  0.00  0.00    +0.000 A 
ATOM      3  N   UNL     1      46.080   6.191  11.219  0.00  0.00    +0.000 NA
ATOM      4  C   UNL     1      45.257   5.269  10.652  0.00  0.00    +0.000 A 
ATOM      5  C   UNL     1      44.929   4.065  11.243  0.00  0.00    +0.000 A 
ATOM      6  C   UNL     1      45.475   3.867  12.485  0.00  0.00    +0.000 A 
ATOM      7  N   UNL     1      46.295   4.754  13.087  0.00  0.00    +0.000 NA
ATOM      8  H   UNL     1      47.510   6.359  14.058  0.00  0.00    +0.000 HD
ENDROOT
BRANCH   5   9
ATOM      9  C   UNL     1      44.021   3.111  10.592  0.00  0.00    +0.000 C 
ATOM     10  N   UNL     1      44.215   2.839   9.265  0.00  0.00    +0.000 N 
ATOM     11  O   UNL     1      43.111   2.585  11.219  0.00  0.00    +0.000 OA
ATOM     12  H   UNL     1      44.847   3.340   8.656  0.00  0.00    +0.000 HD
ATOM     13  H   UNL     1      43.542   2.223   8.824  0.00  0.00    +0.000 HD
ENDBRANCH   5   9
BRANCH   1  14
ATOM     14  C   UNL     1      47.671   8.140  12.863  0.00  0.00    +0.000 C 
ATOM     15  C   UNL     1      46.509   9.110  12.789  0.00  0.00    +0.000 C 
ATOM     16  C   UNL     1      47.312   9.050  14.043  0.00  0.00    +0.000 C 
BRANCH  14  20
ATOM     17  C   UNL     1      51.280   9.083  10.828  0.00  0.00    +0.000 A 
ATOM     18  N   UNL     1      50.410  10.087  11.031  0.00  0.00    +0.000 NA
ATOM     19  C   UNL     1      49.256   9.749  11.652  0.00  0.00    +0.000 A 
ATOM     20  C   UNL     1      48.938   8.476  12.098  0.00  0.00    +0.000 A 
ATOM     21  C   UNL     1      49.908   7.534  11.788  0.00  0.00    +0.000 A 
ATOM     22  N   UNL     1      51.083   7.795  11.172  0.00  0.00    +0.000 NA
BRANCH  17  24
ATOM     23  N   UNL     1      53.579   9.665   9.753  0.00  0.00    +0.000 NA
ATOM     24  C   UNL     1      52.551   9.412  10.232  0.00  0.00    +0.000 C 
ENDBRANCH  17  24
ENDBRANCH  14  20
ENDBRANCH   1  14
TORSDOF 4
ENDMDL
MODEL 9
REMARK VINA RESULT:    -5.444      4.848      8.173
REMARK INTER + INTRA:          -6.356
REMARK INTER:                  -6.307
REMARK INTRA:                  -0.049
REMARK UNBOUND:                 0.361
REMARK  Name = 
REMARK  4 active torsions:
REMARK  status: ('A' for Active; 'I' for Inactive)
REMARK    1  A    between atoms: C_2  and  C_3
REMARK    2  A    between atoms: C_6  and  C_7
REMARK    3  A    between atoms: C_7  and  N_8
REMARK    4  A    between atoms: C_12  and  C_13
REMARK                            x       y       z     vdW  Elec       q    Type
REMARK                         _______ _______ _______ _____ _____    ______ ____
ROOT
ATOM      1  N   UNL     1      48.731   6.833  13.960  0.00  0.00    +0.000 N 
ATOM      2  C   UNL     1      49.039   6.581  15.295  0.00  0.00    +0.000 A 
ATOM      3  N   UNL     1      48.108   6.356  16.234  0.00  0.00    +0.000 NA
ATOM      4  C   UNL     1      48.558   6.076  17.486  0.00  0.00    +0.000 A 
ATOM      5  C   UNL     1      49.894   6.006  17.825  0.00  0.00    +0.000 A 
ATOM      6  C   UNL     1      50.762   6.274  16.798  0.00  0.00    +0.000 A 
ATOM      7  N   UNL     1      50.361   6.558  15.541  0.00  0.00    +0.000 NA
ATOM      8  H   UNL     1      49.588   7.174  13.537  0.00  0.00    +0.000 HD
ENDROOT
BRANCH   5   9
ATOM      9  C   UNL     1      50.325   5.715  19.199  0.00  0.00    +0.000 C 
ATOM     10  N   UNL     1      50.106   4.456  19.690  0.00  0.00    +0.000 N 
ATOM     11  O   UNL     1      50.853   6.579  19.886  0.00  0.00    +0.000 OA
ATOM     12  H   UNL     1      49.551   3.744  19.237  0.00  0.00    +0.000 HD
ATOM     13  H   UNL     1      50.359   4.296  20.659  0.00  0.00    +0.000 HD
ENDBRANCH   5   9
BRANCH   1  14
ATOM     14  C   UNL     1      47.441   7.298  13.459  0.00  0.00    +0.000 C 
ATOM     15  C   UNL     1      46.911   8.682  13.776  0.00  0.00    +0.000 C 
ATOM     16  C   UNL     1      47.525   8.439  12.439  0.00  0.00    +0.000 C 
BRANCH  14  20
ATOM     17  C   UNL     1      44.695   4.188  12.543  0.00  0.00    +0.000 A 
ATOM     18  N   UNL     1      44.250   5.452  12.433  0.00  0.00    +0.000 NA
ATOM     19  C   UNL     1      45.138   6.419  12.763  0.00  0.00    +0.000 A 
ATOM     20  C   UNL     1      46.443   6.193  13.171  0.00  0.00    +0.000 A 
ATOM     21  C   UNL     1      46.753   4.845  13.277  0.00  0.00    +0.000 A 
ATOM     22  N   UNL     1      45.922   3.825  12.965  0.00  0.00    +0.000 NA
BRANCH  17  24
ATOM     23  N   UNL     1      43.079   2.279  11.820  0.00  0.00    +0.000 NA
ATOM     24  C   UNL     1      43.805   3.130  12.136  0.00  0.00    +0.000 C 
ENDBRANCH  17  24
ENDBRANCH  14  20
ENDBRANCH   1  14
TORSDOF 4
ENDMDL
