MODEL 1
REMARK VINA RESULT:    -8.815      0.000      0.000
REMARK INTER + INTRA:         -13.893
REMARK INTER:                 -12.681
REMARK INTRA:                  -1.213
REMARK UNBOUND:                -1.213
REMARK  Name = 
REMARK  8 active torsions:
REMARK  status: ('A' for Active; 'I' for Inactive)
REMARK    1  A    between atoms: N_1  and  C_2
REMARK    2  A    between atoms: C_2  and  C_3
REMARK    3  A    between atoms: C_2  and  C_17
REMARK    4  A    between atoms: C_3  and  N_4
REMARK    5  A    between atoms: C_5  and  C_7
REMARK    6  A    between atoms: C_20  and  C_21
REMARK    7  A    between atoms: C_21  and  N_22
REMARK    8  A    between atoms: C_23  and  C_25
REMARK                            x       y       z     vdW  Elec       q    Type
REMARK                         _______ _______ _______ _____ _____    ______ ____
ROOT
ATOM      1  C   UNL     1      45.639   8.454  13.258  0.00  0.00    +0.000 C 
ENDROOT
BRANCH   1   2
ATOM      2  C   UNL     1      45.162   7.141  12.617  0.00  0.00    +0.000 A 
ATOM      3  C   UNL     1      44.158   7.115  11.653  0.00  0.00    +0.000 A 
ATOM      4  C   UNL     1      43.721   5.889  11.151  0.00  0.00    +0.000 A 
ATOM      5  C   UNL     1      44.319   4.704  11.578  0.00  0.00    +0.000 A 
ATOM      6  C   UNL     1      45.359   4.819  12.489  0.00  0.00    +0.000 A 
ATOM      7  N   UNL     1      45.784   5.995  13.018  0.00  0.00    +0.000 NA
BRANCH   5   8
ATOM      8  C   UNL     1      43.833   3.370  11.096  0.00  0.00    +0.000 C 
BRANCH   8   9
ATOM      9  N   UNL     1      44.780   2.743  10.204  0.00  0.00    +0.000 N 
ATOM     10  C   UNL     1      44.910   3.151   8.892  0.00  0.00    +0.000 C 
ATOM     11  O   UNL     1      44.232   4.042   8.393  0.00  0.00    +0.000 OA
ATOM     12  H   UNL     1      45.433   2.042  10.541  0.00  0.00    +0.000 HD
BRANCH  10  13
ATOM     13  C   UNL     1      45.953   2.430   8.093  0.00  0.00    +0.000 A 
ATOM     14  C   UNL     1      46.748   3.149   7.223  0.00  0.00    +0.000 A 
ATOM     15  C   UNL     1      47.672   2.414   6.525  0.00  0.00    +0.000 A 
ATOM     16  N   UNL     1      47.807   1.083   6.662  0.00  0.00    +0.000 NA
ATOM     17  C   UNL     1      46.982   0.486   7.538  0.00  0.00    +0.000 A 
ATOM     18  N   UNL     1      46.049   1.090   8.286  0.00  0.00    +0.000 NA
ENDBRANCH  10  13
ENDBRANCH   8   9
ENDBRANCH   5   8
ENDBRANCH   1   2
BRANCH   1  19
ATOM     19  N   UNL     1      45.122   9.634  12.522  0.00  0.00    +0.000 NA
ATOM     20  H   UNL     1      45.281  10.441  13.133  0.00  0.00    +0.000 HD
ATOM     21  H   UNL     1      44.101   9.549  12.481  0.00  0.00    +0.000 HD
ENDBRANCH   1  19
BRANCH   1  22
ATOM     22  C   UNL     1      47.180   8.593  13.415  0.00  0.00    +0.000 C 
BRANCH  22  23
ATOM     23  N   UNL     1      47.710   8.014  14.641  0.00  0.00    +0.000 N 
ATOM     24  C   UNL     1      48.625   6.991  14.638  0.00  0.00    +0.000 C 
ATOM     25  O   UNL     1      49.101   6.529  13.607  0.00  0.00    +0.000 OA
ATOM     26  H   UNL     1      47.390   8.394  15.523  0.00  0.00    +0.000 HD
BRANCH  24  27
ATOM     27  C   UNL     1      49.078   6.550  15.961  0.00  0.00    +0.000 A 
ATOM     28  C   UNL     1      49.954   7.328  16.703  0.00  0.00    +0.000 A 
ATOM     29  S   UNL     1      50.268   6.695  18.259  0.00  0.00    +0.000 S 
ATOM     30  C   UNL     1      49.289   5.334  17.963  0.00  0.00    +0.000 A 
ATOM     31  N   UNL     1      49.097   4.378  18.914  0.00  0.00    +0.000 NA
ATOM     32  C   UNL     1      48.360   3.390  18.537  0.00  0.00    +0.000 A 
ATOM     33  N   UNL     1      47.804   3.259  17.290  0.00  0.00    +0.000 N 
ATOM     34  C   UNL     1      47.985   4.186  16.291  0.00  0.00    +0.000 A 
ATOM     35  O   UNL     1      47.501   4.020  15.177  0.00  0.00    +0.000 OA
ATOM     36  C   UNL     1      48.760   5.346  16.686  0.00  0.00    +0.000 A 
ATOM     37  H   UNL     1      47.260   2.446  17.046  0.00  0.00    +0.000 HD
ENDBRANCH  24  27
ENDBRANCH  22  23
ENDBRANCH   1  22
TORSDOF 8
ENDMDL
MODEL 2
REMARK VINA RESULT:    -8.492      2.449      3.152
REMARK INTER + INTRA:         -13.429
REMARK INTER:                 -12.512
REMARK INTRA:                  -0.916
REMARK UNBOUND:                -1.213
REMARK  Name = 
REMARK  8 active torsions:
REMARK  status: ('A' for Active; 'I' for Inactive)
REMARK    1  A    between atoms: N_1  and  C_2
REMARK    2  A    between atoms: C_2  and  C_3
REMARK    3  A    between atoms: C_2  and  C_17
REMARK    4  A    between atoms: C_3  and  N_4
REMARK    5  A    between atoms: C_5  and  C_7
REMARK    6  A    between atoms: C_20  and  C_21
REMARK    7  A    between atoms: C_21  and  N_22
REMARK    8  A    between atoms: C_23  and  C_25
REMARK                            x       y       z     vdW  Elec       q    Type
REMARK                         _______ _______ _______ _____ _____    ______ ____
ROOT
ATOM      1  C   UNL     1      48.377   6.882  14.780  0.00  0.00    +0.000 C 
ENDROOT
BRANCH   1   2
ATOM      2  C   UNL     1      47.438   6.037  13.905  0.00  0.00    +0.000 A 
ATOM      3  C   UNL     1      46.771   6.576  12.808  0.00  0.00    +0.000 A 
ATOM      4  C   UNL     1      45.882   5.779  12.086  0.00  0.00    +0.000 A 
ATOM      5  C   UNL     1      45.701   4.441  12.433  0.00  0.00    +0.000 A 
ATOM      6  C   UNL     1      46.453   3.961  13.496  0.00  0.00    +0.000 A 
ATOM      7  N   UNL     1      47.301   4.720  14.235  0.00  0.00    +0.000 NA
BRANCH   5   8
ATOM      8  C   UNL     1      44.712   3.577  11.710  0.00  0.00    +0.000 C 
BRANCH   8   9
ATOM      9  N   UNL     1      45.319   2.877  10.601  0.00  0.00    +0.000 N 
ATOM     10  C   UNL     1      45.216   3.350   9.309  0.00  0.00    +0.000 C 
ATOM     11  O   UNL     1      44.597   4.366   9.011  0.00  0.00    +0.000 OA
ATOM     12  H   UNL     1      45.908   2.064  10.754  0.00  0.00    +0.000 HD
BRANCH  10  13
ATOM     13  C   UNL     1      45.921   2.537   8.267  0.00  0.00    +0.000 A 
ATOM     14  C   UNL     1      46.382   3.164   7.126  0.00  0.00    +0.000 A 
ATOM     15  C   UNL     1      47.009   2.349   6.219  0.00  0.00    +0.000 A 
ATOM     16  N   UNL     1      47.170   1.026   6.408  0.00  0.00    +0.000 NA
ATOM     17  C   UNL     1      46.684   0.523   7.554  0.00  0.00    +0.000 A 
ATOM     18  N   UNL     1      46.063   1.212   8.522  0.00  0.00    +0.000 NA
ENDBRANCH  10  13
ENDBRANCH   8   9
ENDBRANCH   5   8
ENDBRANCH   1   2
BRANCH   1  19
ATOM     19  N   UNL     1      49.784   6.777  14.321  0.00  0.00    +0.000 NA
ATOM     20  H   UNL     1      50.357   7.176  15.070  0.00  0.00    +0.000 HD
ATOM     21  H   UNL     1      49.903   7.432  13.541  0.00  0.00    +0.000 HD
ENDBRANCH   1  19
BRANCH   1  22
ATOM     22  C   UNL     1      48.320   6.574  16.303  0.00  0.00    +0.000 C 
BRANCH  22  23
ATOM     23  N   UNL     1      49.523   5.947  16.831  0.00  0.00    +0.000 N 
ATOM     24  C   UNL     1      49.493   4.767  17.531  0.00  0.00    +0.000 C 
ATOM     25  O   UNL     1      48.461   4.130  17.715  0.00  0.00    +0.000 OA
ATOM     26  H   UNL     1      50.410   6.404  16.663  0.00  0.00    +0.000 HD
BRANCH  24  27
ATOM     27  C   UNL     1      50.799   4.259  17.962  0.00  0.00    +0.000 A 
ATOM     28  C   UNL     1      51.682   5.078  18.651  0.00  0.00    +0.000 A 
ATOM     29  S   UNL     1      53.096   4.267  19.162  0.00  0.00    +0.000 S 
ATOM     30  C   UNL     1      52.598   2.816  18.425  0.00  0.00    +0.000 A 
ATOM     31  N   UNL     1      53.353   1.685  18.502  0.00  0.00    +0.000 NA
ATOM     32  C   UNL     1      52.865   0.674  17.869  0.00  0.00    +0.000 A 
ATOM     33  N   UNL     1      51.696   0.688  17.152  0.00  0.00    +0.000 N 
ATOM     34  C   UNL     1      50.910   1.809  17.027  0.00  0.00    +0.000 A 
ATOM     35  O   UNL     1      49.889   1.795  16.350  0.00  0.00    +0.000 OA
ATOM     36  C   UNL     1      51.387   2.958  17.772  0.00  0.00    +0.000 A 
ATOM     37  H   UNL     1      51.383  -0.130  16.652  0.00  0.00    +0.000 HD
ENDBRANCH  24  27
ENDBRANCH  22  23
ENDBRANCH   1  22
TORSDOF 8
ENDMDL
MODEL 3
REMARK VINA RESULT:    -7.741      5.079      9.880
REMARK INTER + INTRA:         -12.348
REMARK INTER:                 -11.235
REMARK INTRA:                  -1.114
REMARK UNBOUND:                -1.213
REMARK  Name = 
REMARK  8 active torsions:
REMARK  status: ('A' for Active; 'I' for Inactive)
REMARK    1  A    between atoms: N_1  and  C_2
REMARK    2  A    between atoms: C_2  and  C_3
REMARK    3  A    between atoms: C_2  and  C_17
REMARK    4  A    between atoms: C_3  and  N_4
REMARK    5  A    between atoms: C_5  and  C_7
REMARK    6  A    between atoms: C_20  and  C_21
REMARK    7  A    between atoms: C_21  and  N_22
REMARK    8  A    between atoms: C_23  and  C_25
REMARK                            x       y       z     vdW  Elec       q    Type
REMARK                         _______ _______ _______ _____ _____    ______ ____
ROOT
ATOM      1  C   UNL     1      48.294   3.568  16.554  0.00  0.00    +0.000 C 
ENDROOT
BRANCH   1   2
ATOM      2  C   UNL     1      49.690   3.160  17.048  0.00  0.00    +0.000 A 
ATOM      3  C   UNL     1      50.520   4.050  17.725  0.00  0.00    +0.000 A 
ATOM      4  C   UNL     1      51.803   3.646  18.096  0.00  0.00    +0.000 A 
ATOM      5  C   UNL     1      52.230   2.345  17.834  0.00  0.00    +0.000 A 
ATOM      6  C   UNL     1      51.320   1.498  17.217  0.00  0.00    +0.000 A 
ATOM      7  N   UNL     1      50.079   1.873  16.817  0.00  0.00    +0.000 NA
BRANCH   5   8
ATOM      8  C   UNL     1      53.621   1.900  18.172  0.00  0.00    +0.000 C 
BRANCH   8   9
ATOM      9  N   UNL     1      53.637   0.572  18.740  0.00  0.00    +0.000 N 
ATOM     10  C   UNL     1      54.191  -0.494  18.061  0.00  0.00    +0.000 C 
ATOM     11  O   UNL     1      54.679  -0.398  16.940  0.00  0.00    +0.000 OA
ATOM     12  H   UNL     1      53.318   0.404  19.690  0.00  0.00    +0.000 HD
BRANCH  10  13
ATOM     13  C   UNL     1      54.164  -1.805  18.786  0.00  0.00    +0.000 A 
ATOM     14  C   UNL     1      55.199  -2.699  18.593  0.00  0.00    +0.000 A 
ATOM     15  C   UNL     1      55.095  -3.877  19.287  0.00  0.00    +0.000 A 
ATOM     16  N   UNL     1      54.062  -4.162  20.102  0.00  0.00    +0.000 NA
ATOM     17  C   UNL     1      53.113  -3.220  20.215  0.00  0.00    +0.000 A 
ATOM     18  N   UNL     1      53.103  -2.027  19.602  0.00  0.00    +0.000 NA
ENDBRANCH  10  13
ENDBRANCH   8   9
ENDBRANCH   5   8
ENDBRANCH   1   2
BRANCH   1  19
ATOM     19  N   UNL     1      47.868   2.743  15.396  0.00  0.00    +0.000 NA
ATOM     20  H   UNL     1      46.884   2.974  15.230  0.00  0.00    +0.000 HD
ATOM     21  H   UNL     1      47.846   1.766  15.705  0.00  0.00    +0.000 HD
ENDBRANCH   1  19
BRANCH   1  22
ATOM     22  C   UNL     1      48.132   5.070  16.189  0.00  0.00    +0.000 C 
BRANCH  22  23
ATOM     23  N   UNL     1      47.133   5.332  15.162  0.00  0.00    +0.000 N 
ATOM     24  C   UNL     1      47.458   5.836  13.928  0.00  0.00    +0.000 C 
ATOM     25  O   UNL     1      48.614   6.052  13.582  0.00  0.00    +0.000 OA
ATOM     26  H   UNL     1      46.166   5.122  15.376  0.00  0.00    +0.000 HD
BRANCH  24  27
ATOM     27  C   UNL     1      46.332   6.007  13.004  0.00  0.00    +0.000 A 
ATOM     28  C   UNL     1      45.874   7.275  12.676  0.00  0.00    +0.000 A 
ATOM     29  S   UNL     1      44.635   7.262  11.501  0.00  0.00    +0.000 S 
ATOM     30  C   UNL     1      44.632   5.561  11.440  0.00  0.00    +0.000 A 
ATOM     31  N   UNL     1      43.804   4.881  10.599  0.00  0.00    +0.000 NA
ATOM     32  C   UNL     1      43.890   3.599  10.686  0.00  0.00    +0.000 A 
ATOM     33  N   UNL     1      44.719   2.926  11.548  0.00  0.00    +0.000 N 
ATOM     34  C   UNL     1      45.557   3.566  12.430  0.00  0.00    +0.000 A 
ATOM     35  O   UNL     1      46.259   2.932  13.210  0.00  0.00    +0.000 OA
ATOM     36  C   UNL     1      45.540   5.012  12.328  0.00  0.00    +0.000 A 
ATOM     37  H   UNL     1      44.717   1.918  11.590  0.00  0.00    +0.000 HD
ENDBRANCH  24  27
ENDBRANCH  22  23
ENDBRANCH   1  22
TORSDOF 8
ENDMDL
MODEL 4
REMARK VINA RESULT:    -7.611      1.703      2.628
REMARK INTER + INTRA:         -12.161
REMARK INTER:                 -11.342
REMARK INTRA:                  -0.819
REMARK UNBOUND:                -1.213
REMARK  Name = 
REMARK  8 active torsions:
REMARK  status: ('A' for Active; 'I' for Inactive)
REMARK    1  A    between atoms: N_1  and  C_2
REMARK    2  A    between atoms: C_2  and  C_3
REMARK    3  A    between atoms: C_2  and  C_17
REMARK    4  A    between atoms: C_3  and  N_4
REMARK    5  A    between atoms: C_5  and  C_7
REMARK    6  A    between atoms: C_20  and  C_21
REMARK    7  A    between atoms: C_21  and  N_22
REMARK    8  A    between atoms: C_23  and  C_25
REMARK                            x       y       z     vdW  Elec       q    Type
REMARK                         _______ _______ _______ _____ _____    ______ ____
ROOT
ATOM      1  C   UNL     1      45.543   8.228  13.090  0.00  0.00    +0.000 C 
ENDROOT
BRANCH   1   2
ATOM      2  C   UNL     1      45.061   6.855  12.598  0.00  0.00    +0.000 A 
ATOM      3  C   UNL     1      45.686   5.673  12.986  0.00  0.00    +0.000 A 
ATOM      4  C   UNL     1      45.246   4.458  12.459  0.00  0.00    +0.000 A 
ATOM      5  C   UNL     1      44.157   4.427  11.589  0.00  0.00    +0.000 A 
ATOM      6  C   UNL     1      43.546   5.640  11.304  0.00  0.00    +0.000 A 
ATOM      7  N   UNL     1      43.972   6.838  11.777  0.00  0.00    +0.000 NA
BRANCH   5   8
ATOM      8  C   UNL     1      43.697   3.144  10.965  0.00  0.00    +0.000 C 
BRANCH   8   9
ATOM      9  N   UNL     1      44.699   2.582  10.089  0.00  0.00    +0.000 N 
ATOM     10  C   UNL     1      44.942   3.115   8.840  0.00  0.00    +0.000 C 
ATOM     11  O   UNL     1      44.325   4.071   8.384  0.00  0.00    +0.000 OA
ATOM     12  H   UNL     1      45.308   1.832  10.402  0.00  0.00    +0.000 HD
BRANCH  10  13
ATOM     13  C   UNL     1      46.030   2.448   8.055  0.00  0.00    +0.000 A 
ATOM     14  C   UNL     1      46.151   1.073   8.112  0.00  0.00    +0.000 A 
ATOM     15  C   UNL     1      47.175   0.541   7.371  0.00  0.00    +0.000 A 
ATOM     16  N   UNL     1      48.017   1.291   6.636  0.00  0.00    +0.000 NA
ATOM     17  C   UNL     1      47.806   2.617   6.653  0.00  0.00    +0.000 A 
ATOM     18  N   UNL     1      46.837   3.257   7.323  0.00  0.00    +0.000 NA
ENDBRANCH  10  13
ENDBRANCH   8   9
ENDBRANCH   5   8
ENDBRANCH   1   2
BRANCH   1  19
ATOM     19  N   UNL     1      44.902   9.330  12.332  0.00  0.00    +0.000 NA
ATOM     20  H   UNL     1      44.910   9.041  11.349  0.00  0.00    +0.000 HD
ATOM     21  H   UNL     1      45.538  10.134  12.360  0.00  0.00    +0.000 HD
ENDBRANCH   1  19
BRANCH   1  22
ATOM     22  C   UNL     1      47.084   8.435  13.073  0.00  0.00    +0.000 C 
BRANCH  22  23
ATOM     23  N   UNL     1      47.763   7.969  14.274  0.00  0.00    +0.000 N 
ATOM     24  C   UNL     1      48.714   6.979  14.247  0.00  0.00    +0.000 C 
ATOM     25  O   UNL     1      49.097   6.455  13.206  0.00  0.00    +0.000 OA
ATOM     26  H   UNL     1      47.522   8.404  15.155  0.00  0.00    +0.000 HD
BRANCH  24  27
ATOM     27  C   UNL     1      49.319   6.655  15.542  0.00  0.00    +0.000 A 
ATOM     28  C   UNL     1      48.573   6.041  16.537  0.00  0.00    +0.000 A 
ATOM     29  S   UNL     1      49.490   5.647  17.923  0.00  0.00    +0.000 S 
ATOM     30  C   UNL     1      50.896   6.339  17.259  0.00  0.00    +0.000 A 
ATOM     31  N   UNL     1      52.082   6.322  17.930  0.00  0.00    +0.000 NA
ATOM     32  C   UNL     1      53.050   6.913  17.318  0.00  0.00    +0.000 A 
ATOM     33  N   UNL     1      52.944   7.533  16.099  0.00  0.00    +0.000 N 
ATOM     34  C   UNL     1      51.766   7.594  15.392  0.00  0.00    +0.000 A 
ATOM     35  O   UNL     1      51.700   8.186  14.321  0.00  0.00    +0.000 OA
ATOM     36  C   UNL     1      50.660   6.892  16.013  0.00  0.00    +0.000 A 
ATOM     37  H   UNL     1      53.733   8.004  15.685  0.00  0.00    +0.000 HD
ENDBRANCH  24  27
ENDBRANCH  22  23
ENDBRANCH   1  22
TORSDOF 8
ENDMDL
MODEL 5
REMARK VINA RESULT:    -7.016      2.177      2.577
REMARK INTER + INTRA:         -11.304
REMARK INTER:                 -10.585
REMARK INTRA:                  -0.720
REMARK UNBOUND:                -1.213
REMARK  Name = 
REMARK  8 active torsions:
REMARK  status: ('A' for Active; 'I' for Inactive)
REMARK    1  A    between atoms: N_1  and  C_2
REMARK    2  A    between atoms: C_2  and  C_3
REMARK    3  A    between atoms: C_2  and  C_17
REMARK    4  A    between atoms: C_3  and  N_4
REMARK    5  A    between atoms: C_5  and  C_7
REMARK    6  A    between atoms: C_20  and  C_21
REMARK    7  A    between atoms: C_21  and  N_22
REMARK    8  A    between atoms: C_23  and  C_25
REMARK                            x       y       z     vdW  Elec       q    Type
REMARK                         _______ _______ _______ _____ _____    ______ ____
ROOT
ATOM      1  C   UNL     1      45.648   8.312  13.144  0.00  0.00    +0.000 C 
ENDROOT
BRANCH   1   2
ATOM      2  C   UNL     1      45.155   6.942  12.653  0.00  0.00    +0.000 A 
ATOM      3  C   UNL     1      45.800   5.759  13.003  0.00  0.00    +0.000 A 
ATOM      4  C   UNL     1      45.346   4.548  12.478  0.00  0.00    +0.000 A 
ATOM      5  C   UNL     1      44.227   4.522  11.647  0.00  0.00    +0.000 A 
ATOM      6  C   UNL     1      43.599   5.735  11.400  0.00  0.00    +0.000 A 
ATOM      7  N   UNL     1      44.036   6.929  11.871  0.00  0.00    +0.000 NA
BRANCH   5   8
ATOM      8  C   UNL     1      43.751   3.243  11.024  0.00  0.00    +0.000 C 
BRANCH   8   9
ATOM      9  N   UNL     1      44.744   2.671  10.145  0.00  0.00    +0.000 N 
ATOM     10  C   UNL     1      44.915   3.132   8.856  0.00  0.00    +0.000 C 
ATOM     11  O   UNL     1      44.236   4.028   8.366  0.00  0.00    +0.000 OA
ATOM     12  H   UNL     1      45.399   1.971  10.480  0.00  0.00    +0.000 HD
BRANCH  10  13
ATOM     13  C   UNL     1      46.002   2.464   8.071  0.00  0.00    +0.000 A 
ATOM     14  C   UNL     1      46.108   1.088   8.110  0.00  0.00    +0.000 A 
ATOM     15  C   UNL     1      47.133   0.555   7.371  0.00  0.00    +0.000 A 
ATOM     16  N   UNL     1      47.988   1.306   6.653  0.00  0.00    +0.000 NA
ATOM     17  C   UNL     1      47.791   2.633   6.686  0.00  0.00    +0.000 A 
ATOM     18  N   UNL     1      46.824   3.275   7.357  0.00  0.00    +0.000 NA
ENDBRANCH  10  13
ENDBRANCH   8   9
ENDBRANCH   5   8
ENDBRANCH   1   2
BRANCH   1  19
ATOM     19  N   UNL     1      44.950   9.420  12.446  0.00  0.00    +0.000 NA
ATOM     20  H   UNL     1      44.906   9.150  11.459  0.00  0.00    +0.000 HD
ATOM     21  H   UNL     1      45.577  10.232  12.454  0.00  0.00    +0.000 HD
ENDBRANCH   1  19
BRANCH   1  22
ATOM     22  C   UNL     1      47.182   8.540  13.043  0.00  0.00    +0.000 C 
BRANCH  22  23
ATOM     23  N   UNL     1      47.948   7.942  14.129  0.00  0.00    +0.000 N 
ATOM     24  C   UNL     1      48.737   8.685  14.971  0.00  0.00    +0.000 C 
ATOM     25  O   UNL     1      48.812   9.907  14.904  0.00  0.00    +0.000 OA
ATOM     26  H   UNL     1      47.881   6.941  14.262  0.00  0.00    +0.000 HD
BRANCH  24  27
ATOM     27  C   UNL     1      49.412   7.928  16.029  0.00  0.00    +0.000 A 
ATOM     28  C   UNL     1      50.334   6.941  15.713  0.00  0.00    +0.000 A 
ATOM     29  S   UNL     1      51.090   6.258  17.084  0.00  0.00    +0.000 S 
ATOM     30  C   UNL     1      50.163   7.217  18.142  0.00  0.00    +0.000 A 
ATOM     31  N   UNL     1      50.328   7.148  19.492  0.00  0.00    +0.000 NA
ATOM     32  C   UNL     1      49.535   7.907  20.167  0.00  0.00    +0.000 A 
ATOM     33  N   UNL     1      48.578   8.724  19.619  0.00  0.00    +0.000 N 
ATOM     34  C   UNL     1      48.359   8.813  18.265  0.00  0.00    +0.000 A 
ATOM     35  O   UNL     1      47.472   9.528  17.812  0.00  0.00    +0.000 OA
ATOM     36  C   UNL     1      49.268   8.021  17.459  0.00  0.00    +0.000 A 
ATOM     37  H   UNL     1      47.966   9.272  20.203  0.00  0.00    +0.000 HD
ENDBRANCH  24  27
ENDBRANCH  22  23
ENDBRANCH   1  22
TORSDOF 8
ENDMDL
MODEL 6
REMARK VINA RESULT:    -6.924      3.886      8.049
REMARK INTER + INTRA:         -11.172
REMARK INTER:                  -9.440
REMARK INTRA:                  -1.732
REMARK UNBOUND:                -1.213
REMARK  Name = 
REMARK  8 active torsions:
REMARK  status: ('A' for Active; 'I' for Inactive)
REMARK    1  A    between atoms: N_1  and  C_2
REMARK    2  A    between atoms: C_2  and  C_3
REMARK    3  A    between atoms: C_2  and  C_17
REMARK    4  A    between atoms: C_3  and  N_4
REMARK    5  A    between atoms: C_5  and  C_7
REMARK    6  A    between atoms: C_20  and  C_21
REMARK    7  A    between atoms: C_21  and  N_22
REMARK    8  A    between atoms: C_23  and  C_25
REMARK                            x       y       z     vdW  Elec       q    Type
REMARK                         _______ _______ _______ _____ _____    ______ ____
ROOT
ATOM      1  C   UNL     1      48.545   3.990  17.326  0.00  0.00    +0.000 C 
ENDROOT
BRANCH   1   2
ATOM      2  C   UNL     1      48.789   5.501  17.199  0.00  0.00    +0.000 A 
ATOM      3  C   UNL     1      48.413   6.394  18.198  0.00  0.00    +0.000 A 
ATOM      4  C   UNL     1      48.603   7.763  18.003  0.00  0.00    +0.000 A 
ATOM      5  C   UNL     1      49.208   8.226  16.836  0.00  0.00    +0.000 A 
ATOM      6  C   UNL     1      49.616   7.268  15.918  0.00  0.00    +0.000 A 
ATOM      7  N   UNL     1      49.416   5.934  16.067  0.00  0.00    +0.000 NA
BRANCH   5   8
ATOM      8  C   UNL     1      49.374   9.693  16.575  0.00  0.00    +0.000 C 
BRANCH   8   9
ATOM      9  N   UNL     1      49.025  10.041  15.218  0.00  0.00    +0.000 N 
ATOM     10  C   UNL     1      49.988  10.410  14.300  0.00  0.00    +0.000 C 
ATOM     11  O   UNL     1      51.181  10.487  14.570  0.00  0.00    +0.000 OA
ATOM     12  H   UNL     1      48.073   9.943  14.880  0.00  0.00    +0.000 HD
BRANCH  10  13
ATOM     13  C   UNL     1      49.482  10.714  12.923  0.00  0.00    +0.000 A 
ATOM     14  C   UNL     1      48.121  10.691  12.688  0.00  0.00    +0.000 A 
ATOM     15  C   UNL     1      47.741  10.974  11.401  0.00  0.00    +0.000 A 
ATOM     16  N   UNL     1      48.619  11.253  10.420  0.00  0.00    +0.000 NA
ATOM     17  C   UNL     1      49.917  11.248  10.761  0.00  0.00    +0.000 A 
ATOM     18  N   UNL     1      50.416  11.001  11.981  0.00  0.00    +0.000 NA
ENDBRANCH  10  13
ENDBRANCH   8   9
ENDBRANCH   5   8
ENDBRANCH   1   2
BRANCH   1  19
ATOM     19  N   UNL     1      49.771   3.215  17.013  0.00  0.00    +0.000 NA
ATOM     20  H   UNL     1      49.455   2.274  16.762  0.00  0.00    +0.000 HD
ATOM     21  H   UNL     1      50.283   3.080  17.892  0.00  0.00    +0.000 HD
ENDBRANCH   1  19
BRANCH   1  22
ATOM     22  C   UNL     1      47.368   3.434  16.475  0.00  0.00    +0.000 C 
BRANCH  22  23
ATOM     23  N   UNL     1      46.771   4.409  15.572  0.00  0.00    +0.000 N 
ATOM     24  C   UNL     1      46.829   4.282  14.207  0.00  0.00    +0.000 C 
ATOM     25  O   UNL     1      47.339   3.315  13.651  0.00  0.00    +0.000 OA
ATOM     26  H   UNL     1      46.291   5.201  15.980  0.00  0.00    +0.000 HD
BRANCH  24  27
ATOM     27  C   UNL     1      46.147   5.336  13.450  0.00  0.00    +0.000 A 
ATOM     28  C   UNL     1      46.762   6.561  13.234  0.00  0.00    +0.000 A 
ATOM     29  S   UNL     1      45.852   7.606  12.236  0.00  0.00    +0.000 S 
ATOM     30  C   UNL     1      44.584   6.477  12.113  0.00  0.00    +0.000 A 
ATOM     31  N   UNL     1      43.475   6.734  11.365  0.00  0.00    +0.000 NA
ATOM     32  C   UNL     1      42.585   5.802  11.393  0.00  0.00    +0.000 A 
ATOM     33  N   UNL     1      42.692   4.638  12.111  0.00  0.00    +0.000 N 
ATOM     34  C   UNL     1      43.782   4.342  12.895  0.00  0.00    +0.000 A 
ATOM     35  O   UNL     1      43.829   3.307  13.550  0.00  0.00    +0.000 OA
ATOM     36  C   UNL     1      44.837   5.335  12.850  0.00  0.00    +0.000 A 
ATOM     37  H   UNL     1      41.946   3.960  12.115  0.00  0.00    +0.000 HD
ENDBRANCH  24  27
ENDBRANCH  22  23
ENDBRANCH   1  22
TORSDOF 8
ENDMDL
MODEL 7
REMARK VINA RESULT:    -6.191      3.900      8.944
REMARK INTER + INTRA:         -10.118
REMARK INTER:                  -8.773
REMARK INTRA:                  -1.345
REMARK UNBOUND:                -1.213
REMARK  Name = 
REMARK  8 active torsions:
REMARK  status: ('A' for Active; 'I' for Inactive)
REMARK    1  A    between atoms: N_1  and  C_2
REMARK    2  A    between atoms: C_2  and  C_3
REMARK    3  A    between atoms: C_2  and  C_17
REMARK    4  A    between atoms: C_3  and  N_4
REMARK    5  A    between atoms: C_5  and  C_7
REMARK    6  A    between atoms: C_20  and  C_21
REMARK    7  A    between atoms: C_21  and  N_22
REMARK    8  A    between atoms: C_23  and  C_25
REMARK                            x       y       z     vdW  Elec       q    Type
REMARK                         _______ _______ _______ _____ _____    ______ ____
ROOT
ATOM      1  C   UNL     1      48.707   3.998  17.277  0.00  0.00    +0.000 C 
ENDROOT
BRANCH   1   2
ATOM      2  C   UNL     1      48.910   5.519  17.206  0.00  0.00    +0.000 A 
ATOM      3  C   UNL     1      48.623   6.351  18.285  0.00  0.00    +0.000 A 
ATOM      4  C   UNL     1      48.766   7.732  18.144  0.00  0.00    +0.000 A 
ATOM      5  C   UNL     1      49.239   8.268  16.947  0.00  0.00    +0.000 A 
ATOM      6  C   UNL     1      49.568   7.368  15.943  0.00  0.00    +0.000 A 
ATOM      7  N   UNL     1      49.409   6.024  16.041  0.00  0.00    +0.000 NA
BRANCH   5   8
ATOM      8  C   UNL     1      49.352   9.750  16.749  0.00  0.00    +0.000 C 
BRANCH   8   9
ATOM      9  N   UNL     1      50.323  10.085  15.734  0.00  0.00    +0.000 N 
ATOM     10  C   UNL     1      51.627  10.394  16.061  0.00  0.00    +0.000 C 
ATOM     11  O   UNL     1      52.043  10.427  17.214  0.00  0.00    +0.000 OA
ATOM     12  H   UNL     1      50.092  10.020  14.747  0.00  0.00    +0.000 HD
BRANCH  10  13
ATOM     13  C   UNL     1      52.529  10.691  14.902  0.00  0.00    +0.000 A 
ATOM     14  C   UNL     1      51.984  10.789  13.636  0.00  0.00    +0.000 A 
ATOM     15  C   UNL     1      52.877  11.057  12.630  0.00  0.00    +0.000 A 
ATOM     16  N   UNL     1      54.197  11.212  12.841  0.00  0.00    +0.000 NA
ATOM     17  C   UNL     1      54.616  11.097  14.111  0.00  0.00    +0.000 A 
ATOM     18  N   UNL     1      53.847  10.851  15.181  0.00  0.00    +0.000 NA
ENDBRANCH  10  13
ENDBRANCH   8   9
ENDBRANCH   5   8
ENDBRANCH   1   2
BRANCH   1  19
ATOM     19  N   UNL     1      49.966   3.270  16.985  0.00  0.00    +0.000 NA
ATOM     20  H   UNL     1      50.540   3.909  16.426  0.00  0.00    +0.000 HD
ATOM     21  H   UNL     1      49.739   2.508  16.337  0.00  0.00    +0.000 HD
ENDBRANCH   1  19
BRANCH   1  22
ATOM     22  C   UNL     1      47.578   3.436  16.367  0.00  0.00    +0.000 C 
BRANCH  22  23
ATOM     23  N   UNL     1      46.972   4.426  15.486  0.00  0.00    +0.000 N 
ATOM     24  C   UNL     1      46.701   4.169  14.166  0.00  0.00    +0.000 C 
ATOM     25  O   UNL     1      46.899   3.076  13.647  0.00  0.00    +0.000 OA
ATOM     26  H   UNL     1      46.740   5.330  15.877  0.00  0.00    +0.000 HD
BRANCH  24  27
ATOM     27  C   UNL     1      46.060   5.266  13.433  0.00  0.00    +0.000 A 
ATOM     28  C   UNL     1      46.706   6.483  13.278  0.00  0.00    +0.000 A 
ATOM     29  S   UNL     1      45.842   7.586  12.299  0.00  0.00    +0.000 S 
ATOM     30  C   UNL     1      44.554   6.490  12.104  0.00  0.00    +0.000 A 
ATOM     31  N   UNL     1      43.469   6.799  11.341  0.00  0.00    +0.000 NA
ATOM     32  C   UNL     1      42.559   5.886  11.313  0.00  0.00    +0.000 A 
ATOM     33  N   UNL     1      42.625   4.694  11.988  0.00  0.00    +0.000 N 
ATOM     34  C   UNL     1      43.688   4.345  12.786  0.00  0.00    +0.000 A 
ATOM     35  O   UNL     1      43.698   3.285  13.402  0.00  0.00    +0.000 OA
ATOM     36  C   UNL     1      44.765   5.315  12.803  0.00  0.00    +0.000 A 
ATOM     37  H   UNL     1      41.865   4.032  11.949  0.00  0.00    +0.000 HD
ENDBRANCH  24  27
ENDBRANCH  22  23
ENDBRANCH   1  22
TORSDOF 8
ENDMDL
MODEL 8
REMARK VINA RESULT:    -6.126      3.948      9.982
REMARK INTER + INTRA:         -10.024
REMARK INTER:                  -8.742
REMARK INTRA:                  -1.282
REMARK UNBOUND:                -1.213
REMARK  Name = 
REMARK  8 active torsions:
REMARK  status: ('A' for Active; 'I' for Inactive)
REMARK    1  A    between atoms: N_1  and  C_2
REMARK    2  A    between atoms: C_2  and  C_3
REMARK    3  A    between atoms: C_2  and  C_17
REMARK    4  A    between atoms: C_3  and  N_4
REMARK    5  A    between atoms: C_5  and  C_7
REMARK    6  A    between atoms: C_20  and  C_21
REMARK    7  A    between atoms: C_21  and  N_22
REMARK    8  A    between atoms: C_23  and  C_25
REMARK                            x       y       z     vdW  Elec       q    Type
REMARK                         _______ _______ _______ _____ _____    ______ ____
ROOT
ATOM      1  C   UNL     1      47.706   4.000  17.921  0.00  0.00    +0.000 C 
ENDROOT
BRANCH   1   2
ATOM      2  C   UNL     1      47.911   5.518  18.031  0.00  0.00    +0.000 A 
ATOM      3  C   UNL     1      47.349   6.264  19.063  0.00  0.00    +0.000 A 
ATOM      4  C   UNL     1      47.516   7.649  19.079  0.00  0.00    +0.000 A 
ATOM      5  C   UNL     1      48.281   8.273  18.094  0.00  0.00    +0.000 A 
ATOM      6  C   UNL     1      48.864   7.453  17.139  0.00  0.00    +0.000 A 
ATOM      7  N   UNL     1      48.693   6.108  17.081  0.00  0.00    +0.000 NA
BRANCH   5   8
ATOM      8  C   UNL     1      48.432   9.764  18.056  0.00  0.00    +0.000 C 
BRANCH   8   9
ATOM      9  N   UNL     1      49.815  10.162  17.942  0.00  0.00    +0.000 N 
ATOM     10  C   UNL     1      50.581  10.431  19.058  0.00  0.00    +0.000 C 
ATOM     11  O   UNL     1      50.145  10.375  20.203  0.00  0.00    +0.000 OA
ATOM     12  H   UNL     1      50.285  10.172  17.041  0.00  0.00    +0.000 HD
BRANCH  10  13
ATOM     13  C   UNL     1      52.006  10.803  18.788  0.00  0.00    +0.000 A 
ATOM     14  C   UNL     1      52.377  11.148  17.503  0.00  0.00    +0.000 A 
ATOM     15  C   UNL     1      53.701  11.468  17.338  0.00  0.00    +0.000 A 
ATOM     16  N   UNL     1      54.593  11.448  18.346  0.00  0.00    +0.000 NA
ATOM     17  C   UNL     1      54.122  11.099  19.554  0.00  0.00    +0.000 A 
ATOM     18  N   UNL     1      52.854  10.777  19.848  0.00  0.00    +0.000 NA
ENDBRANCH  10  13
ENDBRANCH   8   9
ENDBRANCH   5   8
ENDBRANCH   1   2
BRANCH   1  19
ATOM     19  N   UNL     1      48.838   3.255  18.525  0.00  0.00    +0.000 NA
ATOM     20  H   UNL     1      49.592   3.274  17.832  0.00  0.00    +0.000 HD
ATOM     21  H   UNL     1      48.567   2.267  18.572  0.00  0.00    +0.000 HD
ENDBRANCH   1  19
BRANCH   1  22
ATOM     22  C   UNL     1      47.464   3.466  16.481  0.00  0.00    +0.000 C 
BRANCH  22  23
ATOM     23  N   UNL     1      46.857   4.434  15.578  0.00  0.00    +0.000 N 
ATOM     24  C   UNL     1      46.781   4.233  14.223  0.00  0.00    +0.000 C 
ATOM     25  O   UNL     1      47.169   3.203  13.682  0.00  0.00    +0.000 OA
ATOM     26  H   UNL     1      46.474   5.281  15.979  0.00  0.00    +0.000 HD
BRANCH  24  27
ATOM     27  C   UNL     1      46.109   5.294  13.467  0.00  0.00    +0.000 A 
ATOM     28  C   UNL     1      46.731   6.517  13.263  0.00  0.00    +0.000 A 
ATOM     29  S   UNL     1      45.832   7.573  12.265  0.00  0.00    +0.000 S 
ATOM     30  C   UNL     1      44.560   6.451  12.127  0.00  0.00    +0.000 A 
ATOM     31  N   UNL     1      43.456   6.717  11.374  0.00  0.00    +0.000 NA
ATOM     32  C   UNL     1      42.563   5.789  11.390  0.00  0.00    +0.000 A 
ATOM     33  N   UNL     1      42.660   4.620  12.101  0.00  0.00    +0.000 N 
ATOM     34  C   UNL     1      43.743   4.314  12.891  0.00  0.00    +0.000 A 
ATOM     35  O   UNL     1      43.781   3.275  13.540  0.00  0.00    +0.000 OA
ATOM     36  C   UNL     1      44.803   5.303  12.859  0.00  0.00    +0.000 A 
ATOM     37  H   UNL     1      41.911   3.945  12.097  0.00  0.00    +0.000 HD
ENDBRANCH  24  27
ENDBRANCH  22  23
ENDBRANCH   1  22
TORSDOF 8
ENDMDL
