MODEL 1
REMARK VINA RESULT:    -7.271      0.000      0.000
REMARK INTER + INTRA:         -12.492
REMARK INTER:                 -11.309
REMARK INTRA:                  -1.183
REMARK UNBOUND:                -1.183
REMARK  Name = 
REMARK  10 active torsions:
REMARK  status: ('A' for Active; 'I' for Inactive)
REMARK    1  A    between atoms: N_1  and  C_2
REMARK    2  A    between atoms: C_2  and  C_3
REMARK    3  A    between atoms: C_3  and  N_4
REMARK    4  A    between atoms: N_4  and  C_5
REMARK    5  A    between atoms: C_5  and  C_6
REMARK    6  A    between atoms: C_9  and  C_10
REMARK    7  A    between atoms: C_10  and  C_11
REMARK    8  A    between atoms: C_14  and  C_15
REMARK    9  A    between atoms: C_15  and  N_16
REMARK   10  A    between atoms: C_17  and  C_19
REMARK                            x       y       z     vdW  Elec       q    Type
REMARK                         _______ _______ _______ _____ _____    ______ ____
ROOT
ATOM      1  C   UNL     1      45.968   6.469  13.001  0.00  0.00    +0.000 A 
ATOM      2  C   UNL     1      46.811   5.546  13.616  0.00  0.00    +0.000 A 
ATOM      3  C   UNL     1      47.928   6.011  14.309  0.00  0.00    +0.000 A 
ATOM      4  C   UNL     1      48.170   7.384  14.392  0.00  0.00    +0.000 A 
ATOM      5  C   UNL     1      47.302   8.225  13.707  0.00  0.00    +0.000 A 
ATOM      6  N   UNL     1      46.217   7.802  13.020  0.00  0.00    +0.000 NA
ENDROOT
BRANCH   1   7
ATOM      7  C   UNL     1      44.682   6.023  12.345  0.00  0.00    +0.000 C 
BRANCH   7  11
ATOM      8  C   UNL     1      45.202   3.413   9.008  0.00  0.00    +0.000 A 
ATOM      9  C   UNL     1      45.746   4.693   8.938  0.00  0.00    +0.000 A 
ATOM     10  C   UNL     1      45.592   5.553  10.024  0.00  0.00    +0.000 A 
ATOM     11  C   UNL     1      44.895   5.124  11.154  0.00  0.00    +0.000 A 
ATOM     12  C   UNL     1      44.386   3.828  11.133  0.00  0.00    +0.000 A 
ATOM     13  N   UNL     1      44.525   2.969  10.096  0.00  0.00    +0.000 NA
BRANCH   8  14
ATOM     14  C   UNL     1      45.410   2.434   7.868  0.00  0.00    +0.000 C 
BRANCH  14  15
ATOM     15  N   UNL     1      46.075   1.172   8.254  0.00  0.00    +0.000 NA
ATOM     16  H   UNL     1      46.375   1.294   9.226  0.00  0.00    +0.000 HD
BRANCH  15  17
ATOM     17  C   UNL     1      47.313   0.937   7.485  0.00  0.00    +0.000 C 
BRANCH  17  18
ATOM     18  C   UNL     1      47.888   2.205   6.825  0.00  0.00    +0.000 C 
BRANCH  18  19
ATOM     19  N   UNL     1      48.427   1.911   5.491  0.00  0.00    +0.000 NA
ATOM     20  H   UNL     1      49.182   2.567   5.295  0.00  0.00    +0.000 HD
ATOM     21  H   UNL     1      47.703   2.099   4.797  0.00  0.00    +0.000 HD
ENDBRANCH  18  19
ENDBRANCH  17  18
ENDBRANCH  15  17
ENDBRANCH  14  15
ENDBRANCH   8  14
ENDBRANCH   7  11
ENDBRANCH   1   7
BRANCH   4  22
ATOM     22  C   UNL     1      49.324   7.939  15.169  0.00  0.00    +0.000 C 
BRANCH  22  23
ATOM     23  N   UNL     1      50.193   6.895  15.644  0.00  0.00    +0.000 N 
ATOM     24  C   UNL     1      50.177   6.505  16.958  0.00  0.00    +0.000 C 
ATOM     25  O   UNL     1      49.371   6.967  17.762  0.00  0.00    +0.000 OA
ATOM     26  H   UNL     1      51.002   6.668  15.071  0.00  0.00    +0.000 HD
BRANCH  24  27
ATOM     27  C   UNL     1      51.135   5.463  17.345  0.00  0.00    +0.000 A 
ATOM     28  C   UNL     1      52.405   5.824  17.774  0.00  0.00    +0.000 A 
ATOM     29  S   UNL     1      53.373   4.500  18.239  0.00  0.00    +0.000 S 
ATOM     30  C   UNL     1      52.148   3.392  17.833  0.00  0.00    +0.000 A 
ATOM     31  N   UNL     1      52.342   2.054  17.975  0.00  0.00    +0.000 NA
ATOM     32  C   UNL     1      51.341   1.326  17.599  0.00  0.00    +0.000 A 
ATOM     33  N   UNL     1      50.163   1.817  17.099  0.00  0.00    +0.000 N 
ATOM     34  C   UNL     1      49.913   3.162  16.966  0.00  0.00    +0.000 A 
ATOM     35  O   UNL     1      48.832   3.574  16.554  0.00  0.00    +0.000 OA
ATOM     36  C   UNL     1      51.009   4.024  17.364  0.00  0.00    +0.000 A 
ATOM     37  H   UNL     1      49.418   1.194  16.828  0.00  0.00    +0.000 HD
ENDBRANCH  24  27
ENDBRANCH  22  23
ENDBRANCH   4  22
TORSDOF 10
ENDMDL
MODEL 2
REMARK VINA RESULT:    -7.027      2.013      2.286
REMARK INTER + INTRA:         -12.113
REMARK INTER:                 -10.903
REMARK INTRA:                  -1.210
REMARK UNBOUND:                -1.183
REMARK  Name = 
REMARK  10 active torsions:
REMARK  status: ('A' for Active; 'I' for Inactive)
REMARK    1  A    between atoms: N_1  and  C_2
REMARK    2  A    between atoms: C_2  and  C_3
REMARK    3  A    between atoms: C_3  and  N_4
REMARK    4  A    between atoms: N_4  and  C_5
REMARK    5  A    between atoms: C_5  and  C_6
REMARK    6  A    between atoms: C_9  and  C_10
REMARK    7  A    between atoms: C_10  and  C_11
REMARK    8  A    between atoms: C_14  and  C_15
REMARK    9  A    between atoms: C_15  and  N_16
REMARK   10  A    between atoms: C_17  and  C_19
REMARK                            x       y       z     vdW  Elec       q    Type
REMARK                         _______ _______ _______ _____ _____    ______ ____
ROOT
ATOM      1  C   UNL     1      45.379   6.592  12.855  0.00  0.00    +0.000 A 
ATOM      2  C   UNL     1      45.714   7.944  12.850  0.00  0.00    +0.000 A 
ATOM      3  C   UNL     1      46.951   8.333  13.359  0.00  0.00    +0.000 A 
ATOM      4  C   UNL     1      47.836   7.369  13.843  0.00  0.00    +0.000 A 
ATOM      5  C   UNL     1      47.397   6.051  13.853  0.00  0.00    +0.000 A 
ATOM      6  N   UNL     1      46.200   5.645  13.373  0.00  0.00    +0.000 NA
ENDROOT
BRANCH   1   7
ATOM      7  C   UNL     1      44.104   6.109  12.203  0.00  0.00    +0.000 C 
BRANCH   7  11
ATOM      8  C   UNL     1      44.639   2.977   9.353  0.00  0.00    +0.000 A 
ATOM      9  C   UNL     1      45.330   4.170   9.162  0.00  0.00    +0.000 A 
ATOM     10  C   UNL     1      45.172   5.199  10.089  0.00  0.00    +0.000 A 
ATOM     11  C   UNL     1      44.326   5.020  11.184  0.00  0.00    +0.000 A 
ATOM     12  C   UNL     1      43.676   3.793  11.292  0.00  0.00    +0.000 A 
ATOM     13  N   UNL     1      43.815   2.775  10.410  0.00  0.00    +0.000 NA
BRANCH   8  14
ATOM     14  C   UNL     1      44.842   1.818   8.395  0.00  0.00    +0.000 C 
BRANCH  14  15
ATOM     15  N   UNL     1      46.057   1.015   8.648  0.00  0.00    +0.000 NA
ATOM     16  H   UNL     1      46.645   1.578   9.269  0.00  0.00    +0.000 HD
BRANCH  15  17
ATOM     17  C   UNL     1      46.856   0.814   7.423  0.00  0.00    +0.000 C 
BRANCH  17  18
ATOM     18  C   UNL     1      47.635   2.065   6.973  0.00  0.00    +0.000 C 
BRANCH  18  19
ATOM     19  N   UNL     1      48.417   1.795   5.759  0.00  0.00    +0.000 NA
ATOM     20  H   UNL     1      48.198   2.510   5.067  0.00  0.00    +0.000 HD
ATOM     21  H   UNL     1      48.105   0.910   5.360  0.00  0.00    +0.000 HD
ENDBRANCH  18  19
ENDBRANCH  17  18
ENDBRANCH  15  17
ENDBRANCH  14  15
ENDBRANCH   8  14
ENDBRANCH   7  11
ENDBRANCH   1   7
BRANCH   4  22
ATOM     22  C   UNL     1      49.200   7.727  14.351  0.00  0.00    +0.000 C 
BRANCH  22  23
ATOM     23  N   UNL     1      49.304   7.530  15.772  0.00  0.00    +0.000 N 
ATOM     24  C   UNL     1      50.481   7.123  16.345  0.00  0.00    +0.000 C 
ATOM     25  O   UNL     1      51.510   6.988  15.688  0.00  0.00    +0.000 OA
ATOM     26  H   UNL     1      48.436   7.414  16.289  0.00  0.00    +0.000 HD
BRANCH  24  27
ATOM     27  C   UNL     1      50.464   6.909  17.797  0.00  0.00    +0.000 A 
ATOM     28  C   UNL     1      51.268   7.693  18.615  0.00  0.00    +0.000 A 
ATOM     29  S   UNL     1      51.088   7.356  20.276  0.00  0.00    +0.000 S 
ATOM     30  C   UNL     1      49.970   6.114  19.959  0.00  0.00    +0.000 A 
ATOM     31  N   UNL     1      49.427   5.388  20.973  0.00  0.00    +0.000 NA
ATOM     32  C   UNL     1      48.618   4.456  20.589  0.00  0.00    +0.000 A 
ATOM     33  N   UNL     1      48.299   4.189  19.282  0.00  0.00    +0.000 N 
ATOM     34  C   UNL     1      48.800   4.915  18.229  0.00  0.00    +0.000 A 
ATOM     35  O   UNL     1      48.464   4.680  17.072  0.00  0.00    +0.000 OA
ATOM     36  C   UNL     1      49.723   5.968  18.605  0.00  0.00    +0.000 A 
ATOM     37  H   UNL     1      47.655   3.448  19.050  0.00  0.00    +0.000 HD
ENDBRANCH  24  27
ENDBRANCH  22  23
ENDBRANCH   4  22
TORSDOF 10
ENDMDL
MODEL 3
REMARK VINA RESULT:    -6.777      5.191      6.748
REMARK INTER + INTRA:         -11.724
REMARK INTER:                 -10.130
REMARK INTRA:                  -1.594
REMARK UNBOUND:                -1.183
REMARK  Name = 
REMARK  10 active torsions:
REMARK  status: ('A' for Active; 'I' for Inactive)
REMARK    1  A    between atoms: N_1  and  C_2
REMARK    2  A    between atoms: C_2  and  C_3
REMARK    3  A    between atoms: C_3  and  N_4
REMARK    4  A    between atoms: N_4  and  C_5
REMARK    5  A    between atoms: C_5  and  C_6
REMARK    6  A    between atoms: C_9  and  C_10
REMARK    7  A    between atoms: C_10  and  C_11
REMARK    8  A    between atoms: C_14  and  C_15
REMARK    9  A    between atoms: C_15  and  N_16
REMARK   10  A    between atoms: C_17  and  C_19
REMARK                            x       y       z     vdW  Elec       q    Type
REMARK                         _______ _______ _______ _____ _____    ______ ____
ROOT
ATOM      1  C   UNL     1      47.220   7.605  12.690  0.00  0.00    +0.000 A 
ATOM      2  C   UNL     1      47.507   8.827  12.088  0.00  0.00    +0.000 A 
ATOM      3  C   UNL     1      48.837   9.158  11.836  0.00  0.00    +0.000 A 
ATOM      4  C   UNL     1      49.850   8.258  12.169  0.00  0.00    +0.000 A 
ATOM      5  C   UNL     1      49.472   7.084  12.810  0.00  0.00    +0.000 A 
ATOM      6  N   UNL     1      48.191   6.741  13.075  0.00  0.00    +0.000 NA
ENDROOT
BRANCH   1   7
ATOM      7  C   UNL     1      45.790   7.150  12.871  0.00  0.00    +0.000 C 
BRANCH   7  11
ATOM      8  C   UNL     1      44.881   3.687  10.545  0.00  0.00    +0.000 A 
ATOM      9  C   UNL     1      44.803   3.592  11.932  0.00  0.00    +0.000 A 
ATOM     10  C   UNL     1      45.088   4.716  12.704  0.00  0.00    +0.000 A 
ATOM     11  C   UNL     1      45.450   5.912  12.081  0.00  0.00    +0.000 A 
ATOM     12  C   UNL     1      45.502   5.911  10.689  0.00  0.00    +0.000 A 
ATOM     13  N   UNL     1      45.225   4.837   9.914  0.00  0.00    +0.000 NA
BRANCH   8  14
ATOM     14  C   UNL     1      44.514   2.498   9.678  0.00  0.00    +0.000 C 
BRANCH  14  15
ATOM     15  N   UNL     1      44.912   2.624   8.260  0.00  0.00    +0.000 NA
ATOM     16  H   UNL     1      44.236   2.070   7.725  0.00  0.00    +0.000 HD
BRANCH  15  17
ATOM     17  C   UNL     1      46.226   2.007   7.994  0.00  0.00    +0.000 C 
BRANCH  17  18
ATOM     18  C   UNL     1      47.173   2.891   7.158  0.00  0.00    +0.000 C 
BRANCH  18  19
ATOM     19  N   UNL     1      46.782   4.305   7.232  0.00  0.00    +0.000 NA
ATOM     20  H   UNL     1      47.436   4.789   7.847  0.00  0.00    +0.000 HD
ATOM     21  H   UNL     1      45.870   4.369   7.685  0.00  0.00    +0.000 HD
ENDBRANCH  18  19
ENDBRANCH  17  18
ENDBRANCH  15  17
ENDBRANCH  14  15
ENDBRANCH   8  14
ENDBRANCH   7  11
ENDBRANCH   1   7
BRANCH   4  22
ATOM     22  C   UNL     1      51.291   8.539  11.870  0.00  0.00    +0.000 C 
BRANCH  22  23
ATOM     23  N   UNL     1      51.654   8.091  10.552  0.00  0.00    +0.000 N 
ATOM     24  C   UNL     1      52.737   8.622   9.898  0.00  0.00    +0.000 C 
ATOM     25  O   UNL     1      53.484   9.436  10.435  0.00  0.00    +0.000 OA
ATOM     26  H   UNL     1      50.942   7.605  10.014  0.00  0.00    +0.000 HD
BRANCH  24  27
ATOM     27  C   UNL     1      52.991   8.126   8.541  0.00  0.00    +0.000 A 
ATOM     28  C   UNL     1      52.876   8.991   7.461  0.00  0.00    +0.000 A 
ATOM     29  S   UNL     1      53.260   8.273   5.964  0.00  0.00    +0.000 S 
ATOM     30  C   UNL     1      53.543   6.765   6.698  0.00  0.00    +0.000 A 
ATOM     31  N   UNL     1      53.896   5.682   5.955  0.00  0.00    +0.000 NA
ATOM     32  C   UNL     1      54.049   4.594   6.636  0.00  0.00    +0.000 A 
ATOM     33  N   UNL     1      53.883   4.493   7.993  0.00  0.00    +0.000 N 
ATOM     34  C   UNL     1      53.556   5.566   8.786  0.00  0.00    +0.000 A 
ATOM     35  O   UNL     1      53.456   5.455  10.005  0.00  0.00    +0.000 OA
ATOM     36  C   UNL     1      53.363   6.812   8.070  0.00  0.00    +0.000 A 
ATOM     37  H   UNL     1      54.023   3.612   8.465  0.00  0.00    +0.000 HD
ENDBRANCH  24  27
ENDBRANCH  22  23
ENDBRANCH   4  22
TORSDOF 10
ENDMDL
MODEL 4
REMARK VINA RESULT:    -6.661      3.540      9.115
REMARK INTER + INTRA:         -11.543
REMARK INTER:                 -10.141
REMARK INTRA:                  -1.402
REMARK UNBOUND:                -1.183
REMARK  Name = 
REMARK  10 active torsions:
REMARK  status: ('A' for Active; 'I' for Inactive)
REMARK    1  A    between atoms: N_1  and  C_2
REMARK    2  A    between atoms: C_2  and  C_3
REMARK    3  A    between atoms: C_3  and  N_4
REMARK    4  A    between atoms: N_4  and  C_5
REMARK    5  A    between atoms: C_5  and  C_6
REMARK    6  A    between atoms: C_9  and  C_10
REMARK    7  A    between atoms: C_10  and  C_11
REMARK    8  A    between atoms: C_14  and  C_15
REMARK    9  A    between atoms: C_15  and  N_16
REMARK   10  A    between atoms: C_17  and  C_19
REMARK                            x       y       z     vdW  Elec       q    Type
REMARK                         _______ _______ _______ _____ _____    ______ ____
ROOT
ATOM      1  C   UNL     1      50.113   8.202  14.586  0.00  0.00    +0.000 A 
ATOM      2  C   UNL     1      49.476   9.419  14.354  0.00  0.00    +0.000 A 
ATOM      3  C   UNL     1      48.406   9.458  13.461  0.00  0.00    +0.000 A 
ATOM      4  C   UNL     1      47.980   8.285  12.837  0.00  0.00    +0.000 A 
ATOM      5  C   UNL     1      48.707   7.129  13.094  0.00  0.00    +0.000 A 
ATOM      6  N   UNL     1      49.753   7.062  13.947  0.00  0.00    +0.000 NA
ENDROOT
BRANCH   1   7
ATOM      7  C   UNL     1      51.196   8.085  15.635  0.00  0.00    +0.000 C 
BRANCH   7  11
ATOM      8  C   UNL     1      50.132   5.394  18.773  0.00  0.00    +0.000 A 
ATOM      9  C   UNL     1      51.247   5.094  17.993  0.00  0.00    +0.000 A 
ATOM     10  C   UNL     1      51.611   5.968  16.971  0.00  0.00    +0.000 A 
ATOM     11  C   UNL     1      50.857   7.120  16.742  0.00  0.00    +0.000 A 
ATOM     12  C   UNL     1      49.759   7.336  17.572  0.00  0.00    +0.000 A 
ATOM     13  N   UNL     1      49.385   6.508  18.575  0.00  0.00    +0.000 NA
BRANCH   8  14
ATOM     14  C   UNL     1      49.751   4.494  19.933  0.00  0.00    +0.000 C 
BRANCH  14  15
ATOM     15  N   UNL     1      48.523   3.699  19.718  0.00  0.00    +0.000 NA
ATOM     16  H   UNL     1      48.585   2.901  20.357  0.00  0.00    +0.000 HD
BRANCH  15  17
ATOM     17  C   UNL     1      48.468   3.117  18.363  0.00  0.00    +0.000 C 
BRANCH  17  18
ATOM     18  C   UNL     1      47.270   3.602  17.523  0.00  0.00    +0.000 C 
BRANCH  18  19
ATOM     19  N   UNL     1      46.683   4.823  18.091  0.00  0.00    +0.000 NA
ATOM     20  H   UNL     1      45.932   5.137  17.478  0.00  0.00    +0.000 HD
ATOM     21  H   UNL     1      47.386   5.561  18.076  0.00  0.00    +0.000 HD
ENDBRANCH  18  19
ENDBRANCH  17  18
ENDBRANCH  15  17
ENDBRANCH  14  15
ENDBRANCH   8  14
ENDBRANCH   7  11
ENDBRANCH   1   7
BRANCH   4  22
ATOM     22  C   UNL     1      46.801   8.261  11.912  0.00  0.00    +0.000 C 
BRANCH  22  23
ATOM     23  N   UNL     1      46.332   6.920  11.689  0.00  0.00    +0.000 N 
ATOM     24  C   UNL     1      45.002   6.663  11.475  0.00  0.00    +0.000 C 
ATOM     25  O   UNL     1      44.174   7.565  11.385  0.00  0.00    +0.000 OA
ATOM     26  H   UNL     1      46.942   6.160  11.980  0.00  0.00    +0.000 HD
BRANCH  24  27
ATOM     27  C   UNL     1      44.625   5.255  11.303  0.00  0.00    +0.000 A 
ATOM     28  C   UNL     1      43.909   4.609  12.302  0.00  0.00    +0.000 A 
ATOM     29  S   UNL     1      43.504   2.998  11.921  0.00  0.00    +0.000 S 
ATOM     30  C   UNL     1      44.316   3.088  10.429  0.00  0.00    +0.000 A 
ATOM     31  N   UNL     1      44.371   2.014   9.598  0.00  0.00    +0.000 NA
ATOM     32  C   UNL     1      45.047   2.211   8.513  0.00  0.00    +0.000 A 
ATOM     33  N   UNL     1      45.669   3.388   8.185  0.00  0.00    +0.000 N 
ATOM     34  C   UNL     1      45.615   4.507   8.980  0.00  0.00    +0.000 A 
ATOM     35  O   UNL     1      46.147   5.561   8.640  0.00  0.00    +0.000 OA
ATOM     36  C   UNL     1      44.876   4.336  10.216  0.00  0.00    +0.000 A 
ATOM     37  H   UNL     1      46.177   3.478   7.318  0.00  0.00    +0.000 HD
ENDBRANCH  24  27
ENDBRANCH  22  23
ENDBRANCH   4  22
TORSDOF 10
ENDMDL
MODEL 5
REMARK VINA RESULT:    -6.659      4.638      5.521
REMARK INTER + INTRA:         -11.540
REMARK INTER:                 -10.268
REMARK INTRA:                  -1.272
REMARK UNBOUND:                -1.183
REMARK  Name = 
REMARK  10 active torsions:
REMARK  status: ('A' for Active; 'I' for Inactive)
REMARK    1  A    between atoms: N_1  and  C_2
REMARK    2  A    between atoms: C_2  and  C_3
REMARK    3  A    between atoms: C_3  and  N_4
REMARK    4  A    between atoms: N_4  and  C_5
REMARK    5  A    between atoms: C_5  and  C_6
REMARK    6  A    between atoms: C_9  and  C_10
REMARK    7  A    between atoms: C_10  and  C_11
REMARK    8  A    between atoms: C_14  and  C_15
REMARK    9  A    between atoms: C_15  and  N_16
REMARK   10  A    between atoms: C_17  and  C_19
REMARK                            x       y       z     vdW  Elec       q    Type
REMARK                         _______ _______ _______ _____ _____    ______ ____
ROOT
ATOM      1  C   UNL     1      45.886   7.072  12.753  0.00  0.00    +0.000 A 
ATOM      2  C   UNL     1      47.205   6.900  13.167  0.00  0.00    +0.000 A 
ATOM      3  C   UNL     1      48.026   8.020  13.282  0.00  0.00    +0.000 A 
ATOM      4  C   UNL     1      47.512   9.288  13.004  0.00  0.00    +0.000 A 
ATOM      5  C   UNL     1      46.200   9.357  12.552  0.00  0.00    +0.000 A 
ATOM      6  N   UNL     1      45.383   8.287  12.422  0.00  0.00    +0.000 NA
ENDROOT
BRANCH   1   7
ATOM      7  C   UNL     1      44.925   5.905  12.731  0.00  0.00    +0.000 C 
BRANCH   7  11
ATOM      8  C   UNL     1      45.196   3.412   9.277  0.00  0.00    +0.000 A 
ATOM      9  C   UNL     1      45.548   4.754   9.154  0.00  0.00    +0.000 A 
ATOM     10  C   UNL     1      45.473   5.578  10.275  0.00  0.00    +0.000 A 
ATOM     11  C   UNL     1      45.045   5.051  11.495  0.00  0.00    +0.000 A 
ATOM     12  C   UNL     1      44.713   3.699  11.522  0.00  0.00    +0.000 A 
ATOM     13  N   UNL     1      44.782   2.874  10.451  0.00  0.00    +0.000 NA
BRANCH   8  14
ATOM     14  C   UNL     1      45.330   2.478   8.090  0.00  0.00    +0.000 C 
BRANCH  14  15
ATOM     15  N   UNL     1      46.005   1.197   8.387  0.00  0.00    +0.000 NA
ATOM     16  H   UNL     1      46.421   1.304   9.317  0.00  0.00    +0.000 HD
BRANCH  15  17
ATOM     17  C   UNL     1      47.136   0.938   7.475  0.00  0.00    +0.000 C 
BRANCH  17  18
ATOM     18  C   UNL     1      47.745   2.212   6.859  0.00  0.00    +0.000 C 
BRANCH  18  19
ATOM     19  N   UNL     1      48.483   1.905   5.626  0.00  0.00    +0.000 NA
ATOM     20  H   UNL     1      48.963   2.750   5.318  0.00  0.00    +0.000 HD
ATOM     21  H   UNL     1      47.813   1.678   4.892  0.00  0.00    +0.000 HD
ENDBRANCH  18  19
ENDBRANCH  17  18
ENDBRANCH  15  17
ENDBRANCH  14  15
ENDBRANCH   8  14
ENDBRANCH   7  11
ENDBRANCH   1   7
BRANCH   4  22
ATOM     22  C   UNL     1      48.335  10.530  13.165  0.00  0.00    +0.000 C 
BRANCH  22  23
ATOM     23  N   UNL     1      49.665  10.353  12.648  0.00  0.00    +0.000 N 
ATOM     24  C   UNL     1      49.953  10.614  11.332  0.00  0.00    +0.000 C 
ATOM     25  O   UNL     1      49.115  11.082  10.566  0.00  0.00    +0.000 OA
ATOM     26  H   UNL     1      50.298   9.766  13.185  0.00  0.00    +0.000 HD
BRANCH  24  27
ATOM     27  C   UNL     1      51.331  10.357  10.898  0.00  0.00    +0.000 A 
ATOM     28  C   UNL     1      52.173  11.425  10.620  0.00  0.00    +0.000 A 
ATOM     29  S   UNL     1      53.752  10.956  10.185  0.00  0.00    +0.000 S 
ATOM     30  C   UNL     1      53.354   9.307  10.300  0.00  0.00    +0.000 A 
ATOM     31  N   UNL     1      54.276   8.346  10.027  0.00  0.00    +0.000 NA
ATOM     32  C   UNL     1      53.830   7.135  10.123  0.00  0.00    +0.000 A 
ATOM     33  N   UNL     1      52.546   6.802  10.471  0.00  0.00    +0.000 N 
ATOM     34  C   UNL     1      51.591   7.739  10.784  0.00  0.00    +0.000 A 
ATOM     35  O   UNL     1      50.461   7.410  11.133  0.00  0.00    +0.000 OA
ATOM     36  C   UNL     1      52.037   9.115  10.682  0.00  0.00    +0.000 A 
ATOM     37  H   UNL     1      52.263   5.836  10.533  0.00  0.00    +0.000 HD
ENDBRANCH  24  27
ENDBRANCH  22  23
ENDBRANCH   4  22
TORSDOF 10
ENDMDL
MODEL 6
REMARK VINA RESULT:    -6.603      3.490      9.339
REMARK INTER + INTRA:         -11.452
REMARK INTER:                 -10.418
REMARK INTRA:                  -1.034
REMARK UNBOUND:                -1.183
REMARK  Name = 
REMARK  10 active torsions:
REMARK  status: ('A' for Active; 'I' for Inactive)
REMARK    1  A    between atoms: N_1  and  C_2
REMARK    2  A    between atoms: C_2  and  C_3
REMARK    3  A    between atoms: C_3  and  N_4
REMARK    4  A    between atoms: N_4  and  C_5
REMARK    5  A    between atoms: C_5  and  C_6
REMARK    6  A    between atoms: C_9  and  C_10
REMARK    7  A    between atoms: C_10  and  C_11
REMARK    8  A    between atoms: C_14  and  C_15
REMARK    9  A    between atoms: C_15  and  N_16
REMARK   10  A    between atoms: C_17  and  C_19
REMARK                            x       y       z     vdW  Elec       q    Type
REMARK                         _______ _______ _______ _____ _____    ______ ____
ROOT
ATOM      1  C   UNL     1      49.629   5.484  16.983  0.00  0.00    +0.000 A 
ATOM      2  C   UNL     1      50.342   6.511  16.369  0.00  0.00    +0.000 A 
ATOM      3  C   UNL     1      49.815   7.106  15.224  0.00  0.00    +0.000 A 
ATOM      4  C   UNL     1      48.582   6.681  14.727  0.00  0.00    +0.000 A 
ATOM      5  C   UNL     1      47.967   5.619  15.377  0.00  0.00    +0.000 A 
ATOM      6  N   UNL     1      48.458   5.017  16.484  0.00  0.00    +0.000 NA
ENDROOT
BRANCH   1   7
ATOM      7  C   UNL     1      50.098   4.893  18.293  0.00  0.00    +0.000 C 
BRANCH   7  11
ATOM      8  C   UNL     1      52.610   1.489  17.731  0.00  0.00    +0.000 A 
ATOM      9  C   UNL     1      53.135   2.596  18.392  0.00  0.00    +0.000 A 
ATOM     10  C   UNL     1      52.324   3.712  18.591  0.00  0.00    +0.000 A 
ATOM     11  C   UNL     1      51.009   3.704  18.123  0.00  0.00    +0.000 A 
ATOM     12  C   UNL     1      50.572   2.553  17.472  0.00  0.00    +0.000 A 
ATOM     13  N   UNL     1      51.336   1.453  17.270  0.00  0.00    +0.000 NA
BRANCH   8  14
ATOM     14  C   UNL     1      53.450   0.237  17.557  0.00  0.00    +0.000 C 
BRANCH  14  15
ATOM     15  N   UNL     1      53.082  -0.880  18.452  0.00  0.00    +0.000 NA
ATOM     16  H   UNL     1      52.661  -0.453  19.283  0.00  0.00    +0.000 HD
BRANCH  15  17
ATOM     17  C   UNL     1      54.264  -1.615  18.942  0.00  0.00    +0.000 C 
BRANCH  17  18
ATOM     18  C   UNL     1      53.941  -3.007  19.519  0.00  0.00    +0.000 C 
BRANCH  18  19
ATOM     19  N   UNL     1      52.946  -3.705  18.694  0.00  0.00    +0.000 NA
ATOM     20  H   UNL     1      53.151  -4.703  18.714  0.00  0.00    +0.000 HD
ATOM     21  H   UNL     1      53.062  -3.413  17.724  0.00  0.00    +0.000 HD
ENDBRANCH  18  19
ENDBRANCH  17  18
ENDBRANCH  15  17
ENDBRANCH  14  15
ENDBRANCH   8  14
ENDBRANCH   7  11
ENDBRANCH   1   7
BRANCH   4  22
ATOM     22  C   UNL     1      47.944   7.324  13.533  0.00  0.00    +0.000 C 
BRANCH  22  23
ATOM     23  N   UNL     1      47.271   6.356  12.709  0.00  0.00    +0.000 N 
ATOM     24  C   UNL     1      46.287   6.736  11.832  0.00  0.00    +0.000 C 
ATOM     25  O   UNL     1      45.998   7.917  11.654  0.00  0.00    +0.000 OA
ATOM     26  H   UNL     1      47.328   5.382  12.996  0.00  0.00    +0.000 HD
BRANCH  24  27
ATOM     27  C   UNL     1      45.634   5.664  11.073  0.00  0.00    +0.000 A 
ATOM     28  C   UNL     1      45.733   5.645   9.688  0.00  0.00    +0.000 A 
ATOM     29  S   UNL     1      44.968   4.305   8.965  0.00  0.00    +0.000 S 
ATOM     30  C   UNL     1      44.431   3.728  10.473  0.00  0.00    +0.000 A 
ATOM     31  N   UNL     1      43.682   2.597  10.561  0.00  0.00    +0.000 NA
ATOM     32  C   UNL     1      43.316   2.291  11.763  0.00  0.00    +0.000 A 
ATOM     33  N   UNL     1      43.636   3.013  12.883  0.00  0.00    +0.000 N 
ATOM     34  C   UNL     1      44.414   4.145  12.844  0.00  0.00    +0.000 A 
ATOM     35  O   UNL     1      44.720   4.748  13.870  0.00  0.00    +0.000 OA
ATOM     36  C   UNL     1      44.844   4.538  11.517  0.00  0.00    +0.000 A 
ATOM     37  H   UNL     1      43.322   2.716  13.795  0.00  0.00    +0.000 HD
ENDBRANCH  24  27
ENDBRANCH  22  23
ENDBRANCH   4  22
TORSDOF 10
ENDMDL
MODEL 7
REMARK VINA RESULT:    -6.465      2.095      3.053
REMARK INTER + INTRA:         -11.239
REMARK INTER:                  -9.879
REMARK INTRA:                  -1.360
REMARK UNBOUND:                -1.183
REMARK  Name = 
REMARK  10 active torsions:
REMARK  status: ('A' for Active; 'I' for Inactive)
REMARK    1  A    between atoms: N_1  and  C_2
REMARK    2  A    between atoms: C_2  and  C_3
REMARK    3  A    between atoms: C_3  and  N_4
REMARK    4  A    between atoms: N_4  and  C_5
REMARK    5  A    between atoms: C_5  and  C_6
REMARK    6  A    between atoms: C_9  and  C_10
REMARK    7  A    between atoms: C_10  and  C_11
REMARK    8  A    between atoms: C_14  and  C_15
REMARK    9  A    between atoms: C_15  and  N_16
REMARK   10  A    between atoms: C_17  and  C_19
REMARK                            x       y       z     vdW  Elec       q    Type
REMARK                         _______ _______ _______ _____ _____    ______ ____
ROOT
ATOM      1  C   UNL     1      48.258   7.976  13.742  0.00  0.00    +0.000 A 
ATOM      2  C   UNL     1      47.899   8.819  14.790  0.00  0.00    +0.000 A 
ATOM      3  C   UNL     1      48.757   8.938  15.883  0.00  0.00    +0.000 A 
ATOM      4  C   UNL     1      49.962   8.233  15.898  0.00  0.00    +0.000 A 
ATOM      5  C   UNL     1      50.212   7.380  14.830  0.00  0.00    +0.000 A 
ATOM      6  N   UNL     1      49.395   7.238  13.762  0.00  0.00    +0.000 NA
ENDROOT
BRANCH   1   7
ATOM      7  C   UNL     1      47.422   7.909  12.484  0.00  0.00    +0.000 C 
BRANCH   7  11
ATOM      8  C   UNL     1      44.480   4.817  12.439  0.00  0.00    +0.000 A 
ATOM      9  C   UNL     1      45.550   4.700  13.323  0.00  0.00    +0.000 A 
ATOM     10  C   UNL     1      46.514   5.705  13.355  0.00  0.00    +0.000 A 
ATOM     11  C   UNL     1      46.395   6.805  12.504  0.00  0.00    +0.000 A 
ATOM     12  C   UNL     1      45.292   6.836  11.654  0.00  0.00    +0.000 A 
ATOM     13  N   UNL     1      44.339   5.876  11.605  0.00  0.00    +0.000 NA
BRANCH   8  14
ATOM     14  C   UNL     1      43.383   3.769  12.429  0.00  0.00    +0.000 C 
BRANCH  14  15
ATOM     15  N   UNL     1      43.012   3.280  11.084  0.00  0.00    +0.000 NA
ATOM     16  H   UNL     1      42.276   2.583  11.228  0.00  0.00    +0.000 HD
BRANCH  15  17
ATOM     17  C   UNL     1      44.119   2.556  10.430  0.00  0.00    +0.000 C 
BRANCH  17  18
ATOM     18  C   UNL     1      44.520   3.133   9.058  0.00  0.00    +0.000 C 
BRANCH  18  19
ATOM     19  N   UNL     1      43.895   4.443   8.831  0.00  0.00    +0.000 NA
ATOM     20  H   UNL     1      43.088   4.315   8.220  0.00  0.00    +0.000 HD
ATOM     21  H   UNL     1      44.548   5.032   8.315  0.00  0.00    +0.000 HD
ENDBRANCH  18  19
ENDBRANCH  17  18
ENDBRANCH  15  17
ENDBRANCH  14  15
ENDBRANCH   8  14
ENDBRANCH   7  11
ENDBRANCH   1   7
BRANCH   4  22
ATOM     22  C   UNL     1      50.945   8.367  17.021  0.00  0.00    +0.000 C 
BRANCH  22  23
ATOM     23  N   UNL     1      51.654   7.136  17.252  0.00  0.00    +0.000 N 
ATOM     24  C   UNL     1      51.212   6.230  18.181  0.00  0.00    +0.000 C 
ATOM     25  O   UNL     1      50.158   6.389  18.792  0.00  0.00    +0.000 OA
ATOM     26  H   UNL     1      52.620   7.091  16.938  0.00  0.00    +0.000 HD
BRANCH  24  27
ATOM     27  C   UNL     1      52.034   5.029  18.369  0.00  0.00    +0.000 A 
ATOM     28  C   UNL     1      53.282   5.138  18.968  0.00  0.00    +0.000 A 
ATOM     29  S   UNL     1      54.081   3.646  19.162  0.00  0.00    +0.000 S 
ATOM     30  C   UNL     1      52.812   2.805  18.404  0.00  0.00    +0.000 A 
ATOM     31  N   UNL     1      52.875   1.459  18.225  0.00  0.00    +0.000 NA
ATOM     32  C   UNL     1      51.858   0.953  17.607  0.00  0.00    +0.000 A 
ATOM     33  N   UNL     1      50.782   1.674  17.157  0.00  0.00    +0.000 N 
ATOM     34  C   UNL     1      50.662   3.030  17.342  0.00  0.00    +0.000 A 
ATOM     35  O   UNL     1      49.667   3.642  16.965  0.00  0.00    +0.000 OA
ATOM     36  C   UNL     1      51.783   3.649  18.022  0.00  0.00    +0.000 A 
ATOM     37  H   UNL     1      50.016   1.216  16.686  0.00  0.00    +0.000 HD
ENDBRANCH  24  27
ENDBRANCH  22  23
ENDBRANCH   4  22
TORSDOF 10
ENDMDL
MODEL 8
REMARK VINA RESULT:    -6.393      3.676      4.830
REMARK INTER + INTRA:         -11.126
REMARK INTER:                  -9.805
REMARK INTRA:                  -1.321
REMARK UNBOUND:                -1.183
REMARK  Name = 
REMARK  10 active torsions:
REMARK  status: ('A' for Active; 'I' for Inactive)
REMARK    1  A    between atoms: N_1  and  C_2
REMARK    2  A    between atoms: C_2  and  C_3
REMARK    3  A    between atoms: C_3  and  N_4
REMARK    4  A    between atoms: N_4  and  C_5
REMARK    5  A    between atoms: C_5  and  C_6
REMARK    6  A    between atoms: C_9  and  C_10
REMARK    7  A    between atoms: C_10  and  C_11
REMARK    8  A    between atoms: C_14  and  C_15
REMARK    9  A    between atoms: C_15  and  N_16
REMARK   10  A    between atoms: C_17  and  C_19
REMARK                            x       y       z     vdW  Elec       q    Type
REMARK                         _______ _______ _______ _____ _____    ______ ____
ROOT
ATOM      1  C   UNL     1      45.880   6.733  13.019  0.00  0.00    +0.000 A 
ATOM      2  C   UNL     1      46.895   5.926  13.527  0.00  0.00    +0.000 A 
ATOM      3  C   UNL     1      48.027   6.530  14.073  0.00  0.00    +0.000 A 
ATOM      4  C   UNL     1      48.114   7.923  14.121  0.00  0.00    +0.000 A 
ATOM      5  C   UNL     1      47.074   8.644  13.547  0.00  0.00    +0.000 A 
ATOM      6  N   UNL     1      45.969   8.086  13.004  0.00  0.00    +0.000 NA
ENDROOT
BRANCH   1   7
ATOM      7  C   UNL     1      44.584   6.128  12.531  0.00  0.00    +0.000 C 
BRANCH   7  11
ATOM      8  C   UNL     1      45.176   3.415   9.289  0.00  0.00    +0.000 A 
ATOM      9  C   UNL     1      44.647   2.919  10.479  0.00  0.00    +0.000 A 
ATOM     10  C   UNL     1      44.440   3.795  11.543  0.00  0.00    +0.000 A 
ATOM     11  C   UNL     1      44.768   5.145  11.403  0.00  0.00    +0.000 A 
ATOM     12  C   UNL     1      45.292   5.548  10.178  0.00  0.00    +0.000 A 
ATOM     13  N   UNL     1      45.499   4.721   9.126  0.00  0.00    +0.000 NA
BRANCH   8  14
ATOM     14  C   UNL     1      45.352   2.497   8.094  0.00  0.00    +0.000 C 
BRANCH  14  15
ATOM     15  N   UNL     1      45.973   1.192   8.406  0.00  0.00    +0.000 NA
ATOM     16  H   UNL     1      46.407   1.297   9.327  0.00  0.00    +0.000 HD
BRANCH  15  17
ATOM     17  C   UNL     1      47.078   0.867   7.483  0.00  0.00    +0.000 C 
BRANCH  17  18
ATOM     18  C   UNL     1      47.822   2.102   6.940  0.00  0.00    +0.000 C 
BRANCH  18  19
ATOM     19  N   UNL     1      48.514   1.794   5.682  0.00  0.00    +0.000 NA
ATOM     20  H   UNL     1      49.123   2.577   5.447  0.00  0.00    +0.000 HD
ATOM     21  H   UNL     1      47.824   1.739   4.933  0.00  0.00    +0.000 HD
ENDBRANCH  18  19
ENDBRANCH  17  18
ENDBRANCH  15  17
ENDBRANCH  14  15
ENDBRANCH   8  14
ENDBRANCH   7  11
ENDBRANCH   1   7
BRANCH   4  22
ATOM     22  C   UNL     1      49.282   8.623  14.746  0.00  0.00    +0.000 C 
BRANCH  22  23
ATOM     23  N   UNL     1      50.370   8.768  13.817  0.00  0.00    +0.000 N 
ATOM     24  C   UNL     1      51.628   8.318  14.127  0.00  0.00    +0.000 C 
ATOM     25  O   UNL     1      51.860   7.705  15.166  0.00  0.00    +0.000 OA
ATOM     26  H   UNL     1      50.260   9.454  13.076  0.00  0.00    +0.000 HD
BRANCH  24  27
ATOM     27  C   UNL     1      52.675   8.556  13.127  0.00  0.00    +0.000 A 
ATOM     28  C   UNL     1      53.871   9.145  13.512  0.00  0.00    +0.000 A 
ATOM     29  S   UNL     1      54.999   9.299  12.243  0.00  0.00    +0.000 S 
ATOM     30  C   UNL     1      53.909   8.631  11.121  0.00  0.00    +0.000 A 
ATOM     31  N   UNL     1      54.252   8.496   9.812  0.00  0.00    +0.000 NA
ATOM     32  C   UNL     1      53.318   8.004   9.063  0.00  0.00    +0.000 A 
ATOM     33  N   UNL     1      52.076   7.633   9.509  0.00  0.00    +0.000 N 
ATOM     34  C   UNL     1      51.698   7.725  10.827  0.00  0.00    +0.000 A 
ATOM     35  O   UNL     1      50.592   7.346  11.204  0.00  0.00    +0.000 OA
ATOM     36  C   UNL     1      52.706   8.281  11.708  0.00  0.00    +0.000 A 
ATOM     37  H   UNL     1      51.393   7.251   8.872  0.00  0.00    +0.000 HD
ENDBRANCH  24  27
ENDBRANCH  22  23
ENDBRANCH   4  22
TORSDOF 10
ENDMDL
MODEL 9
REMARK VINA RESULT:    -6.323      2.043      2.848
REMARK INTER + INTRA:         -11.018
REMARK INTER:                 -10.667
REMARK INTRA:                  -0.350
REMARK UNBOUND:                -1.183
REMARK  Name = 
REMARK  10 active torsions:
REMARK  status: ('A' for Active; 'I' for Inactive)
REMARK    1  A    between atoms: N_1  and  C_2
REMARK    2  A    between atoms: C_2  and  C_3
REMARK    3  A    between atoms: C_3  and  N_4
REMARK    4  A    between atoms: N_4  and  C_5
REMARK    5  A    between atoms: C_5  and  C_6
REMARK    6  A    between atoms: C_9  and  C_10
REMARK    7  A    between atoms: C_10  and  C_11
REMARK    8  A    between atoms: C_14  and  C_15
REMARK    9  A    between atoms: C_15  and  N_16
REMARK   10  A    between atoms: C_17  and  C_19
REMARK                            x       y       z     vdW  Elec       q    Type
REMARK                         _______ _______ _______ _____ _____    ______ ____
ROOT
ATOM      1  C   UNL     1      47.272   5.729  14.305  0.00  0.00    +0.000 A 
ATOM      2  C   UNL     1      46.785   4.503  14.752  0.00  0.00    +0.000 A 
ATOM      3  C   UNL     1      47.361   3.921  15.880  0.00  0.00    +0.000 A 
ATOM      4  C   UNL     1      48.392   4.580  16.550  0.00  0.00    +0.000 A 
ATOM      5  C   UNL     1      48.844   5.774  16.003  0.00  0.00    +0.000 A 
ATOM      6  N   UNL     1      48.311   6.358  14.906  0.00  0.00    +0.000 NA
ENDROOT
BRANCH   1   7
ATOM      7  C   UNL     1      46.600   6.457  13.163  0.00  0.00    +0.000 C 
BRANCH   7  11
ATOM      8  C   UNL     1      44.999   3.898  10.145  0.00  0.00    +0.000 A 
ATOM      9  C   UNL     1      44.948   3.471  11.469  0.00  0.00    +0.000 A 
ATOM     10  C   UNL     1      45.459   4.299  12.466  0.00  0.00    +0.000 A 
ATOM     11  C   UNL     1      46.014   5.534  12.125  0.00  0.00    +0.000 A 
ATOM     12  C   UNL     1      46.022   5.875  10.774  0.00  0.00    +0.000 A 
ATOM     13  N   UNL     1      45.528   5.093   9.786  0.00  0.00    +0.000 NA
BRANCH   8  14
ATOM     14  C   UNL     1      44.392   3.045   9.046  0.00  0.00    +0.000 C 
BRANCH  14  15
ATOM     15  N   UNL     1      45.126   1.793   8.763  0.00  0.00    +0.000 NA
ATOM     16  H   UNL     1      45.419   1.424   9.672  0.00  0.00    +0.000 HD
BRANCH  15  17
ATOM     17  C   UNL     1      46.373   2.036   8.013  0.00  0.00    +0.000 C 
BRANCH  17  18
ATOM     18  C   UNL     1      46.202   2.974   6.803  0.00  0.00    +0.000 C 
BRANCH  18  19
ATOM     19  N   UNL     1      46.923   4.238   7.004  0.00  0.00    +0.000 NA
ATOM     20  H   UNL     1      46.509   4.946   6.399  0.00  0.00    +0.000 HD
ATOM     21  H   UNL     1      47.884   4.121   6.685  0.00  0.00    +0.000 HD
ENDBRANCH  18  19
ENDBRANCH  17  18
ENDBRANCH  15  17
ENDBRANCH  14  15
ENDBRANCH   8  14
ENDBRANCH   7  11
ENDBRANCH   1   7
BRANCH   4  22
ATOM     22  C   UNL     1      49.009   4.025  17.799  0.00  0.00    +0.000 C 
BRANCH  22  23
ATOM     23  N   UNL     1      50.355   3.575  17.568  0.00  0.00    +0.000 N 
ATOM     24  C   UNL     1      51.387   3.993  18.370  0.00  0.00    +0.000 C 
ATOM     25  O   UNL     1      51.196   4.696  19.358  0.00  0.00    +0.000 OA
ATOM     26  H   UNL     1      50.566   3.193  16.650  0.00  0.00    +0.000 HD
BRANCH  24  27
ATOM     27  C   UNL     1      52.727   3.509  18.019  0.00  0.00    +0.000 A 
ATOM     28  C   UNL     1      53.793   4.399  17.993  0.00  0.00    +0.000 A 
ATOM     29  S   UNL     1      55.287   3.667  17.623  0.00  0.00    +0.000 S 
ATOM     30  C   UNL     1      54.556   2.143  17.433  0.00  0.00    +0.000 A 
ATOM     31  N   UNL     1      55.292   1.054  17.087  0.00  0.00    +0.000 NA
ATOM     32  C   UNL     1      54.605  -0.033  16.945  0.00  0.00    +0.000 A 
ATOM     33  N   UNL     1      53.249  -0.127  17.122  0.00  0.00    +0.000 N 
ATOM     34  C   UNL     1      52.471   0.940  17.501  0.00  0.00    +0.000 A 
ATOM     35  O   UNL     1      51.264   0.816  17.694  0.00  0.00    +0.000 OA
ATOM     36  C   UNL     1      53.191   2.187  17.664  0.00  0.00    +0.000 A 
ATOM     37  H   UNL     1      52.773  -1.008  17.001  0.00  0.00    +0.000 HD
ENDBRANCH  24  27
ENDBRANCH  22  23
ENDBRANCH   4  22
TORSDOF 10
ENDMDL
