MODEL 1
REMARK VINA RESULT:    -6.589      0.000      0.000
REMARK INTER + INTRA:         -10.720
REMARK INTER:                  -9.671
REMARK INTRA:                  -1.049
REMARK UNBOUND:                -1.049
REMARK  Name = 
REMARK  9 active torsions:
REMARK  status: ('A' for Active; 'I' for Inactive)
REMARK    1  A    between atoms: C_1  and  O_2
REMARK    2  A    between atoms: O_2  and  C_3
REMARK    3  A    between atoms: C_10  and  C_11
REMARK    4  A    between atoms: N_13  and  C_14
REMARK    5  A    between atoms: C_14  and  C_15
REMARK    6  A    between atoms: C_18  and  N_19
REMARK    7  A    between atoms: N_19  and  C_20
REMARK    8  A    between atoms: C_20  and  C_21
REMARK    9  A    between atoms: C_21  and  N_22
REMARK                            x       y       z     vdW  Elec       q    Type
REMARK                         _______ _______ _______ _____ _____    ______ ____
ROOT
ATOM      1  C   UNL     1      48.750   6.866  13.133  0.00  0.00    +0.000 C 
ENDROOT
BRANCH   1   2
ATOM      2  C   UNL     1      47.361   6.407  12.775  0.00  0.00    +0.000 A 
ATOM      3  C   UNL     1      46.678   5.513  13.604  0.00  0.00    +0.000 A 
ATOM      4  C   UNL     1      45.426   5.005  13.232  0.00  0.00    +0.000 A 
ATOM      5  C   UNL     1      44.803   5.381  12.035  0.00  0.00    +0.000 A 
ATOM      6  C   UNL     1      45.500   6.276  11.210  0.00  0.00    +0.000 A 
ATOM      7  C   UNL     1      46.754   6.792  11.576  0.00  0.00    +0.000 A 
BRANCH   5   8
ATOM      8  N   UNL     1      43.619   4.789  11.554  0.00  0.00    +0.000 N 
ATOM      9  H   UNL     1      42.809   5.106  12.083  0.00  0.00    +0.000 HD
BRANCH   8  10
ATOM     10  C   UNL     1      43.616   3.338  11.325  0.00  0.00    +0.000 C 
BRANCH  10  11
ATOM     11  C   UNL     1      44.808   2.874  10.451  0.00  0.00    +0.000 C 
BRANCH  11  12
ATOM     12  N   UNL     1      44.420   2.591   9.052  0.00  0.00    +0.000 NA
ATOM     13  C   UNL     1      45.025   1.363   8.489  0.00  0.00    +0.000 C 
ATOM     14  C   UNL     1      46.498   1.508   8.069  0.00  0.00    +0.000 C 
ATOM     15  O   UNL     1      46.666   2.582   7.137  0.00  0.00    +0.000 OA
ATOM     16  C   UNL     1      46.204   3.815   7.705  0.00  0.00    +0.000 C 
ATOM     17  C   UNL     1      44.728   3.718   8.138  0.00  0.00    +0.000 C 
ENDBRANCH  11  12
ENDBRANCH  10  11
ENDBRANCH   8  10
ENDBRANCH   5   8
ENDBRANCH   1   2
BRANCH   1  20
ATOM     18  C   UNL     1      48.671   7.817  15.397  0.00  0.00    +0.000 C 
ATOM     19  O   UNL     1      48.211   8.867  14.952  0.00  0.00    +0.000 OA
ATOM     20  N   UNL     1      48.979   6.779  14.558  0.00  0.00    +0.000 N 
ATOM     21  H   UNL     1      49.340   5.909  14.929  0.00  0.00    +0.000 HD
BRANCH  18  29
ATOM     22  C   UNL     1      48.557   5.103  17.524  0.00  0.00    +0.000 A 
ATOM     23  N   UNL     1      48.535   4.246  18.569  0.00  0.00    +0.000 NA
ATOM     24  C   UNL     1      48.800   4.730  19.784  0.00  0.00    +0.000 A 
ATOM     25  N   UNL     1      49.098   5.987  20.097  0.00  0.00    +0.000 NA
ATOM     26  C   UNL     1      49.097   6.808  19.033  0.00  0.00    +0.000 A 
ATOM     27  S   UNL     1      49.466   8.451  19.245  0.00  0.00    +0.000 S 
ATOM     28  C   UNL     1      49.254   8.760  17.590  0.00  0.00    +0.000 A 
ATOM     29  C   UNL     1      48.901   7.642  16.843  0.00  0.00    +0.000 A 
ATOM     30  C   UNL     1      48.826   6.468  17.709  0.00  0.00    +0.000 A 
BRANCH  22  32
ATOM     31  C   UNL     1      47.891   3.230  16.297  0.00  0.00    +0.000 C 
ATOM     32  O   UNL     1      48.286   4.602  16.269  0.00  0.00    +0.000 OA
ENDBRANCH  22  32
ENDBRANCH  18  29
ENDBRANCH   1  20
TORSDOF 8
ENDMDL
MODEL 2
REMARK VINA RESULT:    -6.520      3.463      4.920
REMARK INTER + INTRA:         -10.619
REMARK INTER:                  -9.710
REMARK INTRA:                  -0.908
REMARK UNBOUND:                -1.049
REMARK  Name = 
REMARK  9 active torsions:
REMARK  status: ('A' for Active; 'I' for Inactive)
REMARK    1  A    between atoms: C_1  and  O_2
REMARK    2  A    between atoms: O_2  and  C_3
REMARK    3  A    between atoms: C_10  and  C_11
REMARK    4  A    between atoms: N_13  and  C_14
REMARK    5  A    between atoms: C_14  and  C_15
REMARK    6  A    between atoms: C_18  and  N_19
REMARK    7  A    between atoms: N_19  and  C_20
REMARK    8  A    between atoms: C_20  and  C_21
REMARK    9  A    between atoms: C_21  and  N_22
REMARK                            x       y       z     vdW  Elec       q    Type
REMARK                         _______ _______ _______ _____ _____    ______ ____
ROOT
ATOM      1  C   UNL     1      47.742   3.774  17.226  0.00  0.00    +0.000 C 
ENDROOT
BRANCH   1   2
ATOM      2  C   UNL     1      47.663   4.495  15.906  0.00  0.00    +0.000 A 
ATOM      3  C   UNL     1      48.261   5.748  15.750  0.00  0.00    +0.000 A 
ATOM      4  C   UNL     1      48.112   6.470  14.557  0.00  0.00    +0.000 A 
ATOM      5  C   UNL     1      47.381   5.963  13.475  0.00  0.00    +0.000 A 
ATOM      6  C   UNL     1      46.784   4.705  13.645  0.00  0.00    +0.000 A 
ATOM      7  C   UNL     1      46.930   3.974  14.836  0.00  0.00    +0.000 A 
BRANCH   5   8
ATOM      8  N   UNL     1      47.085   6.710  12.318  0.00  0.00    +0.000 N 
ATOM      9  H   UNL     1      47.398   7.674  12.413  0.00  0.00    +0.000 HD
BRANCH   8  10
ATOM     10  C   UNL     1      45.732   6.604  11.756  0.00  0.00    +0.000 C 
BRANCH  10  11
ATOM     11  C   UNL     1      45.658   5.603  10.576  0.00  0.00    +0.000 C 
BRANCH  11  12
ATOM     12  N   UNL     1      44.269   5.274  10.186  0.00  0.00    +0.000 NA
ATOM     13  C   UNL     1      43.354   5.046  11.328  0.00  0.00    +0.000 C 
ATOM     14  C   UNL     1      43.507   3.673  12.006  0.00  0.00    +0.000 C 
ATOM     15  O   UNL     1      43.349   2.610  11.061  0.00  0.00    +0.000 OA
ATOM     16  C   UNL     1      44.311   2.733  10.004  0.00  0.00    +0.000 C 
ATOM     17  C   UNL     1      44.194   4.095   9.291  0.00  0.00    +0.000 C 
ENDBRANCH  11  12
ENDBRANCH  10  11
ENDBRANCH   8  10
ENDBRANCH   5   8
ENDBRANCH   1   2
BRANCH   1  20
ATOM     18  C   UNL     1      49.838   2.510  17.019  0.00  0.00    +0.000 C 
ATOM     19  O   UNL     1      49.327   1.779  16.172  0.00  0.00    +0.000 OA
ATOM     20  N   UNL     1      49.115   3.516  17.601  0.00  0.00    +0.000 N 
ATOM     21  H   UNL     1      49.544   4.129  18.284  0.00  0.00    +0.000 HD
BRANCH  18  29
ATOM     22  C   UNL     1      52.355   4.680  17.949  0.00  0.00    +0.000 A 
ATOM     23  N   UNL     1      53.512   5.289  18.291  0.00  0.00    +0.000 NA
ATOM     24  C   UNL     1      54.584   4.524  18.508  0.00  0.00    +0.000 A 
ATOM     25  N   UNL     1      54.649   3.198  18.434  0.00  0.00    +0.000 NA
ATOM     26  C   UNL     1      53.483   2.634  18.079  0.00  0.00    +0.000 A 
ATOM     27  S   UNL     1      53.379   0.945  17.943  0.00  0.00    +0.000 S 
ATOM     28  C   UNL     1      51.746   1.035  17.489  0.00  0.00    +0.000 A 
ATOM     29  C   UNL     1      51.244   2.330  17.427  0.00  0.00    +0.000 A 
ATOM     30  C   UNL     1      52.283   3.285  17.801  0.00  0.00    +0.000 A 
BRANCH  22  32
ATOM     31  C   UNL     1      51.415   6.354  16.619  0.00  0.00    +0.000 C 
ATOM     32  O   UNL     1      51.247   5.470  17.727  0.00  0.00    +0.000 OA
ENDBRANCH  22  32
ENDBRANCH  18  29
ENDBRANCH   1  20
TORSDOF 8
ENDMDL
MODEL 3
REMARK VINA RESULT:    -6.367      1.874      2.010
REMARK INTER + INTRA:         -10.394
REMARK INTER:                  -9.578
REMARK INTRA:                  -0.816
REMARK UNBOUND:                -1.049
REMARK  Name = 
REMARK  9 active torsions:
REMARK  status: ('A' for Active; 'I' for Inactive)
REMARK    1  A    between atoms: C_1  and  O_2
REMARK    2  A    between atoms: O_2  and  C_3
REMARK    3  A    between atoms: C_10  and  C_11
REMARK    4  A    between atoms: N_13  and  C_14
REMARK    5  A    between atoms: C_14  and  C_15
REMARK    6  A    between atoms: C_18  and  N_19
REMARK    7  A    between atoms: N_19  and  C_20
REMARK    8  A    between atoms: C_20  and  C_21
REMARK    9  A    between atoms: C_21  and  N_22
REMARK                            x       y       z     vdW  Elec       q    Type
REMARK                         _______ _______ _______ _____ _____    ______ ____
ROOT
ATOM      1  C   UNL     1      48.004   7.786  13.163  0.00  0.00    +0.000 C 
ENDROOT
BRANCH   1   2
ATOM      2  C   UNL     1      46.813   6.865  13.216  0.00  0.00    +0.000 A 
ATOM      3  C   UNL     1      46.939   5.579  13.747  0.00  0.00    +0.000 A 
ATOM      4  C   UNL     1      45.863   4.681  13.714  0.00  0.00    +0.000 A 
ATOM      5  C   UNL     1      44.622   5.036  13.170  0.00  0.00    +0.000 A 
ATOM      6  C   UNL     1      44.509   6.330  12.639  0.00  0.00    +0.000 A 
ATOM      7  C   UNL     1      45.581   7.237  12.669  0.00  0.00    +0.000 A 
BRANCH   5   8
ATOM      8  N   UNL     1      43.564   4.126  12.986  0.00  0.00    +0.000 N 
ATOM      9  H   UNL     1      43.052   3.976  13.853  0.00  0.00    +0.000 HD
BRANCH   8  10
ATOM     10  C   UNL     1      43.846   2.875  12.270  0.00  0.00    +0.000 C 
BRANCH  10  11
ATOM     11  C   UNL     1      44.844   3.073  11.102  0.00  0.00    +0.000 C 
BRANCH  11  12
ATOM     12  N   UNL     1      44.207   2.952   9.773  0.00  0.00    +0.000 NA
ATOM     13  C   UNL     1      44.645   1.772   8.993  0.00  0.00    +0.000 C 
ATOM     14  C   UNL     1      46.028   1.918   8.335  0.00  0.00    +0.000 C 
ATOM     15  O   UNL     1      46.083   3.078   7.498  0.00  0.00    +0.000 OA
ATOM     16  C   UNL     1      45.786   4.257   8.258  0.00  0.00    +0.000 C 
ATOM     17  C   UNL     1      44.405   4.159   8.935  0.00  0.00    +0.000 C 
ENDBRANCH  11  12
ENDBRANCH  10  11
ENDBRANCH   8  10
ENDBRANCH   5   8
ENDBRANCH   1   2
BRANCH   1  20
ATOM     18  C   UNL     1      49.447   7.601  15.142  0.00  0.00    +0.000 C 
ATOM     19  O   UNL     1      48.781   8.458  15.722  0.00  0.00    +0.000 OA
ATOM     20  N   UNL     1      49.135   7.221  13.864  0.00  0.00    +0.000 N 
ATOM     21  H   UNL     1      49.673   6.502  13.396  0.00  0.00    +0.000 HD
BRANCH  18  29
ATOM     22  C   UNL     1      49.763   4.950  17.327  0.00  0.00    +0.000 A 
ATOM     23  N   UNL     1      50.165   4.007  18.207  0.00  0.00    +0.000 NA
ATOM     24  C   UNL     1      51.468   3.925  18.488  0.00  0.00    +0.000 A 
ATOM     25  N   UNL     1      52.443   4.676  17.986  0.00  0.00    +0.000 NA
ATOM     26  C   UNL     1      51.999   5.608  17.127  0.00  0.00    +0.000 A 
ATOM     27  S   UNL     1      53.109   6.653  16.380  0.00  0.00    +0.000 S 
ATOM     28  C   UNL     1      51.866   7.452  15.544  0.00  0.00    +0.000 A 
ATOM     29  C   UNL     1      50.594   6.955  15.806  0.00  0.00    +0.000 A 
ATOM     30  C   UNL     1      50.680   5.837  16.741  0.00  0.00    +0.000 A 
BRANCH  22  32
ATOM     31  C   UNL     1      47.640   5.477  18.147  0.00  0.00    +0.000 C 
ATOM     32  O   UNL     1      48.417   5.032  17.036  0.00  0.00    +0.000 OA
ENDBRANCH  22  32
ENDBRANCH  18  29
ENDBRANCH   1  20
TORSDOF 8
ENDMDL
MODEL 4
REMARK VINA RESULT:    -6.192      3.096      4.645
REMARK INTER + INTRA:         -10.137
REMARK INTER:                  -8.981
REMARK INTRA:                  -1.155
REMARK UNBOUND:                -1.049
REMARK  Name = 
REMARK  9 active torsions:
REMARK  status: ('A' for Active; 'I' for Inactive)
REMARK    1  A    between atoms: C_1  and  O_2
REMARK    2  A    between atoms: O_2  and  C_3
REMARK    3  A    between atoms: C_10  and  C_11
REMARK    4  A    between atoms: N_13  and  C_14
REMARK    5  A    between atoms: C_14  and  C_15
REMARK    6  A    between atoms: C_18  and  N_19
REMARK    7  A    between atoms: N_19  and  C_20
REMARK    8  A    between atoms: C_20  and  C_21
REMARK    9  A    between atoms: C_21  and  N_22
REMARK                            x       y       z     vdW  Elec       q    Type
REMARK                         _______ _______ _______ _____ _____    ______ ____
ROOT
ATOM      1  C   UNL     1      49.645   8.066  17.444  0.00  0.00    +0.000 C 
ENDROOT
BRANCH   1   2
ATOM      2  C   UNL     1      49.055   7.985  16.061  0.00  0.00    +0.000 A 
ATOM      3  C   UNL     1      48.502   9.121  15.462  0.00  0.00    +0.000 A 
ATOM      4  C   UNL     1      47.864   9.036  14.217  0.00  0.00    +0.000 A 
ATOM      5  C   UNL     1      47.771   7.827  13.517  0.00  0.00    +0.000 A 
ATOM      6  C   UNL     1      48.328   6.694  14.129  0.00  0.00    +0.000 A 
ATOM      7  C   UNL     1      48.970   6.770  15.376  0.00  0.00    +0.000 A 
BRANCH   5   8
ATOM      8  N   UNL     1      47.018   7.666  12.337  0.00  0.00    +0.000 N 
ATOM      9  H   UNL     1      47.429   8.188  11.565  0.00  0.00    +0.000 HD
BRANCH   8  10
ATOM     10  C   UNL     1      45.561   7.829  12.421  0.00  0.00    +0.000 C 
BRANCH  10  11
ATOM     11  C   UNL     1      44.797   6.560  11.965  0.00  0.00    +0.000 C 
BRANCH  11  12
ATOM     12  N   UNL     1      44.402   5.690  13.094  0.00  0.00    +0.000 NA
ATOM     13  C   UNL     1      45.393   4.643  13.431  0.00  0.00    +0.000 C 
ATOM     14  C   UNL     1      45.398   3.434  12.479  0.00  0.00    +0.000 C 
ATOM     15  O   UNL     1      44.099   2.839  12.394  0.00  0.00    +0.000 OA
ATOM     16  C   UNL     1      43.135   3.801  11.944  0.00  0.00    +0.000 C 
ATOM     17  C   UNL     1      43.092   5.031  12.872  0.00  0.00    +0.000 C 
ENDBRANCH  11  12
ENDBRANCH  10  11
ENDBRANCH   8  10
ENDBRANCH   5   8
ENDBRANCH   1   2
BRANCH   1  20
ATOM     18  C   UNL     1      50.342   5.954  18.486  0.00  0.00    +0.000 C 
ATOM     19  O   UNL     1      49.268   5.881  19.083  0.00  0.00    +0.000 OA
ATOM     20  N   UNL     1      50.613   7.015  17.664  0.00  0.00    +0.000 N 
ATOM     21  H   UNL     1      51.489   7.063  17.159  0.00  0.00    +0.000 HD
BRANCH  18  29
ATOM     22  C   UNL     1      50.634   2.723  17.312  0.00  0.00    +0.000 A 
ATOM     23  N   UNL     1      50.976   1.444  17.040  0.00  0.00    +0.000 NA
ATOM     24  C   UNL     1      52.117   0.978  17.551  0.00  0.00    +0.000 A 
ATOM     25  N   UNL     1      52.985   1.641  18.309  0.00  0.00    +0.000 NA
ATOM     26  C   UNL     1      52.601   2.902  18.566  0.00  0.00    +0.000 A 
ATOM     27  S   UNL     1      53.594   3.901  19.513  0.00  0.00    +0.000 S 
ATOM     28  C   UNL     1      52.497   5.191  19.386  0.00  0.00    +0.000 A 
ATOM     29  C   UNL     1      51.364   4.902  18.634  0.00  0.00    +0.000 A 
ATOM     30  C   UNL     1      51.439   3.534  18.127  0.00  0.00    +0.000 A 
BRANCH  22  32
ATOM     31  C   UNL     1      48.319   2.884  17.584  0.00  0.00    +0.000 C 
ATOM     32  O   UNL     1      49.456   3.205  16.782  0.00  0.00    +0.000 OA
ENDBRANCH  22  32
ENDBRANCH  18  29
ENDBRANCH   1  20
TORSDOF 8
ENDMDL
MODEL 5
REMARK VINA RESULT:    -5.958      3.170      8.064
REMARK INTER + INTRA:          -9.793
REMARK INTER:                  -8.898
REMARK INTRA:                  -0.895
REMARK UNBOUND:                -1.049
REMARK  Name = 
REMARK  9 active torsions:
REMARK  status: ('A' for Active; 'I' for Inactive)
REMARK    1  A    between atoms: C_1  and  O_2
REMARK    2  A    between atoms: O_2  and  C_3
REMARK    3  A    between atoms: C_10  and  C_11
REMARK    4  A    between atoms: N_13  and  C_14
REMARK    5  A    between atoms: C_14  and  C_15
REMARK    6  A    between atoms: C_18  and  N_19
REMARK    7  A    between atoms: N_19  and  C_20
REMARK    8  A    between atoms: C_20  and  C_21
REMARK    9  A    between atoms: C_21  and  N_22
REMARK                            x       y       z     vdW  Elec       q    Type
REMARK                         _______ _______ _______ _____ _____    ______ ____
ROOT
ATOM      1  C   UNL     1      48.631   7.892  12.009  0.00  0.00    +0.000 C 
ENDROOT
BRANCH   1   2
ATOM      2  C   UNL     1      48.653   7.880  13.515  0.00  0.00    +0.000 A 
ATOM      3  C   UNL     1      47.971   8.862  14.239  0.00  0.00    +0.000 A 
ATOM      4  C   UNL     1      48.064   8.917  15.636  0.00  0.00    +0.000 A 
ATOM      5  C   UNL     1      48.821   7.988  16.362  0.00  0.00    +0.000 A 
ATOM      6  C   UNL     1      49.503   7.008  15.624  0.00  0.00    +0.000 A 
ATOM      7  C   UNL     1      49.413   6.945  14.224  0.00  0.00    +0.000 A 
BRANCH   5   8
ATOM      8  N   UNL     1      49.059   8.090  17.746  0.00  0.00    +0.000 N 
ATOM      9  H   UNL     1      49.600   8.924  17.966  0.00  0.00    +0.000 HD
BRANCH   8  10
ATOM     10  C   UNL     1      49.542   6.897  18.453  0.00  0.00    +0.000 C 
BRANCH  10  11
ATOM     11  C   UNL     1      48.503   5.747  18.453  0.00  0.00    +0.000 C 
BRANCH  11  12
ATOM     12  N   UNL     1      49.037   4.489  19.019  0.00  0.00    +0.000 NA
ATOM     13  C   UNL     1      50.497   4.317  18.850  0.00  0.00    +0.000 C 
ATOM     14  C   UNL     1      50.933   3.887  17.438  0.00  0.00    +0.000 C 
ATOM     15  O   UNL     1      50.270   2.683  17.039  0.00  0.00    +0.000 OA
ATOM     16  C   UNL     1      48.848   2.859  17.069  0.00  0.00    +0.000 C 
ATOM     17  C   UNL     1      48.363   3.288  18.469  0.00  0.00    +0.000 C 
ENDBRANCH  11  12
ENDBRANCH  10  11
ENDBRANCH   8  10
ENDBRANCH   5   8
ENDBRANCH   1   2
BRANCH   1  20
ATOM     18  C   UNL     1      46.483   6.876  11.385  0.00  0.00    +0.000 C 
ATOM     19  O   UNL     1      45.885   7.884  11.760  0.00  0.00    +0.000 OA
ATOM     20  N   UNL     1      47.846   6.795  11.487  0.00  0.00    +0.000 N 
ATOM     21  H   UNL     1      48.338   5.973  11.160  0.00  0.00    +0.000 HD
BRANCH  18  29
ATOM     22  C   UNL     1      44.600   4.321  12.736  0.00  0.00    +0.000 A 
ATOM     23  N   UNL     1      43.876   3.209  12.992  0.00  0.00    +0.000 NA
ATOM     24  C   UNL     1      43.507   2.449  11.958  0.00  0.00    +0.000 A 
ATOM     25  N   UNL     1      43.766   2.665  10.672  0.00  0.00    +0.000 NA
ATOM     26  C   UNL     1      44.498   3.772  10.464  0.00  0.00    +0.000 A 
ATOM     27  S   UNL     1      44.917   4.210   8.878  0.00  0.00    +0.000 S 
ATOM     28  C   UNL     1      45.764   5.574   9.429  0.00  0.00    +0.000 A 
ATOM     29  C   UNL     1      45.753   5.731  10.810  0.00  0.00    +0.000 A 
ATOM     30  C   UNL     1      44.977   4.659  11.427  0.00  0.00    +0.000 A 
BRANCH  22  32
ATOM     31  C   UNL     1      46.278   4.776  14.296  0.00  0.00    +0.000 C 
ATOM     32  O   UNL     1      44.980   5.107  13.804  0.00  0.00    +0.000 OA
ENDBRANCH  22  32
ENDBRANCH  18  29
ENDBRANCH   1  20
TORSDOF 8
ENDMDL
MODEL 6
REMARK VINA RESULT:    -5.719      5.891      8.176
REMARK INTER + INTRA:          -9.442
REMARK INTER:                  -8.300
REMARK INTRA:                  -1.142
REMARK UNBOUND:                -1.049
REMARK  Name = 
REMARK  9 active torsions:
REMARK  status: ('A' for Active; 'I' for Inactive)
REMARK    1  A    between atoms: C_1  and  O_2
REMARK    2  A    between atoms: O_2  and  C_3
REMARK    3  A    between atoms: C_10  and  C_11
REMARK    4  A    between atoms: N_13  and  C_14
REMARK    5  A    between atoms: C_14  and  C_15
REMARK    6  A    between atoms: C_18  and  N_19
REMARK    7  A    between atoms: N_19  and  C_20
REMARK    8  A    between atoms: C_20  and  C_21
REMARK    9  A    between atoms: C_21  and  N_22
REMARK                            x       y       z     vdW  Elec       q    Type
REMARK                         _______ _______ _______ _____ _____    ______ ____
ROOT
ATOM      1  C   UNL     1      51.430   9.096  11.480  0.00  0.00    +0.000 C 
ENDROOT
BRANCH   1   2
ATOM      2  C   UNL     1      50.006   8.773  11.847  0.00  0.00    +0.000 A 
ATOM      3  C   UNL     1      49.049   9.789  11.923  0.00  0.00    +0.000 A 
ATOM      4  C   UNL     1      47.745   9.515  12.357  0.00  0.00    +0.000 A 
ATOM      5  C   UNL     1      47.342   8.221  12.712  0.00  0.00    +0.000 A 
ATOM      6  C   UNL     1      48.311   7.210  12.633  0.00  0.00    +0.000 A 
ATOM      7  C   UNL     1      49.620   7.476  12.198  0.00  0.00    +0.000 A 
BRANCH   5   8
ATOM      8  N   UNL     1      46.091   7.926  13.287  0.00  0.00    +0.000 N 
ATOM      9  H   UNL     1      46.199   7.535  14.221  0.00  0.00    +0.000 HD
BRANCH   8  10
ATOM     10  C   UNL     1      45.113   7.191  12.474  0.00  0.00    +0.000 C 
BRANCH  10  11
ATOM     11  C   UNL     1      44.905   5.737  12.968  0.00  0.00    +0.000 C 
BRANCH  11  12
ATOM     12  N   UNL     1      45.477   4.729  12.049  0.00  0.00    +0.000 NA
ATOM     13  C   UNL     1      45.149   4.951  10.623  0.00  0.00    +0.000 C 
ATOM     14  C   UNL     1      43.724   4.533  10.221  0.00  0.00    +0.000 C 
ATOM     15  O   UNL     1      43.475   3.163  10.551  0.00  0.00    +0.000 OA
ATOM     16  C   UNL     1      43.661   2.944  11.956  0.00  0.00    +0.000 C 
ATOM     17  C   UNL     1      45.080   3.346  12.406  0.00  0.00    +0.000 C 
ENDBRANCH  11  12
ENDBRANCH  10  11
ENDBRANCH   8  10
ENDBRANCH   5   8
ENDBRANCH   1   2
BRANCH   1  20
ATOM     18  C   UNL     1      52.766   9.134   9.419  0.00  0.00    +0.000 C 
ATOM     19  O   UNL     1      53.396  10.106   9.832  0.00  0.00    +0.000 OA
ATOM     20  N   UNL     1      51.764   8.581  10.171  0.00  0.00    +0.000 N 
ATOM     21  H   UNL     1      51.259   7.769   9.837  0.00  0.00    +0.000 HD
BRANCH  18  29
ATOM     22  C   UNL     1      53.514   5.933   8.372  0.00  0.00    +0.000 A 
ATOM     23  N   UNL     1      53.874   4.813   7.707  0.00  0.00    +0.000 NA
ATOM     24  C   UNL     1      54.096   4.907   6.394  0.00  0.00    +0.000 A 
ATOM     25  N   UNL     1      53.995   5.998   5.641  0.00  0.00    +0.000 NA
ATOM     26  C   UNL     1      53.648   7.090   6.343  0.00  0.00    +0.000 A 
ATOM     27  S   UNL     1      53.463   8.574   5.541  0.00  0.00    +0.000 S 
ATOM     28  C   UNL     1      53.071   9.363   6.992  0.00  0.00    +0.000 A 
ATOM     29  C   UNL     1      53.072   8.534   8.108  0.00  0.00    +0.000 A 
ATOM     30  C   UNL     1      53.399   7.167   7.712  0.00  0.00    +0.000 A 
BRANCH  22  32
ATOM     31  C   UNL     1      54.478   5.953  10.500  0.00  0.00    +0.000 C 
ATOM     32  O   UNL     1      53.283   5.836   9.728  0.00  0.00    +0.000 OA
ENDBRANCH  22  32
ENDBRANCH  18  29
ENDBRANCH   1  20
TORSDOF 8
ENDMDL
MODEL 7
REMARK VINA RESULT:    -5.457      5.666      8.052
REMARK INTER + INTRA:          -9.057
REMARK INTER:                  -7.939
REMARK INTRA:                  -1.118
REMARK UNBOUND:                -1.049
REMARK  Name = 
REMARK  9 active torsions:
REMARK  status: ('A' for Active; 'I' for Inactive)
REMARK    1  A    between atoms: C_1  and  O_2
REMARK    2  A    between atoms: O_2  and  C_3
REMARK    3  A    between atoms: C_10  and  C_11
REMARK    4  A    between atoms: N_13  and  C_14
REMARK    5  A    between atoms: C_14  and  C_15
REMARK    6  A    between atoms: C_18  and  N_19
REMARK    7  A    between atoms: N_19  and  C_20
REMARK    8  A    between atoms: C_20  and  C_21
REMARK    9  A    between atoms: C_21  and  N_22
REMARK                            x       y       z     vdW  Elec       q    Type
REMARK                         _______ _______ _______ _____ _____    ______ ____
ROOT
ATOM      1  C   UNL     1      51.430   9.038  11.051  0.00  0.00    +0.000 C 
ENDROOT
BRANCH   1   2
ATOM      2  C   UNL     1      50.039   8.648  11.479  0.00  0.00    +0.000 A 
ATOM      3  C   UNL     1      49.061   9.626  11.675  0.00  0.00    +0.000 A 
ATOM      4  C   UNL     1      47.793   9.284  12.165  0.00  0.00    +0.000 A 
ATOM      5  C   UNL     1      47.449   7.959  12.460  0.00  0.00    +0.000 A 
ATOM      6  C   UNL     1      48.440   6.986  12.262  0.00  0.00    +0.000 A 
ATOM      7  C   UNL     1      49.713   7.320  11.769  0.00  0.00    +0.000 A 
BRANCH   5   8
ATOM      8  N   UNL     1      46.244   7.588  13.087  0.00  0.00    +0.000 N 
ATOM      9  H   UNL     1      46.249   6.602  13.341  0.00  0.00    +0.000 HD
BRANCH   8  10
ATOM     10  C   UNL     1      44.983   8.006  12.461  0.00  0.00    +0.000 C 
BRANCH  10  11
ATOM     11  C   UNL     1      44.221   6.821  11.816  0.00  0.00    +0.000 C 
BRANCH  11  12
ATOM     12  N   UNL     1      45.016   5.574  11.785  0.00  0.00    +0.000 NA
ATOM     13  C   UNL     1      45.261   5.042  10.425  0.00  0.00    +0.000 C 
ATOM     14  C   UNL     1      44.061   4.313   9.796  0.00  0.00    +0.000 C 
ATOM     15  O   UNL     1      43.604   3.250  10.639  0.00  0.00    +0.000 OA
ATOM     16  C   UNL     1      43.236   3.756  11.929  0.00  0.00    +0.000 C 
ATOM     17  C   UNL     1      44.411   4.494  12.601  0.00  0.00    +0.000 C 
ENDBRANCH  11  12
ENDBRANCH  10  11
ENDBRANCH   8  10
ENDBRANCH   5   8
ENDBRANCH   1   2
BRANCH   1  20
ATOM     18  C   UNL     1      53.477   7.787  10.528  0.00  0.00    +0.000 C 
ATOM     19  O   UNL     1      54.154   8.622  11.126  0.00  0.00    +0.000 OA
ATOM     20  N   UNL     1      52.119   7.928  10.433  0.00  0.00    +0.000 N 
ATOM     21  H   UNL     1      51.562   7.229   9.956  0.00  0.00    +0.000 HD
BRANCH  18  29
ATOM     22  C   UNL     1      53.228   6.317   7.416  0.00  0.00    +0.000 A 
ATOM     23  N   UNL     1      53.285   5.524   6.324  0.00  0.00    +0.000 NA
ATOM     24  C   UNL     1      54.077   4.450   6.369  0.00  0.00    +0.000 A 
ATOM     25  N   UNL     1      54.842   4.062   7.384  0.00  0.00    +0.000 NA
ATOM     26  C   UNL     1      54.746   4.870   8.453  0.00  0.00    +0.000 A 
ATOM     27  S   UNL     1      55.662   4.532   9.841  0.00  0.00    +0.000 S 
ATOM     28  C   UNL     1      55.021   5.879  10.650  0.00  0.00    +0.000 A 
ATOM     29  C   UNL     1      54.107   6.610   9.900  0.00  0.00    +0.000 A 
ATOM     30  C   UNL     1      53.959   6.013   8.576  0.00  0.00    +0.000 A 
BRANCH  22  32
ATOM     31  C   UNL     1      52.724   8.293   6.277  0.00  0.00    +0.000 C 
ATOM     32  O   UNL     1      52.412   7.428   7.369  0.00  0.00    +0.000 OA
ENDBRANCH  22  32
ENDBRANCH  18  29
ENDBRANCH   1  20
TORSDOF 8
ENDMDL
MODEL 8
REMARK VINA RESULT:    -5.440      2.934      3.730
REMARK INTER + INTRA:          -9.033
REMARK INTER:                  -7.730
REMARK INTRA:                  -1.303
REMARK UNBOUND:                -1.049
REMARK  Name = 
REMARK  9 active torsions:
REMARK  status: ('A' for Active; 'I' for Inactive)
REMARK    1  A    between atoms: C_1  and  O_2
REMARK    2  A    between atoms: O_2  and  C_3
REMARK    3  A    between atoms: C_10  and  C_11
REMARK    4  A    between atoms: N_13  and  C_14
REMARK    5  A    between atoms: C_14  and  C_15
REMARK    6  A    between atoms: C_18  and  N_19
REMARK    7  A    between atoms: N_19  and  C_20
REMARK    8  A    between atoms: C_20  and  C_21
REMARK    9  A    between atoms: C_21  and  N_22
REMARK                            x       y       z     vdW  Elec       q    Type
REMARK                         _______ _______ _______ _____ _____    ______ ____
ROOT
ATOM      1  C   UNL     1      50.680   8.652  12.818  0.00  0.00    +0.000 C 
ENDROOT
BRANCH   1   2
ATOM      2  C   UNL     1      49.177   8.568  12.854  0.00  0.00    +0.000 A 
ATOM      3  C   UNL     1      48.544   7.338  13.053  0.00  0.00    +0.000 A 
ATOM      4  C   UNL     1      47.147   7.232  12.993  0.00  0.00    +0.000 A 
ATOM      5  C   UNL     1      46.333   8.345  12.750  0.00  0.00    +0.000 A 
ATOM      6  C   UNL     1      46.980   9.574  12.549  0.00  0.00    +0.000 A 
ATOM      7  C   UNL     1      48.379   9.689  12.611  0.00  0.00    +0.000 A 
BRANCH   5   8
ATOM      8  N   UNL     1      44.943   8.262  12.538  0.00  0.00    +0.000 N 
ATOM      9  H   UNL     1      44.449   8.081  13.410  0.00  0.00    +0.000 HD
BRANCH   8  10
ATOM     10  C   UNL     1      44.463   7.429  11.429  0.00  0.00    +0.000 C 
BRANCH  10  11
ATOM     11  C   UNL     1      43.901   6.068  11.911  0.00  0.00    +0.000 C 
BRANCH  11  12
ATOM     12  N   UNL     1      44.866   4.958  11.753  0.00  0.00    +0.000 NA
ATOM     13  C   UNL     1      45.207   4.643  10.348  0.00  0.00    +0.000 C 
ATOM     14  C   UNL     1      44.134   3.840   9.593  0.00  0.00    +0.000 C 
ATOM     15  O   UNL     1      43.819   2.625  10.281  0.00  0.00    +0.000 OA
ATOM     16  C   UNL     1      43.361   2.906  11.610  0.00  0.00    +0.000 C 
ATOM     17  C   UNL     1      44.407   3.709  12.408  0.00  0.00    +0.000 C 
ENDBRANCH  11  12
ENDBRANCH  10  11
ENDBRANCH   8  10
ENDBRANCH   5   8
ENDBRANCH   1   2
BRANCH   1  20
ATOM     18  C   UNL     1      52.028   8.193  14.820  0.00  0.00    +0.000 C 
ATOM     19  O   UNL     1      52.232   9.397  14.972  0.00  0.00    +0.000 OA
ATOM     20  N   UNL     1      51.279   7.740  13.767  0.00  0.00    +0.000 N 
ATOM     21  H   UNL     1      51.096   6.750  13.655  0.00  0.00    +0.000 HD
BRANCH  18  29
ATOM     22  C   UNL     1      50.628   5.718  16.773  0.00  0.00    +0.000 A 
ATOM     23  N   UNL     1      50.350   4.736  17.658  0.00  0.00    +0.000 NA
ATOM     24  C   UNL     1      51.364   4.198  18.339  0.00  0.00    +0.000 A 
ATOM     25  N   UNL     1      52.651   4.516  18.242  0.00  0.00    +0.000 NA
ATOM     26  C   UNL     1      52.883   5.504  17.361  0.00  0.00    +0.000 A 
ATOM     27  S   UNL     1      54.474   6.034  17.100  0.00  0.00    +0.000 S 
ATOM     28  C   UNL     1      53.953   7.190  15.971  0.00  0.00    +0.000 A 
ATOM     29  C   UNL     1      52.578   7.206  15.767  0.00  0.00    +0.000 A 
ATOM     30  C   UNL     1      51.941   6.179  16.588  0.00  0.00    +0.000 A 
BRANCH  22  32
ATOM     31  C   UNL     1      48.956   7.349  16.766  0.00  0.00    +0.000 C 
ATOM     32  O   UNL     1      49.580   6.271  16.068  0.00  0.00    +0.000 OA
ENDBRANCH  22  32
ENDBRANCH  18  29
ENDBRANCH   1  20
TORSDOF 8
ENDMDL
MODEL 9
REMARK VINA RESULT:    -5.101      5.683      8.163
REMARK INTER + INTRA:          -8.536
REMARK INTER:                  -7.697
REMARK INTRA:                  -0.839
REMARK UNBOUND:                -1.049
REMARK  Name = 
REMARK  9 active torsions:
REMARK  status: ('A' for Active; 'I' for Inactive)
REMARK    1  A    between atoms: C_1  and  O_2
REMARK    2  A    between atoms: O_2  and  C_3
REMARK    3  A    between atoms: C_10  and  C_11
REMARK    4  A    between atoms: N_13  and  C_14
REMARK    5  A    between atoms: C_14  and  C_15
REMARK    6  A    between atoms: C_18  and  N_19
REMARK    7  A    between atoms: N_19  and  C_20
REMARK    8  A    between atoms: C_20  and  C_21
REMARK    9  A    between atoms: C_21  and  N_22
REMARK                            x       y       z     vdW  Elec       q    Type
REMARK                         _______ _______ _______ _____ _____    ______ ____
ROOT
ATOM      1  C   UNL     1      51.757   8.694  12.700  0.00  0.00    +0.000 C 
ENDROOT
BRANCH   1   2
ATOM      2  C   UNL     1      50.389   8.150  13.019  0.00  0.00    +0.000 A 
ATOM      3  C   UNL     1      49.939   8.103  14.342  0.00  0.00    +0.000 A 
ATOM      4  C   UNL     1      48.709   7.512  14.661  0.00  0.00    +0.000 A 
ATOM      5  C   UNL     1      47.877   6.964  13.676  0.00  0.00    +0.000 A 
ATOM      6  C   UNL     1      48.340   7.014  12.353  0.00  0.00    +0.000 A 
ATOM      7  C   UNL     1      49.571   7.607  12.024  0.00  0.00    +0.000 A 
BRANCH   5   8
ATOM      8  N   UNL     1      46.707   6.235  13.963  0.00  0.00    +0.000 N 
ATOM      9  H   UNL     1      46.162   6.687  14.695  0.00  0.00    +0.000 HD
BRANCH   8  10
ATOM     10  C   UNL     1      46.828   4.785  14.160  0.00  0.00    +0.000 C 
BRANCH  10  11
ATOM     11  C   UNL     1      46.079   3.975  13.071  0.00  0.00    +0.000 C 
BRANCH  11  12
ATOM     12  N   UNL     1      44.916   4.699  12.514  0.00  0.00    +0.000 NA
ATOM     13  C   UNL     1      43.620   4.010  12.710  0.00  0.00    +0.000 C 
ATOM     14  C   UNL     1      43.369   2.833  11.751  0.00  0.00    +0.000 C 
ATOM     15  O   UNL     1      43.476   3.248  10.385  0.00  0.00    +0.000 OA
ATOM     16  C   UNL     1      44.773   3.805  10.132  0.00  0.00    +0.000 C 
ATOM     17  C   UNL     1      45.069   4.993  11.069  0.00  0.00    +0.000 C 
ENDBRANCH  11  12
ENDBRANCH  10  11
ENDBRANCH   8  10
ENDBRANCH   5   8
ENDBRANCH   1   2
BRANCH   1  20
ATOM     18  C   UNL     1      52.797   8.801  10.478  0.00  0.00    +0.000 C 
ATOM     19  O   UNL     1      53.673   8.015  10.837  0.00  0.00    +0.000 OA
ATOM     20  N   UNL     1      51.817   9.199  11.347  0.00  0.00    +0.000 N 
ATOM     21  H   UNL     1      51.087   9.831  11.043  0.00  0.00    +0.000 HD
BRANCH  18  29
ATOM     22  C   UNL     1      53.271   7.395   7.363  0.00  0.00    +0.000 A 
ATOM     23  N   UNL     1      53.458   7.126   6.052  0.00  0.00    +0.000 NA
ATOM     24  C   UNL     1      53.352   8.133   5.183  0.00  0.00    +0.000 A 
ATOM     25  N   UNL     1      53.068   9.402   5.459  0.00  0.00    +0.000 NA
ATOM     26  C   UNL     1      52.902   9.629   6.773  0.00  0.00    +0.000 A 
ATOM     27  S   UNL     1      52.525  11.195   7.309  0.00  0.00    +0.000 S 
ATOM     28  C   UNL     1      52.499  10.685   8.928  0.00  0.00    +0.000 A 
ATOM     29  C   UNL     1      52.774   9.333   9.103  0.00  0.00    +0.000 A 
ATOM     30  C   UNL     1      52.996   8.699   7.806  0.00  0.00    +0.000 A 
BRANCH  22  32
ATOM     31  C   UNL     1      53.917   5.171   7.669  0.00  0.00    +0.000 C 
ATOM     32  O   UNL     1      53.379   6.354   8.260  0.00  0.00    +0.000 OA
ENDBRANCH  22  32
ENDBRANCH  18  29
ENDBRANCH   1  20
TORSDOF 8
ENDMDL
