MODEL 1
REMARK VINA RESULT:    -7.664      0.000      0.000
REMARK INTER + INTRA:         -10.693
REMARK INTER:                 -10.129
REMARK INTRA:                  -0.565
REMARK UNBOUND:                -0.565
REMARK  Name = 
REMARK  6 active torsions:
REMARK  status: ('A' for Active; 'I' for Inactive)
REMARK    1  A    between atoms: N_1  and  C_2
REMARK    2  A    between atoms: C_2  and  C_3
REMARK    3  A    between atoms: C_6  and  O_7
REMARK    4  A    between atoms: O_7  and  C_8
REMARK    5  A    between atoms: C_8  and  C_9
REMARK    6  A    between atoms: C_12  and  C_13
REMARK                            x       y       z     vdW  Elec       q    Type
REMARK                         _______ _______ _______ _____ _____    ______ ____
ROOT
ATOM      1  O   UNL     1      44.033   3.338  12.022  0.00  0.00    +0.000 OA
ENDROOT
BRANCH   1   5
ATOM      2  C   UNL     1      47.060   5.634  13.648  0.00  0.00    +0.000 A 
ATOM      3  C   UNL     1      46.030   6.246  12.927  0.00  0.00    +0.000 A 
ATOM      4  C   UNL     1      45.003   5.469  12.387  0.00  0.00    +0.000 A 
ATOM      5  C   UNL     1      45.042   4.100  12.585  0.00  0.00    +0.000 A 
ATOM      6  N   UNL     1      46.022   3.481  13.276  0.00  0.00    +0.000 NA
ATOM      7  C   UNL     1      46.998   4.254  13.792  0.00  0.00    +0.000 A 
BRANCH   2   8
ATOM      8  C   UNL     1      48.212   6.408  14.222  0.00  0.00    +0.000 C 
BRANCH   8   9
ATOM      9  N   UNL     1      49.259   6.639  13.237  0.00  0.00    +0.000 NA
ATOM     10  H   UNL     1      49.953   5.897  13.309  0.00  0.00    +0.000 HD
ATOM     11  H   UNL     1      49.745   7.506  13.462  0.00  0.00    +0.000 HD
ENDBRANCH   8   9
ENDBRANCH   2   8
ENDBRANCH   1   5
BRANCH   1  12
ATOM     12  C   UNL     1      43.600   3.896  10.773  0.00  0.00    +0.000 C 
BRANCH  12  13
ATOM     13  C   UNL     1      44.482   3.449   9.626  0.00  0.00    +0.000 A 
ATOM     14  C   UNL     1      45.068   4.389   8.782  0.00  0.00    +0.000 A 
ATOM     15  C   UNL     1      45.945   3.952   7.791  0.00  0.00    +0.000 A 
ATOM     16  C   UNL     1      46.223   2.589   7.660  0.00  0.00    +0.000 A 
ATOM     17  C   UNL     1      45.596   1.723   8.543  0.00  0.00    +0.000 A 
ATOM     18  N   UNL     1      44.744   2.120   9.515  0.00  0.00    +0.000 NA
BRANCH  16  19
ATOM     19  C   UNL     1      47.156   2.046   6.625  0.00  0.00    +0.000 C 
ATOM     20  F   UNL     1      46.927   2.540   5.376  0.00  0.00    +0.000 F 
ATOM     21  F   UNL     1      48.461   2.323   6.898  0.00  0.00    +0.000 F 
ATOM     22  F   UNL     1      47.079   0.692   6.508  0.00  0.00    +0.000 F 
ENDBRANCH  16  19
ENDBRANCH  12  13
ENDBRANCH   1  12
TORSDOF 6
ENDMDL
MODEL 2
REMARK VINA RESULT:    -7.410      3.765      6.507
REMARK INTER + INTRA:         -10.358
REMARK INTER:                  -9.951
REMARK INTRA:                  -0.406
REMARK UNBOUND:                -0.565
REMARK  Name = 
REMARK  6 active torsions:
REMARK  status: ('A' for Active; 'I' for Inactive)
REMARK    1  A    between atoms: N_1  and  C_2
REMARK    2  A    between atoms: C_2  and  C_3
REMARK    3  A    between atoms: C_6  and  O_7
REMARK    4  A    between atoms: O_7  and  C_8
REMARK    5  A    between atoms: C_8  and  C_9
REMARK    6  A    between atoms: C_12  and  C_13
REMARK                            x       y       z     vdW  Elec       q    Type
REMARK                         _______ _______ _______ _____ _____    ______ ____
ROOT
ATOM      1  O   UNL     1      43.784   4.466   9.657  0.00  0.00    +0.000 OA
ENDROOT
BRANCH   1   5
ATOM      2  C   UNL     1      46.596   2.276   7.565  0.00  0.00    +0.000 A 
ATOM      3  C   UNL     1      45.760   1.639   8.487  0.00  0.00    +0.000 A 
ATOM      4  C   UNL     1      44.804   2.380   9.186  0.00  0.00    +0.000 A 
ATOM      5  C   UNL     1      44.717   3.739   8.939  0.00  0.00    +0.000 A 
ATOM      6  N   UNL     1      45.510   4.381   8.055  0.00  0.00    +0.000 NA
ATOM      7  C   UNL     1      46.420   3.642   7.390  0.00  0.00    +0.000 A 
BRANCH   2   8
ATOM      8  C   UNL     1      47.668   1.543   6.810  0.00  0.00    +0.000 C 
BRANCH   8   9
ATOM      9  N   UNL     1      48.705   2.443   6.325  0.00  0.00    +0.000 NA
ATOM     10  H   UNL     1      49.471   1.892   5.943  0.00  0.00    +0.000 HD
ATOM     11  H   UNL     1      49.092   2.962   7.112  0.00  0.00    +0.000 HD
ENDBRANCH   8   9
ENDBRANCH   2   8
ENDBRANCH   1   5
BRANCH   1  12
ATOM     12  C   UNL     1      43.818   4.118  11.048  0.00  0.00    +0.000 C 
BRANCH  12  13
ATOM     13  C   UNL     1      44.973   4.786  11.764  0.00  0.00    +0.000 A 
ATOM     14  C   UNL     1      45.458   6.014  11.322  0.00  0.00    +0.000 A 
ATOM     15  C   UNL     1      46.461   6.646  12.055  0.00  0.00    +0.000 A 
ATOM     16  C   UNL     1      46.962   6.043  13.212  0.00  0.00    +0.000 A 
ATOM     17  C   UNL     1      46.421   4.821  13.579  0.00  0.00    +0.000 A 
ATOM     18  N   UNL     1      45.446   4.188  12.889  0.00  0.00    +0.000 NA
BRANCH  16  19
ATOM     19  C   UNL     1      48.034   6.662  14.051  0.00  0.00    +0.000 C 
ATOM     20  F   UNL     1      48.264   5.996  15.217  0.00  0.00    +0.000 F 
ATOM     21  F   UNL     1      49.236   6.713  13.412  0.00  0.00    +0.000 F 
ATOM     22  F   UNL     1      47.747   7.944  14.407  0.00  0.00    +0.000 F 
ENDBRANCH  16  19
ENDBRANCH  12  13
ENDBRANCH   1  12
TORSDOF 6
ENDMDL
MODEL 3
REMARK VINA RESULT:    -7.256      3.665      6.478
REMARK INTER + INTRA:         -10.154
REMARK INTER:                  -9.785
REMARK INTRA:                  -0.368
REMARK UNBOUND:                -0.565
REMARK  Name = 
REMARK  6 active torsions:
REMARK  status: ('A' for Active; 'I' for Inactive)
REMARK    1  A    between atoms: N_1  and  C_2
REMARK    2  A    between atoms: C_2  and  C_3
REMARK    3  A    between atoms: C_6  and  O_7
REMARK    4  A    between atoms: O_7  and  C_8
REMARK    5  A    between atoms: C_8  and  C_9
REMARK    6  A    between atoms: C_12  and  C_13
REMARK                            x       y       z     vdW  Elec       q    Type
REMARK                         _______ _______ _______ _____ _____    ______ ____
ROOT
ATOM      1  O   UNL     1      44.221   2.410  10.190  0.00  0.00    +0.000 OA
ENDROOT
BRANCH   1   5
ATOM      2  C   UNL     1      46.587   2.578   6.806  0.00  0.00    +0.000 A 
ATOM      3  C   UNL     1      45.741   3.646   7.121  0.00  0.00    +0.000 A 
ATOM      4  C   UNL     1      44.950   3.591   8.270  0.00  0.00    +0.000 A 
ATOM      5  C   UNL     1      45.029   2.463   9.069  0.00  0.00    +0.000 A 
ATOM      6  N   UNL     1      45.836   1.417   8.792  0.00  0.00    +0.000 NA
ATOM      7  C   UNL     1      46.594   1.498   7.680  0.00  0.00    +0.000 A 
BRANCH   2   8
ATOM      8  C   UNL     1      47.435   2.559   5.567  0.00  0.00    +0.000 C 
BRANCH   8   9
ATOM      9  N   UNL     1      48.652   1.782   5.751  0.00  0.00    +0.000 NA
ATOM     10  H   UNL     1      49.156   1.739   4.866  0.00  0.00    +0.000 HD
ATOM     11  H   UNL     1      48.404   0.821   5.983  0.00  0.00    +0.000 HD
ENDBRANCH   8   9
ENDBRANCH   2   8
ENDBRANCH   1   5
BRANCH   1  12
ATOM     12  C   UNL     1      43.788   3.722  10.578  0.00  0.00    +0.000 C 
BRANCH  12  13
ATOM     13  C   UNL     1      44.798   4.400  11.479  0.00  0.00    +0.000 A 
ATOM     14  C   UNL     1      45.385   3.699  12.529  0.00  0.00    +0.000 A 
ATOM     15  C   UNL     1      46.377   4.323  13.286  0.00  0.00    +0.000 A 
ATOM     16  C   UNL     1      46.764   5.631  12.981  0.00  0.00    +0.000 A 
ATOM     17  C   UNL     1      46.128   6.253  11.918  0.00  0.00    +0.000 A 
ATOM     18  N   UNL     1      45.166   5.671  11.167  0.00  0.00    +0.000 NA
BRANCH  16  19
ATOM     19  C   UNL     1      47.822   6.362  13.744  0.00  0.00    +0.000 C 
ATOM     20  F   UNL     1      47.484   7.646  14.047  0.00  0.00    +0.000 F 
ATOM     21  F   UNL     1      48.117   5.768  14.933  0.00  0.00    +0.000 F 
ATOM     22  F   UNL     1      49.000   6.440  13.065  0.00  0.00    +0.000 F 
ENDBRANCH  16  19
ENDBRANCH  12  13
ENDBRANCH   1  12
TORSDOF 6
ENDMDL
MODEL 4
REMARK VINA RESULT:    -6.503      4.261      5.581
REMARK INTER + INTRA:          -9.159
REMARK INTER:                  -8.751
REMARK INTRA:                  -0.408
REMARK UNBOUND:                -0.565
REMARK  Name = 
REMARK  6 active torsions:
REMARK  status: ('A' for Active; 'I' for Inactive)
REMARK    1  A    between atoms: N_1  and  C_2
REMARK    2  A    between atoms: C_2  and  C_3
REMARK    3  A    between atoms: C_6  and  O_7
REMARK    4  A    between atoms: O_7  and  C_8
REMARK    5  A    between atoms: C_8  and  C_9
REMARK    6  A    between atoms: C_12  and  C_13
REMARK                            x       y       z     vdW  Elec       q    Type
REMARK                         _______ _______ _______ _____ _____    ______ ____
ROOT
ATOM      1  O   UNL     1      47.123   3.622  15.996  0.00  0.00    +0.000 OA
ENDROOT
BRANCH   1   5
ATOM      2  C   UNL     1      50.814   2.408  17.402  0.00  0.00    +0.000 A 
ATOM      3  C   UNL     1      50.300   3.653  17.776  0.00  0.00    +0.000 A 
ATOM      4  C   UNL     1      49.048   4.057  17.307  0.00  0.00    +0.000 A 
ATOM      5  C   UNL     1      48.350   3.199  16.475  0.00  0.00    +0.000 A 
ATOM      6  N   UNL     1      48.820   1.991  16.097  0.00  0.00    +0.000 NA
ATOM      7  C   UNL     1      50.029   1.623  16.568  0.00  0.00    +0.000 A 
BRANCH   2   8
ATOM      8  C   UNL     1      52.169   1.930  17.841  0.00  0.00    +0.000 C 
BRANCH   8   9
ATOM      9  N   UNL     1      52.191   0.493  18.076  0.00  0.00    +0.000 NA
ATOM     10  H   UNL     1      52.646   0.035  17.287  0.00  0.00    +0.000 HD
ATOM     11  H   UNL     1      51.234   0.142  18.095  0.00  0.00    +0.000 HD
ENDBRANCH   8   9
ENDBRANCH   2   8
ENDBRANCH   1   5
BRANCH   1  12
ATOM     12  C   UNL     1      47.266   4.780  15.161  0.00  0.00    +0.000 C 
BRANCH  12  13
ATOM     13  C   UNL     1      46.437   4.665  13.899  0.00  0.00    +0.000 A 
ATOM     14  C   UNL     1      46.111   5.804  13.167  0.00  0.00    +0.000 A 
ATOM     15  C   UNL     1      45.424   5.658  11.962  0.00  0.00    +0.000 A 
ATOM     16  C   UNL     1      45.076   4.381  11.511  0.00  0.00    +0.000 A 
ATOM     17  C   UNL     1      45.440   3.304  12.303  0.00  0.00    +0.000 A 
ATOM     18  N   UNL     1      46.109   3.417  13.473  0.00  0.00    +0.000 NA
BRANCH  16  19
ATOM     19  C   UNL     1      44.343   4.146  10.229  0.00  0.00    +0.000 C 
ATOM     20  F   UNL     1      43.870   2.875  10.099  0.00  0.00    +0.000 F 
ATOM     21  F   UNL     1      43.260   4.959  10.087  0.00  0.00    +0.000 F 
ATOM     22  F   UNL     1      45.120   4.366   9.133  0.00  0.00    +0.000 F 
ENDBRANCH  16  19
ENDBRANCH  12  13
ENDBRANCH   1  12
TORSDOF 6
ENDMDL
MODEL 5
REMARK VINA RESULT:    -6.144      3.644      4.668
REMARK INTER + INTRA:          -8.684
REMARK INTER:                  -8.338
REMARK INTRA:                  -0.346
REMARK UNBOUND:                -0.565
REMARK  Name = 
REMARK  6 active torsions:
REMARK  status: ('A' for Active; 'I' for Inactive)
REMARK    1  A    between atoms: N_1  and  C_2
REMARK    2  A    between atoms: C_2  and  C_3
REMARK    3  A    between atoms: C_6  and  O_7
REMARK    4  A    between atoms: O_7  and  C_8
REMARK    5  A    between atoms: C_8  and  C_9
REMARK    6  A    between atoms: C_12  and  C_13
REMARK                            x       y       z     vdW  Elec       q    Type
REMARK                         _______ _______ _______ _____ _____    ______ ____
ROOT
ATOM      1  O   UNL     1      47.165   3.713  14.745  0.00  0.00    +0.000 OA
ENDROOT
BRANCH   1   5
ATOM      2  C   UNL     1      48.587   4.522  18.539  0.00  0.00    +0.000 A 
ATOM      3  C   UNL     1      47.813   3.381  18.313  0.00  0.00    +0.000 A 
ATOM      4  C   UNL     1      47.341   3.104  17.028  0.00  0.00    +0.000 A 
ATOM      5  C   UNL     1      47.659   3.984  16.008  0.00  0.00    +0.000 A 
ATOM      6  N   UNL     1      48.405   5.094  16.195  0.00  0.00    +0.000 NA
ATOM      7  C   UNL     1      48.853   5.334  17.444  0.00  0.00    +0.000 A 
BRANCH   2   8
ATOM      8  C   UNL     1      49.093   4.896  19.903  0.00  0.00    +0.000 C 
BRANCH   8   9
ATOM      9  N   UNL     1      48.586   4.003  20.936  0.00  0.00    +0.000 NA
ATOM     10  H   UNL     1      48.581   3.049  20.578  0.00  0.00    +0.000 HD
ATOM     11  H   UNL     1      47.613   4.237  21.133  0.00  0.00    +0.000 HD
ENDBRANCH   8   9
ENDBRANCH   2   8
ENDBRANCH   1   5
BRANCH   1  12
ATOM     12  C   UNL     1      46.393   4.814  14.245  0.00  0.00    +0.000 C 
BRANCH  12  13
ATOM     13  C   UNL     1      45.866   4.542  12.852  0.00  0.00    +0.000 A 
ATOM     14  C   UNL     1      45.929   5.529  11.872  0.00  0.00    +0.000 A 
ATOM     15  C   UNL     1      45.518   5.220  10.576  0.00  0.00    +0.000 A 
ATOM     16  C   UNL     1      45.054   3.935  10.282  0.00  0.00    +0.000 A 
ATOM     17  C   UNL     1      45.025   3.014  11.318  0.00  0.00    +0.000 A 
ATOM     18  N   UNL     1      45.421   3.287  12.582  0.00  0.00    +0.000 NA
BRANCH  16  19
ATOM     19  C   UNL     1      44.601   3.529   8.916  0.00  0.00    +0.000 C 
ATOM     20  F   UNL     1      44.009   2.302   8.882  0.00  0.00    +0.000 F 
ATOM     21  F   UNL     1      43.691   4.392   8.386  0.00  0.00    +0.000 F 
ATOM     22  F   UNL     1      45.624   3.471   8.020  0.00  0.00    +0.000 F 
ENDBRANCH  16  19
ENDBRANCH  12  13
ENDBRANCH   1  12
TORSDOF 6
ENDMDL
MODEL 6
REMARK VINA RESULT:    -5.984      5.928      8.582
REMARK INTER + INTRA:          -8.473
REMARK INTER:                  -8.090
REMARK INTRA:                  -0.382
REMARK UNBOUND:                -0.565
REMARK  Name = 
REMARK  6 active torsions:
REMARK  status: ('A' for Active; 'I' for Inactive)
REMARK    1  A    between atoms: N_1  and  C_2
REMARK    2  A    between atoms: C_2  and  C_3
REMARK    3  A    between atoms: C_6  and  O_7
REMARK    4  A    between atoms: O_7  and  C_8
REMARK    5  A    between atoms: C_8  and  C_9
REMARK    6  A    between atoms: C_12  and  C_13
REMARK                            x       y       z     vdW  Elec       q    Type
REMARK                         _______ _______ _______ _____ _____    ______ ____
ROOT
ATOM      1  O   UNL     1      47.536   3.170  14.507  0.00  0.00    +0.000 OA
ENDROOT
BRANCH   1   5
ATOM      2  C   UNL     1      44.910   5.408  12.233  0.00  0.00    +0.000 A 
ATOM      3  C   UNL     1      45.927   6.043  12.953  0.00  0.00    +0.000 A 
ATOM      4  C   UNL     1      46.819   5.284  13.713  0.00  0.00    +0.000 A 
ATOM      5  C   UNL     1      46.662   3.909  13.730  0.00  0.00    +0.000 A 
ATOM      6  N   UNL     1      45.692   3.268  13.045  0.00  0.00    +0.000 NA
ATOM      7  C   UNL     1      44.848   4.023  12.314  0.00  0.00    +0.000 A 
BRANCH   2   8
ATOM      8  C   UNL     1      43.897   6.170  11.427  0.00  0.00    +0.000 C 
BRANCH   8   9
ATOM      9  N   UNL     1      43.355   5.370  10.338  0.00  0.00    +0.000 NA
ATOM     10  H   UNL     1      42.342   5.478  10.318  0.00  0.00    +0.000 HD
ATOM     11  H   UNL     1      43.531   4.384  10.526  0.00  0.00    +0.000 HD
ENDBRANCH   8   9
ENDBRANCH   2   8
ENDBRANCH   1   5
BRANCH   1  12
ATOM     12  C   UNL     1      47.480   3.583  15.880  0.00  0.00    +0.000 C 
BRANCH  12  13
ATOM     13  C   UNL     1      48.804   3.369  16.583  0.00  0.00    +0.000 A 
ATOM     14  C   UNL     1      49.335   2.088  16.707  0.00  0.00    +0.000 A 
ATOM     15  C   UNL     1      50.597   1.932  17.279  0.00  0.00    +0.000 A 
ATOM     16  C   UNL     1      51.305   3.056  17.716  0.00  0.00    +0.000 A 
ATOM     17  C   UNL     1      50.701   4.293  17.553  0.00  0.00    +0.000 A 
ATOM     18  N   UNL     1      49.481   4.472  16.999  0.00  0.00    +0.000 NA
BRANCH  16  19
ATOM     19  C   UNL     1      52.663   2.968  18.335  0.00  0.00    +0.000 C 
ATOM     20  F   UNL     1      53.625   3.626  17.629  0.00  0.00    +0.000 F 
ATOM     21  F   UNL     1      52.703   3.493  19.591  0.00  0.00    +0.000 F 
ATOM     22  F   UNL     1      53.104   1.686  18.454  0.00  0.00    +0.000 F 
ENDBRANCH  16  19
ENDBRANCH  12  13
ENDBRANCH   1  12
TORSDOF 6
ENDMDL
MODEL 7
REMARK VINA RESULT:    -5.602      3.880      5.321
REMARK INTER + INTRA:          -7.967
REMARK INTER:                  -7.531
REMARK INTRA:                  -0.437
REMARK UNBOUND:                -0.565
REMARK  Name = 
REMARK  6 active torsions:
REMARK  status: ('A' for Active; 'I' for Inactive)
REMARK    1  A    between atoms: N_1  and  C_2
REMARK    2  A    between atoms: C_2  and  C_3
REMARK    3  A    between atoms: C_6  and  O_7
REMARK    4  A    between atoms: O_7  and  C_8
REMARK    5  A    between atoms: C_8  and  C_9
REMARK    6  A    between atoms: C_12  and  C_13
REMARK                            x       y       z     vdW  Elec       q    Type
REMARK                         _______ _______ _______ _____ _____    ______ ____
ROOT
ATOM      1  O   UNL     1      48.658   5.978  14.474  0.00  0.00    +0.000 OA
ENDROOT
BRANCH   1   5
ATOM      2  C   UNL     1      48.599   5.230  18.537  0.00  0.00    +0.000 A 
ATOM      3  C   UNL     1      48.873   6.518  18.069  0.00  0.00    +0.000 A 
ATOM      4  C   UNL     1      48.883   6.771  16.695  0.00  0.00    +0.000 A 
ATOM      5  C   UNL     1      48.620   5.721  15.833  0.00  0.00    +0.000 A 
ATOM      6  N   UNL     1      48.351   4.467  16.255  0.00  0.00    +0.000 NA
ATOM      7  C   UNL     1      48.342   4.251  17.586  0.00  0.00    +0.000 A 
BRANCH   2   8
ATOM      8  C   UNL     1      48.609   4.884  19.999  0.00  0.00    +0.000 C 
BRANCH   8   9
ATOM      9  N   UNL     1      48.351   3.470  20.227  0.00  0.00    +0.000 NA
ATOM     10  H   UNL     1      48.339   2.985  19.331  0.00  0.00    +0.000 HD
ATOM     11  H   UNL     1      47.417   3.359  20.621  0.00  0.00    +0.000 HD
ENDBRANCH   8   9
ENDBRANCH   2   8
ENDBRANCH   1   5
BRANCH   1  12
ATOM     12  C   UNL     1      47.547   6.791  14.071  0.00  0.00    +0.000 C 
BRANCH  12  13
ATOM     13  C   UNL     1      46.646   6.064  13.096  0.00  0.00    +0.000 A 
ATOM     14  C   UNL     1      46.530   6.507  11.781  0.00  0.00    +0.000 A 
ATOM     15  C   UNL     1      45.764   5.764  10.884  0.00  0.00    +0.000 A 
ATOM     16  C   UNL     1      45.128   4.595  11.313  0.00  0.00    +0.000 A 
ATOM     17  C   UNL     1      45.298   4.228  12.639  0.00  0.00    +0.000 A 
ATOM     18  N   UNL     1      46.038   4.927  13.529  0.00  0.00    +0.000 NA
BRANCH  16  19
ATOM     19  C   UNL     1      44.294   3.746  10.409  0.00  0.00    +0.000 C 
ATOM     20  F   UNL     1      44.939   2.630   9.964  0.00  0.00    +0.000 F 
ATOM     21  F   UNL     1      43.156   3.300  11.009  0.00  0.00    +0.000 F 
ATOM     22  F   UNL     1      43.890   4.410   9.291  0.00  0.00    +0.000 F 
ENDBRANCH  16  19
ENDBRANCH  12  13
ENDBRANCH   1  12
TORSDOF 6
ENDMDL
MODEL 8
REMARK VINA RESULT:    -5.423      2.681      3.604
REMARK INTER + INTRA:          -7.732
REMARK INTER:                  -7.210
REMARK INTRA:                  -0.522
REMARK UNBOUND:                -0.565
REMARK  Name = 
REMARK  6 active torsions:
REMARK  status: ('A' for Active; 'I' for Inactive)
REMARK    1  A    between atoms: N_1  and  C_2
REMARK    2  A    between atoms: C_2  and  C_3
REMARK    3  A    between atoms: C_6  and  O_7
REMARK    4  A    between atoms: O_7  and  C_8
REMARK    5  A    between atoms: C_8  and  C_9
REMARK    6  A    between atoms: C_12  and  C_13
REMARK                            x       y       z     vdW  Elec       q    Type
REMARK                         _______ _______ _______ _____ _____    ______ ____
ROOT
ATOM      1  O   UNL     1      46.299   6.308  13.510  0.00  0.00    +0.000 OA
ENDROOT
BRANCH   1   5
ATOM      2  C   UNL     1      49.078   8.886  11.865  0.00  0.00    +0.000 A 
ATOM      3  C   UNL     1      49.424   7.556  12.118  0.00  0.00    +0.000 A 
ATOM      4  C   UNL     1      48.480   6.684  12.665  0.00  0.00    +0.000 A 
ATOM      5  C   UNL     1      47.217   7.175  12.944  0.00  0.00    +0.000 A 
ATOM      6  N   UNL     1      46.853   8.454  12.711  0.00  0.00    +0.000 NA
ATOM      7  C   UNL     1      47.782   9.273  12.177  0.00  0.00    +0.000 A 
BRANCH   2   8
ATOM      8  C   UNL     1      50.057   9.883  11.313  0.00  0.00    +0.000 C 
BRANCH   8   9
ATOM      9  N   UNL     1      51.327   9.853  12.026  0.00  0.00    +0.000 NA
ATOM     10  H   UNL     1      52.062  10.196  11.410  0.00  0.00    +0.000 HD
ATOM     11  H   UNL     1      51.566   8.886  12.242  0.00  0.00    +0.000 HD
ENDBRANCH   8   9
ENDBRANCH   2   8
ENDBRANCH   1   5
BRANCH   1  12
ATOM     12  C   UNL     1      45.052   6.343  12.801  0.00  0.00    +0.000 C 
BRANCH  12  13
ATOM     13  C   UNL     1      45.028   5.345  11.663  0.00  0.00    +0.000 A 
ATOM     14  C   UNL     1      45.410   5.731  10.381  0.00  0.00    +0.000 A 
ATOM     15  C   UNL     1      45.463   4.769   9.373  0.00  0.00    +0.000 A 
ATOM     16  C   UNL     1      45.136   3.441   9.662  0.00  0.00    +0.000 A 
ATOM     17  C   UNL     1      44.767   3.144  10.965  0.00  0.00    +0.000 A 
ATOM     18  N   UNL     1      44.711   4.057  11.962  0.00  0.00    +0.000 NA
BRANCH  16  19
ATOM     19  C   UNL     1      45.174   2.354   8.636  0.00  0.00    +0.000 C 
ATOM     20  F   UNL     1      44.788   2.765   7.396  0.00  0.00    +0.000 F 
ATOM     21  F   UNL     1      46.419   1.824   8.479  0.00  0.00    +0.000 F 
ATOM     22  F   UNL     1      44.361   1.308   8.950  0.00  0.00    +0.000 F 
ENDBRANCH  16  19
ENDBRANCH  12  13
ENDBRANCH   1  12
TORSDOF 6
ENDMDL
MODEL 9
REMARK VINA RESULT:    -5.298      6.502      8.933
REMARK INTER + INTRA:          -7.566
REMARK INTER:                  -7.098
REMARK INTRA:                  -0.468
REMARK UNBOUND:                -0.565
REMARK  Name = 
REMARK  6 active torsions:
REMARK  status: ('A' for Active; 'I' for Inactive)
REMARK    1  A    between atoms: N_1  and  C_2
REMARK    2  A    between atoms: C_2  and  C_3
REMARK    3  A    between atoms: C_6  and  O_7
REMARK    4  A    between atoms: O_7  and  C_8
REMARK    5  A    between atoms: C_8  and  C_9
REMARK    6  A    between atoms: C_12  and  C_13
REMARK                            x       y       z     vdW  Elec       q    Type
REMARK                         _______ _______ _______ _____ _____    ______ ____
ROOT
ATOM      1  O   UNL     1      47.543   4.271  13.961  0.00  0.00    +0.000 OA
ENDROOT
BRANCH   1   5
ATOM      2  C   UNL     1      44.103   5.486  12.021  0.00  0.00    +0.000 A 
ATOM      3  C   UNL     1      45.293   6.199  11.846  0.00  0.00    +0.000 A 
ATOM      4  C   UNL     1      46.456   5.781  12.495  0.00  0.00    +0.000 A 
ATOM      5  C   UNL     1      46.390   4.660  13.303  0.00  0.00    +0.000 A 
ATOM      6  N   UNL     1      45.257   3.950  13.491  0.00  0.00    +0.000 NA
ATOM      7  C   UNL     1      44.150   4.372  12.848  0.00  0.00    +0.000 A 
BRANCH   2   8
ATOM      8  C   UNL     1      42.810   5.904  11.381  0.00  0.00    +0.000 C 
BRANCH   8   9
ATOM      9  N   UNL     1      42.766   7.337  11.127  0.00  0.00    +0.000 NA
ATOM     10  H   UNL     1      43.561   7.781  11.586  0.00  0.00    +0.000 HD
ATOM     11  H   UNL     1      41.932   7.729  11.564  0.00  0.00    +0.000 HD
ENDBRANCH   8   9
ENDBRANCH   2   8
ENDBRANCH   1   5
BRANCH   1  12
ATOM     12  C   UNL     1      47.245   3.770  15.272  0.00  0.00    +0.000 C 
BRANCH  12  13
ATOM     13  C   UNL     1      47.771   4.689  16.355  0.00  0.00    +0.000 A 
ATOM     14  C   UNL     1      47.280   4.596  17.655  0.00  0.00    +0.000 A 
ATOM     15  C   UNL     1      47.847   5.392  18.649  0.00  0.00    +0.000 A 
ATOM     16  C   UNL     1      48.891   6.265  18.329  0.00  0.00    +0.000 A 
ATOM     17  C   UNL     1      49.318   6.293  17.010  0.00  0.00    +0.000 A 
ATOM     18  N   UNL     1      48.788   5.529  16.028  0.00  0.00    +0.000 NA
BRANCH  16  19
ATOM     19  C   UNL     1      49.550   7.146  19.341  0.00  0.00    +0.000 C 
ATOM     20  F   UNL     1      48.928   7.142  20.553  0.00  0.00    +0.000 F 
ATOM     21  F   UNL     1      50.841   6.788  19.588  0.00  0.00    +0.000 F 
ATOM     22  F   UNL     1      49.593   8.450  18.952  0.00  0.00    +0.000 F 
ENDBRANCH  16  19
ENDBRANCH  12  13
ENDBRANCH   1  12
TORSDOF 6
ENDMDL
