MODEL 1
REMARK VINA RESULT:    -7.613      0.000      0.000
REMARK INTER + INTRA:         -10.968
REMARK INTER:                 -10.284
REMARK INTRA:                  -0.684
REMARK UNBOUND:                -0.684
REMARK  Name = 
REMARK  8 active torsions:
REMARK  status: ('A' for Active; 'I' for Inactive)
REMARK    1  A    between atoms: C_1  and  C_2
REMARK    2  A    between atoms: C_2  and  C_3
REMARK    3  A    between atoms: C_2  and  N_4
REMARK    4  A    between atoms: C_5  and  C_7
REMARK    5  A    between atoms: C_10  and  O_11
REMARK    6  A    between atoms: O_11  and  C_12
REMARK    7  A    between atoms: C_12  and  C_13
REMARK    8  A    between atoms: C_13  and  C_14
REMARK                            x       y       z     vdW  Elec       q    Type
REMARK                         _______ _______ _______ _____ _____    ______ ____
ROOT
ATOM      1  C   UNL     1      46.325   4.412  13.587  0.00  0.00    +0.000 A 
ATOM      2  C   UNL     1      46.027   5.705  13.149  0.00  0.00    +0.000 A 
ATOM      3  C   UNL     1      45.180   5.878  12.051  0.00  0.00    +0.000 A 
ATOM      4  C   UNL     1      44.646   4.748  11.445  0.00  0.00    +0.000 A 
ATOM      5  N   UNL     1      44.938   3.488  11.829  0.00  0.00    +0.000 NA
ATOM      6  C   UNL     1      45.781   3.349  12.881  0.00  0.00    +0.000 A 
ENDROOT
BRANCH   1   8
ATOM      7  N   UNL     1      47.431   5.152  15.623  0.00  0.00    +0.000 N 
ATOM      8  C   UNL     1      47.208   4.117  14.738  0.00  0.00    +0.000 C 
ATOM      9  O   UNL     1      47.673   2.992  14.875  0.00  0.00    +0.000 OA
ATOM     10  H   UNL     1      46.834   5.966  15.581  0.00  0.00    +0.000 HD
BRANCH   7  12
ATOM     11  C   UNL     1      49.285   6.062  16.921  0.00  0.00    +0.000 C 
ATOM     12  C   UNL     1      48.230   4.966  16.829  0.00  0.00    +0.000 C 
ATOM     13  C   UNL     1      47.349   4.956  18.076  0.00  0.00    +0.000 C 
ENDBRANCH   7  12
ENDBRANCH   1   8
BRANCH   4  14
ATOM     14  O   UNL     1      43.808   4.947  10.367  0.00  0.00    +0.000 OA
BRANCH  14  15
ATOM     15  C   UNL     1      44.043   3.993   9.324  0.00  0.00    +0.000 C 
BRANCH  15  16
ATOM     16  C   UNL     1      45.313   4.380   8.573  0.00  0.00    +0.000 C 
BRANCH  16  17
ATOM     17  C   UNL     1      45.971   3.176   7.962  0.00  0.00    +0.000 A 
ATOM     18  C   UNL     1      46.740   3.271   6.810  0.00  0.00    +0.000 A 
ATOM     19  C   UNL     1      47.341   2.124   6.311  0.00  0.00    +0.000 A 
ATOM     20  C   UNL     1      47.148   0.939   6.994  0.00  0.00    +0.000 A 
ATOM     21  N   UNL     1      46.407   0.866   8.115  0.00  0.00    +0.000 NA
ATOM     22  N   UNL     1      45.816   1.997   8.605  0.00  0.00    +0.000 NA
ENDBRANCH  16  17
ENDBRANCH  15  16
ENDBRANCH  14  15
ENDBRANCH   4  14
TORSDOF 6
ENDMDL
MODEL 2
REMARK VINA RESULT:    -7.529      1.094      1.315
REMARK INTER + INTRA:         -10.855
REMARK INTER:                 -10.246
REMARK INTRA:                  -0.609
REMARK UNBOUND:                -0.684
REMARK  Name = 
REMARK  8 active torsions:
REMARK  status: ('A' for Active; 'I' for Inactive)
REMARK    1  A    between atoms: C_1  and  C_2
REMARK    2  A    between atoms: C_2  and  C_3
REMARK    3  A    between atoms: C_2  and  N_4
REMARK    4  A    between atoms: C_5  and  C_7
REMARK    5  A    between atoms: C_10  and  O_11
REMARK    6  A    between atoms: O_11  and  C_12
REMARK    7  A    between atoms: C_12  and  C_13
REMARK    8  A    between atoms: C_13  and  C_14
REMARK                            x       y       z     vdW  Elec       q    Type
REMARK                         _______ _______ _______ _____ _____    ______ ____
ROOT
ATOM      1  C   UNL     1      46.402   5.098  13.363  0.00  0.00    +0.000 A 
ATOM      2  C   UNL     1      46.451   6.012  12.307  0.00  0.00    +0.000 A 
ATOM      3  C   UNL     1      45.534   5.897  11.259  0.00  0.00    +0.000 A 
ATOM      4  C   UNL     1      44.587   4.882  11.319  0.00  0.00    +0.000 A 
ATOM      5  N   UNL     1      44.533   3.971  12.311  0.00  0.00    +0.000 NA
ATOM      6  C   UNL     1      45.450   4.090  13.303  0.00  0.00    +0.000 A 
ENDROOT
BRANCH   1   8
ATOM      7  N   UNL     1      46.980   4.343  15.603  0.00  0.00    +0.000 N 
ATOM      8  C   UNL     1      47.323   5.129  14.521  0.00  0.00    +0.000 C 
ATOM      9  O   UNL     1      48.341   5.810  14.471  0.00  0.00    +0.000 OA
ATOM     10  H   UNL     1      46.268   3.636  15.483  0.00  0.00    +0.000 HD
BRANCH   7  12
ATOM     11  C   UNL     1      47.158   4.897  17.971  0.00  0.00    +0.000 C 
ATOM     12  C   UNL     1      47.839   4.240  16.776  0.00  0.00    +0.000 C 
ATOM     13  C   UNL     1      48.183   2.784  17.080  0.00  0.00    +0.000 C 
ENDBRANCH   7  12
ENDBRANCH   1   8
BRANCH   4  14
ATOM     14  O   UNL     1      43.689   4.795  10.275  0.00  0.00    +0.000 OA
BRANCH  14  15
ATOM     15  C   UNL     1      44.316   4.347   9.066  0.00  0.00    +0.000 C 
BRANCH  15  16
ATOM     16  C   UNL     1      44.471   2.831   9.119  0.00  0.00    +0.000 C 
BRANCH  16  17
ATOM     17  C   UNL     1      45.635   2.375   8.286  0.00  0.00    +0.000 A 
ATOM     18  C   UNL     1      46.315   3.247   7.445  0.00  0.00    +0.000 A 
ATOM     19  C   UNL     1      47.398   2.767   6.721  0.00  0.00    +0.000 A 
ATOM     20  C   UNL     1      47.750   1.442   6.879  0.00  0.00    +0.000 A 
ATOM     21  N   UNL     1      47.086   0.613   7.706  0.00  0.00    +0.000 NA
ATOM     22  N   UNL     1      46.020   1.086   8.418  0.00  0.00    +0.000 NA
ENDBRANCH  16  17
ENDBRANCH  15  16
ENDBRANCH  14  15
ENDBRANCH   4  14
TORSDOF 6
ENDMDL
MODEL 3
REMARK VINA RESULT:    -7.420      1.383      1.611
REMARK INTER + INTRA:         -10.707
REMARK INTER:                 -10.037
REMARK INTRA:                  -0.670
REMARK UNBOUND:                -0.684
REMARK  Name = 
REMARK  8 active torsions:
REMARK  status: ('A' for Active; 'I' for Inactive)
REMARK    1  A    between atoms: C_1  and  C_2
REMARK    2  A    between atoms: C_2  and  C_3
REMARK    3  A    between atoms: C_2  and  N_4
REMARK    4  A    between atoms: C_5  and  C_7
REMARK    5  A    between atoms: C_10  and  O_11
REMARK    6  A    between atoms: O_11  and  C_12
REMARK    7  A    between atoms: C_12  and  C_13
REMARK    8  A    between atoms: C_13  and  C_14
REMARK                            x       y       z     vdW  Elec       q    Type
REMARK                         _______ _______ _______ _____ _____    ______ ____
ROOT
ATOM      1  C   UNL     1      46.919   5.531  13.077  0.00  0.00    +0.000 A 
ATOM      2  C   UNL     1      46.437   6.189  11.942  0.00  0.00    +0.000 A 
ATOM      3  C   UNL     1      45.384   5.623  11.219  0.00  0.00    +0.000 A 
ATOM      4  C   UNL     1      44.838   4.429  11.673  0.00  0.00    +0.000 A 
ATOM      5  N   UNL     1      45.300   3.759  12.749  0.00  0.00    +0.000 NA
ATOM      6  C   UNL     1      46.338   4.318  13.418  0.00  0.00    +0.000 A 
ENDROOT
BRANCH   1   8
ATOM      7  N   UNL     1      47.870   5.927  15.282  0.00  0.00    +0.000 N 
ATOM      8  C   UNL     1      48.028   6.042  13.915  0.00  0.00    +0.000 C 
ATOM      9  O   UNL     1      49.027   6.511  13.383  0.00  0.00    +0.000 OA
ATOM     10  H   UNL     1      47.142   5.323  15.638  0.00  0.00    +0.000 HD
BRANCH   7  12
ATOM     11  C   UNL     1      48.743   7.806  16.568  0.00  0.00    +0.000 C 
ATOM     12  C   UNL     1      48.919   6.335  16.208  0.00  0.00    +0.000 C 
ATOM     13  C   UNL     1      48.913   5.465  17.463  0.00  0.00    +0.000 C 
ENDBRANCH   7  12
ENDBRANCH   1   8
BRANCH   4  14
ATOM     14  O   UNL     1      43.794   3.895  10.944  0.00  0.00    +0.000 OA
BRANCH  14  15
ATOM     15  C   UNL     1      44.161   3.663   9.578  0.00  0.00    +0.000 C 
BRANCH  15  16
ATOM     16  C   UNL     1      44.745   2.261   9.451  0.00  0.00    +0.000 C 
BRANCH  16  17
ATOM     17  C   UNL     1      45.731   2.184   8.320  0.00  0.00    +0.000 A 
ATOM     18  C   UNL     1      45.984   3.276   7.498  0.00  0.00    +0.000 A 
ATOM     19  C   UNL     1      46.925   3.146   6.487  0.00  0.00    +0.000 A 
ATOM     20  C   UNL     1      47.571   1.933   6.351  0.00  0.00    +0.000 A 
ATOM     21  N   UNL     1      47.322   0.889   7.163  0.00  0.00    +0.000 NA
ATOM     22  N   UNL     1      46.395   1.018   8.159  0.00  0.00    +0.000 NA
ENDBRANCH  16  17
ENDBRANCH  15  16
ENDBRANCH  14  15
ENDBRANCH   4  14
TORSDOF 6
ENDMDL
MODEL 4
REMARK VINA RESULT:    -6.915      2.450      2.953
REMARK INTER + INTRA:         -10.024
REMARK INTER:                  -9.331
REMARK INTRA:                  -0.693
REMARK UNBOUND:                -0.684
REMARK  Name = 
REMARK  8 active torsions:
REMARK  status: ('A' for Active; 'I' for Inactive)
REMARK    1  A    between atoms: C_1  and  C_2
REMARK    2  A    between atoms: C_2  and  C_3
REMARK    3  A    between atoms: C_2  and  N_4
REMARK    4  A    between atoms: C_5  and  C_7
REMARK    5  A    between atoms: C_10  and  O_11
REMARK    6  A    between atoms: O_11  and  C_12
REMARK    7  A    between atoms: C_12  and  C_13
REMARK    8  A    between atoms: C_13  and  C_14
REMARK                            x       y       z     vdW  Elec       q    Type
REMARK                         _______ _______ _______ _____ _____    ______ ____
ROOT
ATOM      1  C   UNL     1      46.955   5.898  12.760  0.00  0.00    +0.000 A 
ATOM      2  C   UNL     1      46.347   4.837  13.436  0.00  0.00    +0.000 A 
ATOM      3  C   UNL     1      45.304   4.140  12.818  0.00  0.00    +0.000 A 
ATOM      4  C   UNL     1      44.926   4.519  11.536  0.00  0.00    +0.000 A 
ATOM      5  N   UNL     1      45.477   5.555  10.872  0.00  0.00    +0.000 NA
ATOM      6  C   UNL     1      46.469   6.229  11.504  0.00  0.00    +0.000 A 
ENDROOT
BRANCH   1   8
ATOM      7  N   UNL     1      48.268   7.946  12.762  0.00  0.00    +0.000 N 
ATOM      8  C   UNL     1      48.066   6.701  13.321  0.00  0.00    +0.000 C 
ATOM      9  O   UNL     1      48.729   6.256  14.250  0.00  0.00    +0.000 OA
ATOM     10  H   UNL     1      47.546   8.339  12.174  0.00  0.00    +0.000 HD
BRANCH   7  12
ATOM     11  C   UNL     1      49.877   9.663  12.120  0.00  0.00    +0.000 C 
ATOM     12  C   UNL     1      49.288   8.855  13.271  0.00  0.00    +0.000 C 
ATOM     13  C   UNL     1      48.717   9.778  14.345  0.00  0.00    +0.000 C 
ENDBRANCH   7  12
ENDBRANCH   1   8
BRANCH   4  14
ATOM     14  O   UNL     1      43.899   3.810  10.947  0.00  0.00    +0.000 OA
BRANCH  14  15
ATOM     15  C   UNL     1      44.143   3.576   9.554  0.00  0.00    +0.000 C 
BRANCH  15  16
ATOM     16  C   UNL     1      44.705   2.169   9.377  0.00  0.00    +0.000 C 
BRANCH  16  17
ATOM     17  C   UNL     1      45.752   2.135   8.301  0.00  0.00    +0.000 A 
ATOM     18  C   UNL     1      46.066   3.264   7.553  0.00  0.00    +0.000 A 
ATOM     19  C   UNL     1      47.061   3.171   6.590  0.00  0.00    +0.000 A 
ATOM     20  C   UNL     1      47.696   1.956   6.426  0.00  0.00    +0.000 A 
ATOM     21  N   UNL     1      47.387   0.875   7.166  0.00  0.00    +0.000 NA
ATOM     22  N   UNL     1      46.407   0.968   8.114  0.00  0.00    +0.000 NA
ENDBRANCH  16  17
ENDBRANCH  15  16
ENDBRANCH  14  15
ENDBRANCH   4  14
TORSDOF 6
ENDMDL
MODEL 5
REMARK VINA RESULT:    -6.534      3.033      3.905
REMARK INTER + INTRA:          -9.510
REMARK INTER:                  -8.733
REMARK INTRA:                  -0.777
REMARK UNBOUND:                -0.684
REMARK  Name = 
REMARK  8 active torsions:
REMARK  status: ('A' for Active; 'I' for Inactive)
REMARK    1  A    between atoms: C_1  and  C_2
REMARK    2  A    between atoms: C_2  and  C_3
REMARK    3  A    between atoms: C_2  and  N_4
REMARK    4  A    between atoms: C_5  and  C_7
REMARK    5  A    between atoms: C_10  and  O_11
REMARK    6  A    between atoms: O_11  and  C_12
REMARK    7  A    between atoms: C_12  and  C_13
REMARK    8  A    between atoms: C_13  and  C_14
REMARK                            x       y       z     vdW  Elec       q    Type
REMARK                         _______ _______ _______ _____ _____    ______ ____
ROOT
ATOM      1  C   UNL     1      47.165   6.375  13.104  0.00  0.00    +0.000 A 
ATOM      2  C   UNL     1      47.001   5.073  13.585  0.00  0.00    +0.000 A 
ATOM      3  C   UNL     1      45.747   4.462  13.492  0.00  0.00    +0.000 A 
ATOM      4  C   UNL     1      44.709   5.172  12.901  0.00  0.00    +0.000 A 
ATOM      5  N   UNL     1      44.832   6.438  12.453  0.00  0.00    +0.000 NA
ATOM      6  C   UNL     1      46.052   7.015  12.578  0.00  0.00    +0.000 A 
ENDROOT
BRANCH   1   8
ATOM      7  N   UNL     1      48.879   7.674  11.967  0.00  0.00    +0.000 N 
ATOM      8  C   UNL     1      48.448   7.113  13.152  0.00  0.00    +0.000 C 
ATOM      9  O   UNL     1      49.049   7.219  14.214  0.00  0.00    +0.000 OA
ATOM     10  H   UNL     1      48.226   7.752  11.199  0.00  0.00    +0.000 HD
BRANCH   7  12
ATOM     11  C   UNL     1      51.105   7.807  10.981  0.00  0.00    +0.000 C 
ATOM     12  C   UNL     1      50.093   8.479  11.901  0.00  0.00    +0.000 C 
ATOM     13  C   UNL     1      49.787   9.898  11.427  0.00  0.00    +0.000 C 
ENDBRANCH   7  12
ENDBRANCH   1   8
BRANCH   4  14
ATOM     14  O   UNL     1      43.484   4.543  12.815  0.00  0.00    +0.000 OA
BRANCH  14  15
ATOM     15  C   UNL     1      43.106   4.290  11.456  0.00  0.00    +0.000 C 
BRANCH  15  16
ATOM     16  C   UNL     1      43.720   2.968  11.007  0.00  0.00    +0.000 C 
BRANCH  16  17
ATOM     17  C   UNL     1      44.609   3.160   9.813  0.00  0.00    +0.000 A 
ATOM     18  C   UNL     1      45.121   2.081   9.104  0.00  0.00    +0.000 A 
ATOM     19  C   UNL     1      45.917   2.328   7.994  0.00  0.00    +0.000 A 
ATOM     20  C   UNL     1      46.156   3.643   7.644  0.00  0.00    +0.000 A 
ATOM     21  N   UNL     1      45.642   4.677   8.336  0.00  0.00    +0.000 NA
ATOM     22  N   UNL     1      44.859   4.432   9.429  0.00  0.00    +0.000 NA
ENDBRANCH  16  17
ENDBRANCH  15  16
ENDBRANCH  14  15
ENDBRANCH   4  14
TORSDOF 6
ENDMDL
MODEL 6
REMARK VINA RESULT:    -6.526      1.838      2.467
REMARK INTER + INTRA:          -9.499
REMARK INTER:                  -8.911
REMARK INTRA:                  -0.588
REMARK UNBOUND:                -0.684
REMARK  Name = 
REMARK  8 active torsions:
REMARK  status: ('A' for Active; 'I' for Inactive)
REMARK    1  A    between atoms: C_1  and  C_2
REMARK    2  A    between atoms: C_2  and  C_3
REMARK    3  A    between atoms: C_2  and  N_4
REMARK    4  A    between atoms: C_5  and  C_7
REMARK    5  A    between atoms: C_10  and  O_11
REMARK    6  A    between atoms: O_11  and  C_12
REMARK    7  A    between atoms: C_12  and  C_13
REMARK    8  A    between atoms: C_13  and  C_14
REMARK                            x       y       z     vdW  Elec       q    Type
REMARK                         _______ _______ _______ _____ _____    ______ ____
ROOT
ATOM      1  C   UNL     1      47.676   5.632  14.760  0.00  0.00    +0.000 A 
ATOM      2  C   UNL     1      46.808   4.556  14.552  0.00  0.00    +0.000 A 
ATOM      3  C   UNL     1      46.090   4.478  13.355  0.00  0.00    +0.000 A 
ATOM      4  C   UNL     1      46.286   5.470  12.402  0.00  0.00    +0.000 A 
ATOM      5  N   UNL     1      47.096   6.532  12.587  0.00  0.00    +0.000 NA
ATOM      6  C   UNL     1      47.761   6.597  13.766  0.00  0.00    +0.000 A 
ENDROOT
BRANCH   1   8
ATOM      7  N   UNL     1      47.806   5.721  17.188  0.00  0.00    +0.000 N 
ATOM      8  C   UNL     1      48.483   5.811  15.988  0.00  0.00    +0.000 C 
ATOM      9  O   UNL     1      49.690   6.001  15.901  0.00  0.00    +0.000 OA
ATOM     10  H   UNL     1      46.874   5.330  17.193  0.00  0.00    +0.000 HD
BRANCH   7  12
ATOM     11  C   UNL     1      47.763   6.784  19.382  0.00  0.00    +0.000 C 
ATOM     12  C   UNL     1      48.501   5.815  18.466  0.00  0.00    +0.000 C 
ATOM     13  C   UNL     1      48.634   4.443  19.123  0.00  0.00    +0.000 C 
ENDBRANCH   7  12
ENDBRANCH   1   8
BRANCH   4  14
ATOM     14  O   UNL     1      45.570   5.365  11.227  0.00  0.00    +0.000 OA
BRANCH  14  15
ATOM     15  C   UNL     1      44.767   4.178  11.194  0.00  0.00    +0.000 C 
BRANCH  15  16
ATOM     16  C   UNL     1      44.162   4.024   9.803  0.00  0.00    +0.000 C 
BRANCH  16  17
ATOM     17  C   UNL     1      45.173   3.491   8.828  0.00  0.00    +0.000 A 
ATOM     18  C   UNL     1      45.523   2.146   8.803  0.00  0.00    +0.000 A 
ATOM     19  C   UNL     1      46.445   1.714   7.861  0.00  0.00    +0.000 A 
ATOM     20  C   UNL     1      46.968   2.646   6.986  0.00  0.00    +0.000 A 
ATOM     21  N   UNL     1      46.609   3.944   7.018  0.00  0.00    +0.000 NA
ATOM     22  N   UNL     1      45.701   4.368   7.946  0.00  0.00    +0.000 NA
ENDBRANCH  16  17
ENDBRANCH  15  16
ENDBRANCH  14  15
ENDBRANCH   4  14
TORSDOF 6
ENDMDL
MODEL 7
REMARK VINA RESULT:    -6.427      2.626      6.944
REMARK INTER + INTRA:          -9.366
REMARK INTER:                  -8.786
REMARK INTRA:                  -0.580
REMARK UNBOUND:                -0.684
REMARK  Name = 
REMARK  8 active torsions:
REMARK  status: ('A' for Active; 'I' for Inactive)
REMARK    1  A    between atoms: C_1  and  C_2
REMARK    2  A    between atoms: C_2  and  C_3
REMARK    3  A    between atoms: C_2  and  N_4
REMARK    4  A    between atoms: C_5  and  C_7
REMARK    5  A    between atoms: C_10  and  O_11
REMARK    6  A    between atoms: O_11  and  C_12
REMARK    7  A    between atoms: C_12  and  C_13
REMARK    8  A    between atoms: C_13  and  C_14
REMARK                            x       y       z     vdW  Elec       q    Type
REMARK                         _______ _______ _______ _____ _____    ______ ____
ROOT
ATOM      1  C   UNL     1      44.832   2.868   9.282  0.00  0.00    +0.000 A 
ATOM      2  C   UNL     1      44.739   4.262   9.264  0.00  0.00    +0.000 A 
ATOM      3  C   UNL     1      43.969   4.909  10.236  0.00  0.00    +0.000 A 
ATOM      4  C   UNL     1      43.339   4.135  11.202  0.00  0.00    +0.000 A 
ATOM      5  N   UNL     1      43.390   2.788  11.227  0.00  0.00    +0.000 NA
ATOM      6  C   UNL     1      44.123   2.185  10.259  0.00  0.00    +0.000 A 
ENDROOT
BRANCH   1   8
ATOM      7  N   UNL     1      46.180   2.791   7.258  0.00  0.00    +0.000 N 
ATOM      8  C   UNL     1      45.619   2.085   8.303  0.00  0.00    +0.000 C 
ATOM      9  O   UNL     1      45.763   0.879   8.464  0.00  0.00    +0.000 OA
ATOM     10  H   UNL     1      46.222   3.799   7.319  0.00  0.00    +0.000 HD
BRANCH   7  12
ATOM     11  C   UNL     1      46.936   2.890   4.941  0.00  0.00    +0.000 C 
ATOM     12  C   UNL     1      47.029   2.142   6.266  0.00  0.00    +0.000 C 
ATOM     13  C   UNL     1      48.477   2.067   6.746  0.00  0.00    +0.000 C 
ENDBRANCH   7  12
ENDBRANCH   1   8
BRANCH   4  14
ATOM     14  O   UNL     1      42.592   4.799  12.153  0.00  0.00    +0.000 OA
BRANCH  14  15
ATOM     15  C   UNL     1      43.387   5.719  12.912  0.00  0.00    +0.000 C 
BRANCH  15  16
ATOM     16  C   UNL     1      44.588   4.978  13.491  0.00  0.00    +0.000 C 
BRANCH  16  17
ATOM     17  C   UNL     1      45.867   5.709  13.202  0.00  0.00    +0.000 A 
ATOM     18  C   UNL     1      45.870   7.017  12.734  0.00  0.00    +0.000 A 
ATOM     19  C   UNL     1      47.088   7.643  12.510  0.00  0.00    +0.000 A 
ATOM     20  C   UNL     1      48.243   6.933  12.771  0.00  0.00    +0.000 A 
ATOM     21  N   UNL     1      48.222   5.669  13.233  0.00  0.00    +0.000 NA
ATOM     22  N   UNL     1      47.022   5.053  13.453  0.00  0.00    +0.000 NA
ENDBRANCH  16  17
ENDBRANCH  15  16
ENDBRANCH  14  15
ENDBRANCH   4  14
TORSDOF 6
ENDMDL
MODEL 8
REMARK VINA RESULT:    -5.762      2.837      8.039
REMARK INTER + INTRA:          -8.467
REMARK INTER:                  -7.908
REMARK INTRA:                  -0.559
REMARK UNBOUND:                -0.684
REMARK  Name = 
REMARK  8 active torsions:
REMARK  status: ('A' for Active; 'I' for Inactive)
REMARK    1  A    between atoms: C_1  and  C_2
REMARK    2  A    between atoms: C_2  and  C_3
REMARK    3  A    between atoms: C_2  and  N_4
REMARK    4  A    between atoms: C_5  and  C_7
REMARK    5  A    between atoms: C_10  and  O_11
REMARK    6  A    between atoms: O_11  and  C_12
REMARK    7  A    between atoms: C_12  and  C_13
REMARK    8  A    between atoms: C_13  and  C_14
REMARK                            x       y       z     vdW  Elec       q    Type
REMARK                         _______ _______ _______ _____ _____    ______ ____
ROOT
ATOM      1  C   UNL     1      46.359   5.624  13.325  0.00  0.00    +0.000 A 
ATOM      2  C   UNL     1      47.146   6.761  13.126  0.00  0.00    +0.000 A 
ATOM      3  C   UNL     1      48.252   6.983  13.952  0.00  0.00    +0.000 A 
ATOM      4  C   UNL     1      48.540   6.043  14.934  0.00  0.00    +0.000 A 
ATOM      5  N   UNL     1      47.783   4.952  15.167  0.00  0.00    +0.000 NA
ATOM      6  C   UNL     1      46.703   4.774  14.367  0.00  0.00    +0.000 A 
ENDROOT
BRANCH   1   8
ATOM      7  N   UNL     1      45.304   4.244  11.621  0.00  0.00    +0.000 N 
ATOM      8  C   UNL     1      45.170   5.293  12.508  0.00  0.00    +0.000 C 
ATOM      9  O   UNL     1      44.131   5.925  12.662  0.00  0.00    +0.000 OA
ATOM     10  H   UNL     1      46.097   3.624  11.717  0.00  0.00    +0.000 HD
BRANCH   7  12
ATOM     11  C   UNL     1      44.711   3.063   9.572  0.00  0.00    +0.000 C 
ATOM     12  C   UNL     1      44.185   3.783  10.809  0.00  0.00    +0.000 C 
ATOM     13  C   UNL     1      43.259   2.874  11.613  0.00  0.00    +0.000 C 
ENDBRANCH   7  12
ENDBRANCH   1   8
BRANCH   4  14
ATOM     14  O   UNL     1      49.640   6.283  15.732  0.00  0.00    +0.000 OA
BRANCH  14  15
ATOM     15  C   UNL     1      49.520   5.650  17.012  0.00  0.00    +0.000 C 
BRANCH  15  16
ATOM     16  C   UNL     1      50.914   5.353  17.554  0.00  0.00    +0.000 C 
BRANCH  16  17
ATOM     17  C   UNL     1      51.210   3.881  17.512  0.00  0.00    +0.000 A 
ATOM     18  C   UNL     1      52.402   3.363  18.002  0.00  0.00    +0.000 A 
ATOM     19  C   UNL     1      52.603   1.991  17.956  0.00  0.00    +0.000 A 
ATOM     20  C   UNL     1      51.598   1.204  17.429  0.00  0.00    +0.000 A 
ATOM     21  N   UNL     1      50.444   1.721  16.968  0.00  0.00    +0.000 NA
ATOM     22  N   UNL     1      50.248   3.073  17.014  0.00  0.00    +0.000 NA
ENDBRANCH  16  17
ENDBRANCH  15  16
ENDBRANCH  14  15
ENDBRANCH   4  14
TORSDOF 6
ENDMDL
MODEL 9
REMARK VINA RESULT:    -5.332      2.797      7.847
REMARK INTER + INTRA:          -7.886
REMARK INTER:                  -7.033
REMARK INTRA:                  -0.853
REMARK UNBOUND:                -0.684
REMARK  Name = 
REMARK  8 active torsions:
REMARK  status: ('A' for Active; 'I' for Inactive)
REMARK    1  A    between atoms: C_1  and  C_2
REMARK    2  A    between atoms: C_2  and  C_3
REMARK    3  A    between atoms: C_2  and  N_4
REMARK    4  A    between atoms: C_5  and  C_7
REMARK    5  A    between atoms: C_10  and  O_11
REMARK    6  A    between atoms: O_11  and  C_12
REMARK    7  A    between atoms: C_12  and  C_13
REMARK    8  A    between atoms: C_13  and  C_14
REMARK                            x       y       z     vdW  Elec       q    Type
REMARK                         _______ _______ _______ _____ _____    ______ ____
ROOT
ATOM      1  C   UNL     1      46.110   6.678  12.345  0.00  0.00    +0.000 A 
ATOM      2  C   UNL     1      47.299   5.986  12.591  0.00  0.00    +0.000 A 
ATOM      3  C   UNL     1      48.277   6.572  13.399  0.00  0.00    +0.000 A 
ATOM      4  C   UNL     1      48.017   7.822  13.948  0.00  0.00    +0.000 A 
ATOM      5  N   UNL     1      46.891   8.523  13.706  0.00  0.00    +0.000 NA
ATOM      6  C   UNL     1      45.970   7.942  12.900  0.00  0.00    +0.000 A 
ENDROOT
BRANCH   1   8
ATOM      7  N   UNL     1      45.234   4.934  10.892  0.00  0.00    +0.000 N 
ATOM      8  C   UNL     1      45.010   6.149  11.506  0.00  0.00    +0.000 C 
ATOM      9  O   UNL     1      43.962   6.777  11.411  0.00  0.00    +0.000 OA
ATOM     10  H   UNL     1      46.012   4.368  11.202  0.00  0.00    +0.000 HD
BRANCH   7  12
ATOM     11  C   UNL     1      44.682   4.140   8.653  0.00  0.00    +0.000 C 
ATOM     12  C   UNL     1      44.204   4.280  10.094  0.00  0.00    +0.000 C 
ATOM     13  C   UNL     1      43.836   2.918  10.678  0.00  0.00    +0.000 C 
ENDBRANCH   7  12
ENDBRANCH   1   8
BRANCH   4  14
ATOM     14  O   UNL     1      48.997   8.375  14.748  0.00  0.00    +0.000 OA
BRANCH  14  15
ATOM     15  C   UNL     1      48.865   7.966  16.115  0.00  0.00    +0.000 C 
BRANCH  15  16
ATOM     16  C   UNL     1      50.050   7.082  16.487  0.00  0.00    +0.000 C 
BRANCH  16  17
ATOM     17  C   UNL     1      49.607   5.679  16.787  0.00  0.00    +0.000 A 
ATOM     18  C   UNL     1      48.262   5.333  16.833  0.00  0.00    +0.000 A 
ATOM     19  C   UNL     1      47.920   4.013  17.091  0.00  0.00    +0.000 A 
ATOM     20  C   UNL     1      48.940   3.102  17.283  0.00  0.00    +0.000 A 
ATOM     21  N   UNL     1      50.239   3.452  17.224  0.00  0.00    +0.000 NA
ATOM     22  N   UNL     1      50.574   4.752  16.970  0.00  0.00    +0.000 NA
ENDBRANCH  16  17
ENDBRANCH  15  16
ENDBRANCH  14  15
ENDBRANCH   4  14
TORSDOF 6
ENDMDL
