MODEL 1
REMARK VINA RESULT:    -8.467      0.000      0.000
REMARK INTER + INTRA:         -12.772
REMARK INTER:                 -12.179
REMARK INTRA:                  -0.593
REMARK UNBOUND:                -0.593
REMARK  Name = 
REMARK  8 active torsions:
REMARK  status: ('A' for Active; 'I' for Inactive)
REMARK    1  A    between atoms: C_2  and  C_4
REMARK    2  A    between atoms: C_7  and  N_8
REMARK    3  A    between atoms: N_8  and  C_9
REMARK    4  A    between atoms: C_9  and  C_10
REMARK    5  A    between atoms: C_10  and  N_11
REMARK    6  A    between atoms: C_13  and  N_14
REMARK    7  A    between atoms: N_14  and  C_15
REMARK    8  A    between atoms: C_17  and  O_18
REMARK                            x       y       z     vdW  Elec       q    Type
REMARK                         _______ _______ _______ _____ _____    ______ ____
ROOT
ATOM      1  C   UNL     1      43.951   4.956  11.324  0.00  0.00    +0.000 C 
ENDROOT
BRANCH   1   2
ATOM      2  N   UNL     1      43.766   4.813   9.878  0.00  0.00    +0.000 N 
ATOM      3  H   UNL     1      42.806   4.841   9.542  0.00  0.00    +0.000 HD
BRANCH   2   7
ATOM      4  C   UNL     1      46.356   2.219   7.772  0.00  0.00    +0.000 A 
ATOM      5  C   UNL     1      45.490   1.698   8.734  0.00  0.00    +0.000 A 
ATOM      6  C   UNL     1      44.611   2.542   9.421  0.00  0.00    +0.000 A 
ATOM      7  C   UNL     1      44.555   3.915   9.153  0.00  0.00    +0.000 A 
ATOM      8  C   UNL     1      45.439   4.426   8.193  0.00  0.00    +0.000 A 
ATOM      9  C   UNL     1      46.336   3.591   7.509  0.00  0.00    +0.000 A 
BRANCH   4  11
ATOM     10  N   UNL     1      48.482   1.973   6.605  0.00  0.00    +0.000 N 
ATOM     11  C   UNL     1      47.344   1.366   7.061  0.00  0.00    +0.000 C 
ATOM     12  O   UNL     1      47.167   0.165   6.908  0.00  0.00    +0.000 OA
ATOM     13  H   UNL     1      49.181   1.367   6.194  0.00  0.00    +0.000 HD
ATOM     14  H   UNL     1      48.777   2.886   6.916  0.00  0.00    +0.000 HD
ENDBRANCH   4  11
ENDBRANCH   2   7
ENDBRANCH   1   2
BRANCH   1  15
ATOM     15  C   UNL     1      45.265   5.656  11.653  0.00  0.00    +0.000 C 
BRANCH  15  16
ATOM     16  N   UNL     1      45.892   5.078  12.821  0.00  0.00    +0.000 N 
ATOM     17  C   UNL     1      46.508   5.730  13.849  0.00  0.00    +0.000 A 
ATOM     18  C   UNL     1      46.963   4.712  14.647  0.00  0.00    +0.000 A 
ATOM     19  N   UNL     1      46.587   3.509  14.124  0.00  0.00    +0.000 NA
ATOM     20  N   UNL     1      45.928   3.745  12.992  0.00  0.00    +0.000 NA
BRANCH  18  21
ATOM     21  N   UNL     1      47.683   4.874  15.773  0.00  0.00    +0.000 N 
ATOM     22  H   UNL     1      48.161   5.758  15.910  0.00  0.00    +0.000 HD
BRANCH  21  23
ATOM     23  C   UNL     1      47.471   4.118  16.970  0.00  0.00    +0.000 C 
ATOM     24  C   UNL     1      47.853   4.909  18.237  0.00  0.00    +0.000 C 
ATOM     25  C   UNL     1      48.738   3.730  18.683  0.00  0.00    +0.000 C 
ATOM     26  C   UNL     1      48.635   3.148  17.259  0.00  0.00    +0.000 C 
BRANCH  25  27
ATOM     27  O   UNL     1      48.234   2.911  19.755  0.00  0.00    +0.000 OA
ATOM     28  H   UNL     1      47.622   2.274  19.342  0.00  0.00    +0.000 HD
ENDBRANCH  25  27
ENDBRANCH  21  23
ENDBRANCH  18  21
ENDBRANCH  15  16
ENDBRANCH   1  15
TORSDOF 8
ENDMDL
MODEL 2
REMARK VINA RESULT:    -8.186      3.132      3.568
REMARK INTER + INTRA:         -12.368
REMARK INTER:                 -11.545
REMARK INTRA:                  -0.823
REMARK UNBOUND:                -0.593
REMARK  Name = 
REMARK  8 active torsions:
REMARK  status: ('A' for Active; 'I' for Inactive)
REMARK    1  A    between atoms: C_2  and  C_4
REMARK    2  A    between atoms: C_7  and  N_8
REMARK    3  A    between atoms: N_8  and  C_9
REMARK    4  A    between atoms: C_9  and  C_10
REMARK    5  A    between atoms: C_10  and  N_11
REMARK    6  A    between atoms: C_13  and  N_14
REMARK    7  A    between atoms: N_14  and  C_15
REMARK    8  A    between atoms: C_17  and  O_18
REMARK                            x       y       z     vdW  Elec       q    Type
REMARK                         _______ _______ _______ _____ _____    ______ ____
ROOT
ATOM      1  C   UNL     1      43.006   4.015  11.298  0.00  0.00    +0.000 C 
ENDROOT
BRANCH   1   2
ATOM      2  N   UNL     1      43.779   4.655  10.232  0.00  0.00    +0.000 N 
ATOM      3  H   UNL     1      43.322   5.420   9.740  0.00  0.00    +0.000 HD
BRANCH   2   7
ATOM      4  C   UNL     1      46.403   2.446   7.760  0.00  0.00    +0.000 A 
ATOM      5  C   UNL     1      45.599   1.777   8.684  0.00  0.00    +0.000 A 
ATOM      6  C   UNL     1      44.709   2.495   9.491  0.00  0.00    +0.000 A 
ATOM      7  C   UNL     1      44.580   3.885   9.383  0.00  0.00    +0.000 A 
ATOM      8  C   UNL     1      45.404   4.543   8.460  0.00  0.00    +0.000 A 
ATOM      9  C   UNL     1      46.311   3.836   7.657  0.00  0.00    +0.000 A 
BRANCH   4  11
ATOM     10  N   UNL     1      48.497   2.437   6.510  0.00  0.00    +0.000 N 
ATOM     11  C   UNL     1      47.402   1.729   6.926  0.00  0.00    +0.000 C 
ATOM     12  O   UNL     1      47.272   0.546   6.638  0.00  0.00    +0.000 OA
ATOM     13  H   UNL     1      49.206   1.915   6.011  0.00  0.00    +0.000 HD
ATOM     14  H   UNL     1      48.763   3.320   6.918  0.00  0.00    +0.000 HD
ENDBRANCH   4  11
ENDBRANCH   2   7
ENDBRANCH   1   2
BRANCH   1  15
ATOM     15  C   UNL     1      43.073   4.815  12.595  0.00  0.00    +0.000 C 
BRANCH  15  16
ATOM     16  N   UNL     1      44.442   5.083  12.979  0.00  0.00    +0.000 N 
ATOM     17  C   UNL     1      45.064   6.294  13.062  0.00  0.00    +0.000 A 
ATOM     18  C   UNL     1      46.349   5.969  13.416  0.00  0.00    +0.000 A 
ATOM     19  N   UNL     1      46.458   4.619  13.576  0.00  0.00    +0.000 NA
ATOM     20  N   UNL     1      45.275   4.078  13.300  0.00  0.00    +0.000 NA
BRANCH  18  21
ATOM     21  N   UNL     1      47.355   6.851  13.572  0.00  0.00    +0.000 N 
ATOM     22  H   UNL     1      47.336   7.457  14.385  0.00  0.00    +0.000 HD
BRANCH  21  23
ATOM     23  C   UNL     1      48.644   6.703  12.967  0.00  0.00    +0.000 C 
ATOM     24  C   UNL     1      49.728   7.523  13.694  0.00  0.00    +0.000 C 
ATOM     25  C   UNL     1      50.128   8.153  12.346  0.00  0.00    +0.000 C 
ATOM     26  C   UNL     1      48.818   7.617  11.736  0.00  0.00    +0.000 C 
BRANCH  25  27
ATOM     27  O   UNL     1      51.356   7.688  11.753  0.00  0.00    +0.000 OA
ATOM     28  H   UNL     1      51.238   6.731  11.606  0.00  0.00    +0.000 HD
ENDBRANCH  25  27
ENDBRANCH  21  23
ENDBRANCH  18  21
ENDBRANCH  15  16
ENDBRANCH   1  15
TORSDOF 8
ENDMDL
MODEL 3
REMARK VINA RESULT:    -7.439      1.804      2.210
REMARK INTER + INTRA:         -11.294
REMARK INTER:                 -10.965
REMARK INTRA:                  -0.328
REMARK UNBOUND:                -0.593
REMARK  Name = 
REMARK  8 active torsions:
REMARK  status: ('A' for Active; 'I' for Inactive)
REMARK    1  A    between atoms: C_2  and  C_4
REMARK    2  A    between atoms: C_7  and  N_8
REMARK    3  A    between atoms: N_8  and  C_9
REMARK    4  A    between atoms: C_9  and  C_10
REMARK    5  A    between atoms: C_10  and  N_11
REMARK    6  A    between atoms: C_13  and  N_14
REMARK    7  A    between atoms: N_14  and  C_15
REMARK    8  A    between atoms: C_17  and  O_18
REMARK                            x       y       z     vdW  Elec       q    Type
REMARK                         _______ _______ _______ _____ _____    ______ ____
ROOT
ATOM      1  C   UNL     1      44.064   5.512  11.111  0.00  0.00    +0.000 C 
ENDROOT
BRANCH   1   2
ATOM      2  N   UNL     1      43.689   4.659   9.981  0.00  0.00    +0.000 N 
ATOM      3  H   UNL     1      42.810   4.153  10.070  0.00  0.00    +0.000 HD
BRANCH   2   7
ATOM      4  C   UNL     1      46.444   2.279   7.832  0.00  0.00    +0.000 A 
ATOM      5  C   UNL     1      46.429   3.661   7.639  0.00  0.00    +0.000 A 
ATOM      6  C   UNL     1      45.538   4.462   8.362  0.00  0.00    +0.000 A 
ATOM      7  C   UNL     1      44.662   3.915   9.307  0.00  0.00    +0.000 A 
ATOM      8  C   UNL     1      44.680   2.524   9.480  0.00  0.00    +0.000 A 
ATOM      9  C   UNL     1      45.558   1.709   8.749  0.00  0.00    +0.000 A 
BRANCH   4  11
ATOM     10  N   UNL     1      48.453   1.946   6.491  0.00  0.00    +0.000 N 
ATOM     11  C   UNL     1      47.333   1.386   7.044  0.00  0.00    +0.000 C 
ATOM     12  O   UNL     1      47.095   0.193   6.910  0.00  0.00    +0.000 OA
ATOM     13  H   UNL     1      49.089   1.312   6.025  0.00  0.00    +0.000 HD
ATOM     14  H   UNL     1      48.810   2.847   6.774  0.00  0.00    +0.000 HD
ENDBRANCH   4  11
ENDBRANCH   2   7
ENDBRANCH   1   2
BRANCH   1  15
ATOM     15  C   UNL     1      44.227   4.703  12.393  0.00  0.00    +0.000 C 
BRANCH  15  16
ATOM     16  N   UNL     1      45.536   4.896  12.976  0.00  0.00    +0.000 N 
ATOM     17  C   UNL     1      46.241   6.059  13.079  0.00  0.00    +0.000 A 
ATOM     18  C   UNL     1      47.421   5.668  13.657  0.00  0.00    +0.000 A 
ATOM     19  N   UNL     1      47.386   4.331  13.923  0.00  0.00    +0.000 NA
ATOM     20  N   UNL     1      46.218   3.860  13.494  0.00  0.00    +0.000 NA
BRANCH  18  21
ATOM     21  N   UNL     1      48.463   6.481  13.916  0.00  0.00    +0.000 N 
ATOM     22  H   UNL     1      48.859   7.009  13.145  0.00  0.00    +0.000 HD
BRANCH  21  23
ATOM     23  C   UNL     1      48.761   7.005  15.215  0.00  0.00    +0.000 C 
ATOM     24  C   UNL     1      50.276   7.032  15.501  0.00  0.00    +0.000 C 
ATOM     25  C   UNL     1      50.021   6.275  16.818  0.00  0.00    +0.000 C 
ATOM     26  C   UNL     1      48.600   5.942  16.321  0.00  0.00    +0.000 C 
BRANCH  25  27
ATOM     27  O   UNL     1      50.120   7.040  18.034  0.00  0.00    +0.000 OA
ATOM     28  H   UNL     1      49.345   6.792  18.572  0.00  0.00    +0.000 HD
ENDBRANCH  25  27
ENDBRANCH  21  23
ENDBRANCH  18  21
ENDBRANCH  15  16
ENDBRANCH   1  15
TORSDOF 8
ENDMDL
MODEL 4
REMARK VINA RESULT:    -7.397      3.759      7.824
REMARK INTER + INTRA:         -11.233
REMARK INTER:                 -10.416
REMARK INTRA:                  -0.817
REMARK UNBOUND:                -0.593
REMARK  Name = 
REMARK  8 active torsions:
REMARK  status: ('A' for Active; 'I' for Inactive)
REMARK    1  A    between atoms: C_2  and  C_4
REMARK    2  A    between atoms: C_7  and  N_8
REMARK    3  A    between atoms: N_8  and  C_9
REMARK    4  A    between atoms: C_9  and  C_10
REMARK    5  A    between atoms: C_10  and  N_11
REMARK    6  A    between atoms: C_13  and  N_14
REMARK    7  A    between atoms: N_14  and  C_15
REMARK    8  A    between atoms: C_17  and  O_18
REMARK                            x       y       z     vdW  Elec       q    Type
REMARK                         _______ _______ _______ _____ _____    ______ ____
ROOT
ATOM      1  C   UNL     1      44.176   4.899  13.245  0.00  0.00    +0.000 C 
ENDROOT
BRANCH   1   2
ATOM      2  N   UNL     1      44.341   6.312  12.897  0.00  0.00    +0.000 N 
ATOM      3  H   UNL     1      43.702   6.681  12.197  0.00  0.00    +0.000 HD
BRANCH   2   7
ATOM      4  C   UNL     1      48.258   7.820  12.391  0.00  0.00    +0.000 A 
ATOM      5  C   UNL     1      47.163   8.659  12.178  0.00  0.00    +0.000 A 
ATOM      6  C   UNL     1      45.862   8.178  12.365  0.00  0.00    +0.000 A 
ATOM      7  C   UNL     1      45.621   6.866  12.790  0.00  0.00    +0.000 A 
ATOM      8  C   UNL     1      46.730   6.033  12.987  0.00  0.00    +0.000 A 
ATOM      9  C   UNL     1      48.038   6.499  12.787  0.00  0.00    +0.000 A 
BRANCH   4  11
ATOM     10  N   UNL     1      50.651   7.614  12.810  0.00  0.00    +0.000 N 
ATOM     11  C   UNL     1      49.652   8.274  12.147  0.00  0.00    +0.000 C 
ATOM     12  O   UNL     1      49.908   9.183  11.369  0.00  0.00    +0.000 OA
ATOM     13  H   UNL     1      51.598   7.880  12.574  0.00  0.00    +0.000 HD
ATOM     14  H   UNL     1      50.512   6.721  13.259  0.00  0.00    +0.000 HD
ENDBRANCH   4  11
ENDBRANCH   2   7
ENDBRANCH   1   2
BRANCH   1  15
ATOM     15  C   UNL     1      43.116   4.229  12.378  0.00  0.00    +0.000 C 
BRANCH  15  16
ATOM     16  N   UNL     1      43.643   3.880  11.077  0.00  0.00    +0.000 N 
ATOM     17  C   UNL     1      44.115   2.670  10.663  0.00  0.00    +0.000 A 
ATOM     18  C   UNL     1      44.530   2.910   9.379  0.00  0.00    +0.000 A 
ATOM     19  N   UNL     1      44.268   4.205   9.041  0.00  0.00    +0.000 NA
ATOM     20  N   UNL     1      43.722   4.800  10.099  0.00  0.00    +0.000 NA
BRANCH  18  21
ATOM     21  N   UNL     1      45.119   2.005   8.573  0.00  0.00    +0.000 N 
ATOM     22  H   UNL     1      44.522   1.374   8.049  0.00  0.00    +0.000 HD
BRANCH  21  23
ATOM     23  C   UNL     1      46.444   2.147   8.050  0.00  0.00    +0.000 C 
ATOM     24  C   UNL     1      46.454   2.798   6.653  0.00  0.00    +0.000 C 
ATOM     25  C   UNL     1      47.309   1.626   6.134  0.00  0.00    +0.000 C 
ATOM     26  C   UNL     1      46.961   0.840   7.413  0.00  0.00    +0.000 C 
BRANCH  25  27
ATOM     27  O   UNL     1      48.704   1.897   5.900  0.00  0.00    +0.000 OA
ATOM     28  H   UNL     1      49.188   1.466   6.629  0.00  0.00    +0.000 HD
ENDBRANCH  25  27
ENDBRANCH  21  23
ENDBRANCH  18  21
ENDBRANCH  15  16
ENDBRANCH   1  15
TORSDOF 8
ENDMDL
MODEL 5
REMARK VINA RESULT:    -6.942      1.821      8.964
REMARK INTER + INTRA:         -10.579
REMARK INTER:                 -10.079
REMARK INTRA:                  -0.500
REMARK UNBOUND:                -0.593
REMARK  Name = 
REMARK  8 active torsions:
REMARK  status: ('A' for Active; 'I' for Inactive)
REMARK    1  A    between atoms: C_2  and  C_4
REMARK    2  A    between atoms: C_7  and  N_8
REMARK    3  A    between atoms: N_8  and  C_9
REMARK    4  A    between atoms: C_9  and  C_10
REMARK    5  A    between atoms: C_10  and  N_11
REMARK    6  A    between atoms: C_13  and  N_14
REMARK    7  A    between atoms: N_14  and  C_15
REMARK    8  A    between atoms: C_17  and  O_18
REMARK                            x       y       z     vdW  Elec       q    Type
REMARK                         _______ _______ _______ _____ _____    ______ ____
ROOT
ATOM      1  C   UNL     1      46.384   4.895  13.515  0.00  0.00    +0.000 C 
ENDROOT
BRANCH   1   2
ATOM      2  N   UNL     1      46.782   3.690  14.246  0.00  0.00    +0.000 N 
ATOM      3  H   UNL     1      46.109   2.927  14.256  0.00  0.00    +0.000 HD
BRANCH   2   7
ATOM      4  C   UNL     1      48.682   4.083  18.001  0.00  0.00    +0.000 A 
ATOM      5  C   UNL     1      48.656   2.840  17.368  0.00  0.00    +0.000 A 
ATOM      6  C   UNL     1      48.051   2.702  16.114  0.00  0.00    +0.000 A 
ATOM      7  C   UNL     1      47.482   3.795  15.451  0.00  0.00    +0.000 A 
ATOM      8  C   UNL     1      47.505   5.035  16.105  0.00  0.00    +0.000 A 
ATOM      9  C   UNL     1      48.094   5.182  17.370  0.00  0.00    +0.000 A 
BRANCH   4  11
ATOM     10  N   UNL     1      48.544   3.776  20.416  0.00  0.00    +0.000 N 
ATOM     11  C   UNL     1      49.263   4.260  19.358  0.00  0.00    +0.000 C 
ATOM     12  O   UNL     1      50.352   4.794  19.528  0.00  0.00    +0.000 OA
ATOM     13  H   UNL     1      48.988   3.832  21.324  0.00  0.00    +0.000 HD
ATOM     14  H   UNL     1      47.780   3.126  20.306  0.00  0.00    +0.000 HD
ENDBRANCH   4  11
ENDBRANCH   2   7
ENDBRANCH   1   2
BRANCH   1  15
ATOM     15  C   UNL     1      44.894   4.887  13.191  0.00  0.00    +0.000 C 
BRANCH  15  16
ATOM     16  N   UNL     1      44.611   4.073  12.029  0.00  0.00    +0.000 N 
ATOM     17  C   UNL     1      45.310   4.016  10.860  0.00  0.00    +0.000 A 
ATOM     18  C   UNL     1      44.586   3.136  10.097  0.00  0.00    +0.000 A 
ATOM     19  N   UNL     1      43.527   2.664  10.815  0.00  0.00    +0.000 NA
ATOM     20  N   UNL     1      43.547   3.252  12.008  0.00  0.00    +0.000 NA
BRANCH  18  21
ATOM     21  N   UNL     1      44.872   2.797   8.825  0.00  0.00    +0.000 N 
ATOM     22  H   UNL     1      44.157   2.942   8.120  0.00  0.00    +0.000 HD
BRANCH  21  23
ATOM     23  C   UNL     1      46.203   2.684   8.312  0.00  0.00    +0.000 C 
ATOM     24  C   UNL     1      46.297   3.110   6.833  0.00  0.00    +0.000 C 
ATOM     25  C   UNL     1      46.990   1.772   6.512  0.00  0.00    +0.000 C 
ATOM     26  C   UNL     1      46.543   1.240   7.888  0.00  0.00    +0.000 C 
BRANCH  25  27
ATOM     27  O   UNL     1      48.408   1.820   6.265  0.00  0.00    +0.000 OA
ATOM     28  H   UNL     1      48.510   2.092   5.334  0.00  0.00    +0.000 HD
ENDBRANCH  25  27
ENDBRANCH  21  23
ENDBRANCH  18  21
ENDBRANCH  15  16
ENDBRANCH   1  15
TORSDOF 8
ENDMDL
MODEL 6
REMARK VINA RESULT:    -6.696      3.514      5.057
REMARK INTER + INTRA:         -10.225
REMARK INTER:                  -9.885
REMARK INTRA:                  -0.340
REMARK UNBOUND:                -0.593
REMARK  Name = 
REMARK  8 active torsions:
REMARK  status: ('A' for Active; 'I' for Inactive)
REMARK    1  A    between atoms: C_2  and  C_4
REMARK    2  A    between atoms: C_7  and  N_8
REMARK    3  A    between atoms: N_8  and  C_9
REMARK    4  A    between atoms: C_9  and  C_10
REMARK    5  A    between atoms: C_10  and  N_11
REMARK    6  A    between atoms: C_13  and  N_14
REMARK    7  A    between atoms: N_14  and  C_15
REMARK    8  A    between atoms: C_17  and  O_18
REMARK                            x       y       z     vdW  Elec       q    Type
REMARK                         _______ _______ _______ _____ _____    ______ ____
ROOT
ATOM      1  C   UNL     1      47.227   4.440  15.022  0.00  0.00    +0.000 C 
ENDROOT
BRANCH   1   2
ATOM      2  N   UNL     1      45.878   4.686  14.509  0.00  0.00    +0.000 N 
ATOM      3  H   UNL     1      45.110   4.324  15.071  0.00  0.00    +0.000 HD
BRANCH   2   7
ATOM      4  C   UNL     1      45.340   4.471  10.322  0.00  0.00    +0.000 A 
ATOM      5  C   UNL     1      45.055   3.357  11.112  0.00  0.00    +0.000 A 
ATOM      6  C   UNL     1      45.206   3.423  12.502  0.00  0.00    +0.000 A 
ATOM      7  C   UNL     1      45.619   4.599  13.138  0.00  0.00    +0.000 A 
ATOM      8  C   UNL     1      45.913   5.706  12.330  0.00  0.00    +0.000 A 
ATOM      9  C   UNL     1      45.781   5.646  10.935  0.00  0.00    +0.000 A 
BRANCH   4  11
ATOM     10  N   UNL     1      44.170   3.780   8.298  0.00  0.00    +0.000 N 
ATOM     11  C   UNL     1      45.248   4.425   8.839  0.00  0.00    +0.000 C 
ATOM     12  O   UNL     1      46.083   4.963   8.124  0.00  0.00    +0.000 OA
ATOM     13  H   UNL     1      44.079   3.825   7.291  0.00  0.00    +0.000 HD
ATOM     14  H   UNL     1      43.349   3.542   8.834  0.00  0.00    +0.000 HD
ENDBRANCH   4  11
ENDBRANCH   2   7
ENDBRANCH   1   2
BRANCH   1  15
ATOM     15  C   UNL     1      47.193   3.700  16.356  0.00  0.00    +0.000 C 
BRANCH  15  16
ATOM     16  N   UNL     1      48.467   3.080  16.648  0.00  0.00    +0.000 N 
ATOM     17  C   UNL     1      49.311   3.354  17.683  0.00  0.00    +0.000 A 
ATOM     18  C   UNL     1      50.379   2.525  17.453  0.00  0.00    +0.000 A 
ATOM     19  N   UNL     1      50.144   1.764  16.345  0.00  0.00    +0.000 NA
ATOM     20  N   UNL     1      48.961   2.117  15.851  0.00  0.00    +0.000 NA
BRANCH  18  21
ATOM     21  N   UNL     1      51.497   2.477  18.202  0.00  0.00    +0.000 N 
ATOM     22  H   UNL     1      51.394   2.403  19.209  0.00  0.00    +0.000 HD
BRANCH  21  23
ATOM     23  C   UNL     1      52.775   2.069  17.701  0.00  0.00    +0.000 C 
ATOM     24  C   UNL     1      52.995   0.549  17.828  0.00  0.00    +0.000 C 
ATOM     25  C   UNL     1      54.331   0.821  18.544  0.00  0.00    +0.000 C 
ATOM     26  C   UNL     1      53.901   2.290  18.732  0.00  0.00    +0.000 C 
BRANCH  25  27
ATOM     27  O   UNL     1      55.532   0.590  17.783  0.00  0.00    +0.000 OA
ATOM     28  H   UNL     1      55.934  -0.217  18.154  0.00  0.00    +0.000 HD
ENDBRANCH  25  27
ENDBRANCH  21  23
ENDBRANCH  18  21
ENDBRANCH  15  16
ENDBRANCH   1  15
TORSDOF 8
ENDMDL
MODEL 7
REMARK VINA RESULT:    -6.616      3.351      3.747
REMARK INTER + INTRA:         -10.110
REMARK INTER:                  -9.632
REMARK INTRA:                  -0.479
REMARK UNBOUND:                -0.593
REMARK  Name = 
REMARK  8 active torsions:
REMARK  status: ('A' for Active; 'I' for Inactive)
REMARK    1  A    between atoms: C_2  and  C_4
REMARK    2  A    between atoms: C_7  and  N_8
REMARK    3  A    between atoms: N_8  and  C_9
REMARK    4  A    between atoms: C_9  and  C_10
REMARK    5  A    between atoms: C_10  and  N_11
REMARK    6  A    between atoms: C_13  and  N_14
REMARK    7  A    between atoms: N_14  and  C_15
REMARK    8  A    between atoms: C_17  and  O_18
REMARK                            x       y       z     vdW  Elec       q    Type
REMARK                         _______ _______ _______ _____ _____    ______ ____
ROOT
ATOM      1  C   UNL     1      44.485   5.478  11.285  0.00  0.00    +0.000 C 
ENDROOT
BRANCH   1   2
ATOM      2  N   UNL     1      44.075   5.127   9.924  0.00  0.00    +0.000 N 
ATOM      3  H   UNL     1      43.076   5.164   9.731  0.00  0.00    +0.000 HD
BRANCH   2   7
ATOM      4  C   UNL     1      46.206   2.046   7.966  0.00  0.00    +0.000 A 
ATOM      5  C   UNL     1      45.224   1.718   8.901  0.00  0.00    +0.000 A 
ATOM      6  C   UNL     1      44.495   2.728   9.538  0.00  0.00    +0.000 A 
ATOM      7  C   UNL     1      44.707   4.081   9.245  0.00  0.00    +0.000 A 
ATOM      8  C   UNL     1      45.705   4.394   8.313  0.00  0.00    +0.000 A 
ATOM      9  C   UNL     1      46.454   3.390   7.680  0.00  0.00    +0.000 A 
BRANCH   4  11
ATOM     10  N   UNL     1      46.796  -0.298   7.641  0.00  0.00    +0.000 N 
ATOM     11  C   UNL     1      47.042   1.006   7.309  0.00  0.00    +0.000 C 
ATOM     12  O   UNL     1      47.900   1.295   6.485  0.00  0.00    +0.000 OA
ATOM     13  H   UNL     1      47.317  -0.998   7.129  0.00  0.00    +0.000 HD
ATOM     14  H   UNL     1      45.956  -0.592   8.117  0.00  0.00    +0.000 HD
ENDBRANCH   4  11
ENDBRANCH   2   7
ENDBRANCH   1   2
BRANCH   1  15
ATOM     15  C   UNL     1      44.470   6.987  11.503  0.00  0.00    +0.000 C 
BRANCH  15  16
ATOM     16  N   UNL     1      45.571   7.409  12.340  0.00  0.00    +0.000 N 
ATOM     17  C   UNL     1      46.645   6.672  12.743  0.00  0.00    +0.000 A 
ATOM     18  C   UNL     1      47.341   7.534  13.552  0.00  0.00    +0.000 A 
ATOM     19  N   UNL     1      46.716   8.747  13.582  0.00  0.00    +0.000 NA
ATOM     20  N   UNL     1      45.620   8.659  12.833  0.00  0.00    +0.000 NA
BRANCH  18  21
ATOM     21  N   UNL     1      48.467   7.228  14.223  0.00  0.00    +0.000 N 
ATOM     22  H   UNL     1      48.787   6.265  14.203  0.00  0.00    +0.000 HD
BRANCH  21  23
ATOM     23  C   UNL     1      49.474   8.185  14.568  0.00  0.00    +0.000 C 
ATOM     24  C   UNL     1      50.361   8.561  13.364  0.00  0.00    +0.000 C 
ATOM     25  C   UNL     1      51.609   8.237  14.207  0.00  0.00    +0.000 C 
ATOM     26  C   UNL     1      50.702   7.524  15.229  0.00  0.00    +0.000 C 
BRANCH  25  27
ATOM     27  O   UNL     1      52.374   9.358  14.689  0.00  0.00    +0.000 OA
ATOM     28  H   UNL     1      53.284   9.222  14.366  0.00  0.00    +0.000 HD
ENDBRANCH  25  27
ENDBRANCH  21  23
ENDBRANCH  18  21
ENDBRANCH  15  16
ENDBRANCH   1  15
TORSDOF 8
ENDMDL
MODEL 8
REMARK VINA RESULT:    -6.413      3.096      4.317
REMARK INTER + INTRA:          -9.818
REMARK INTER:                  -8.808
REMARK INTRA:                  -1.010
REMARK UNBOUND:                -0.593
REMARK  Name = 
REMARK  8 active torsions:
REMARK  status: ('A' for Active; 'I' for Inactive)
REMARK    1  A    between atoms: C_2  and  C_4
REMARK    2  A    between atoms: C_7  and  N_8
REMARK    3  A    between atoms: N_8  and  C_9
REMARK    4  A    between atoms: C_9  and  C_10
REMARK    5  A    between atoms: C_10  and  N_11
REMARK    6  A    between atoms: C_13  and  N_14
REMARK    7  A    between atoms: N_14  and  C_15
REMARK    8  A    between atoms: C_17  and  O_18
REMARK                            x       y       z     vdW  Elec       q    Type
REMARK                         _______ _______ _______ _____ _____    ______ ____
ROOT
ATOM      1  C   UNL     1      46.840   8.757  12.272  0.00  0.00    +0.000 C 
ENDROOT
BRANCH   1   2
ATOM      2  N   UNL     1      46.061   7.807  13.068  0.00  0.00    +0.000 N 
ATOM      3  H   UNL     1      46.333   7.707  14.044  0.00  0.00    +0.000 HD
BRANCH   2   7
ATOM      4  C   UNL     1      44.575   4.175  11.496  0.00  0.00    +0.000 A 
ATOM      5  C   UNL     1      44.952   5.200  10.627  0.00  0.00    +0.000 A 
ATOM      6  C   UNL     1      45.467   6.398  11.134  0.00  0.00    +0.000 A 
ATOM      7  C   UNL     1      45.643   6.596  12.509  0.00  0.00    +0.000 A 
ATOM      8  C   UNL     1      45.249   5.562  13.369  0.00  0.00    +0.000 A 
ATOM      9  C   UNL     1      44.716   4.363  12.873  0.00  0.00    +0.000 A 
BRANCH   4  11
ATOM     10  N   UNL     1      44.594   2.284   9.957  0.00  0.00    +0.000 N 
ATOM     11  C   UNL     1      43.970   2.911  11.001  0.00  0.00    +0.000 C 
ATOM     12  O   UNL     1      42.970   2.429  11.518  0.00  0.00    +0.000 OA
ATOM     13  H   UNL     1      44.217   1.385   9.684  0.00  0.00    +0.000 HD
ATOM     14  H   UNL     1      45.534   2.507   9.669  0.00  0.00    +0.000 HD
ENDBRANCH   4  11
ENDBRANCH   2   7
ENDBRANCH   1   2
BRANCH   1  15
ATOM     15  C   UNL     1      48.321   8.712  12.636  0.00  0.00    +0.000 C 
BRANCH  15  16
ATOM     16  N   UNL     1      48.519   8.196  13.973  0.00  0.00    +0.000 N 
ATOM     17  C   UNL     1      48.997   6.971  14.334  0.00  0.00    +0.000 A 
ATOM     18  C   UNL     1      48.929   6.991  15.703  0.00  0.00    +0.000 A 
ATOM     19  N   UNL     1      48.468   8.203  16.126  0.00  0.00    +0.000 NA
ATOM     20  N   UNL     1      48.213   8.941  15.049  0.00  0.00    +0.000 NA
BRANCH  18  21
ATOM     21  N   UNL     1      49.258   5.964  16.510  0.00  0.00    +0.000 N 
ATOM     22  H   UNL     1      50.194   5.945  16.899  0.00  0.00    +0.000 HD
BRANCH  21  23
ATOM     23  C   UNL     1      48.301   5.168  17.216  0.00  0.00    +0.000 C 
ATOM     24  C   UNL     1      48.873   3.799  17.634  0.00  0.00    +0.000 C 
ATOM     25  C   UNL     1      47.664   3.112  16.972  0.00  0.00    +0.000 C 
ATOM     26  C   UNL     1      47.333   4.439  16.261  0.00  0.00    +0.000 C 
BRANCH  25  27
ATOM     27  O   UNL     1      46.657   2.582  17.855  0.00  0.00    +0.000 OA
ATOM     28  H   UNL     1      45.867   2.431  17.304  0.00  0.00    +0.000 HD
ENDBRANCH  25  27
ENDBRANCH  21  23
ENDBRANCH  18  21
ENDBRANCH  15  16
ENDBRANCH   1  15
TORSDOF 8
ENDMDL
MODEL 9
REMARK VINA RESULT:    -6.374      4.171      8.129
REMARK INTER + INTRA:          -9.762
REMARK INTER:                  -9.229
REMARK INTRA:                  -0.533
REMARK UNBOUND:                -0.593
REMARK  Name = 
REMARK  8 active torsions:
REMARK  status: ('A' for Active; 'I' for Inactive)
REMARK    1  A    between atoms: C_2  and  C_4
REMARK    2  A    between atoms: C_7  and  N_8
REMARK    3  A    between atoms: N_8  and  C_9
REMARK    4  A    between atoms: C_9  and  C_10
REMARK    5  A    between atoms: C_10  and  N_11
REMARK    6  A    between atoms: C_13  and  N_14
REMARK    7  A    between atoms: N_14  and  C_15
REMARK    8  A    between atoms: C_17  and  O_18
REMARK                            x       y       z     vdW  Elec       q    Type
REMARK                         _______ _______ _______ _____ _____    ______ ____
ROOT
ATOM      1  C   UNL     1      45.405   6.204  12.923  0.00  0.00    +0.000 C 
ENDROOT
BRANCH   1   2
ATOM      2  N   UNL     1      45.417   7.608  12.507  0.00  0.00    +0.000 N 
ATOM      3  H   UNL     1      44.634   7.915  11.933  0.00  0.00    +0.000 HD
BRANCH   2   7
ATOM      4  C   UNL     1      49.046   9.587  11.621  0.00  0.00    +0.000 A 
ATOM      5  C   UNL     1      49.010   8.192  11.653  0.00  0.00    +0.000 A 
ATOM      6  C   UNL     1      47.810   7.525  11.921  0.00  0.00    +0.000 A 
ATOM      7  C   UNL     1      46.617   8.224  12.140  0.00  0.00    +0.000 A 
ATOM      8  C   UNL     1      46.671   9.624  12.117  0.00  0.00    +0.000 A 
ATOM      9  C   UNL     1      47.872  10.304  11.865  0.00  0.00    +0.000 A 
BRANCH   4  11
ATOM     10  N   UNL     1      51.117  10.542  12.482  0.00  0.00    +0.000 N 
ATOM     11  C   UNL     1      50.311  10.334  11.396  0.00  0.00    +0.000 C 
ATOM     12  O   UNL     1      50.638  10.729  10.285  0.00  0.00    +0.000 OA
ATOM     13  H   UNL     1      52.010  10.982  12.300  0.00  0.00    +0.000 HD
ATOM     14  H   UNL     1      51.010  10.035  13.347  0.00  0.00    +0.000 HD
ENDBRANCH   4  11
ENDBRANCH   2   7
ENDBRANCH   1   2
BRANCH   1  15
ATOM     15  C   UNL     1      44.078   5.532  12.586  0.00  0.00    +0.000 C 
BRANCH  15  16
ATOM     16  N   UNL     1      44.185   4.722  11.393  0.00  0.00    +0.000 N 
ATOM     17  C   UNL     1      44.869   5.008  10.248  0.00  0.00    +0.000 A 
ATOM     18  C   UNL     1      44.594   3.938   9.435  0.00  0.00    +0.000 A 
ATOM     19  N   UNL     1      43.814   3.039  10.101  0.00  0.00    +0.000 NA
ATOM     20  N   UNL     1      43.562   3.534  11.310  0.00  0.00    +0.000 NA
BRANCH  18  21
ATOM     21  N   UNL     1      45.022   3.800   8.166  0.00  0.00    +0.000 N 
ATOM     22  H   UNL     1      44.556   4.339   7.444  0.00  0.00    +0.000 HD
BRANCH  21  23
ATOM     23  C   UNL     1      46.328   3.332   7.813  0.00  0.00    +0.000 C 
ATOM     24  C   UNL     1      46.480   3.112   6.294  0.00  0.00    +0.000 C 
ATOM     25  C   UNL     1      46.991   1.686   6.571  0.00  0.00    +0.000 C 
ATOM     26  C   UNL     1      46.476   1.810   8.019  0.00  0.00    +0.000 C 
BRANCH  25  27
ATOM     27  O   UNL     1      48.404   1.460   6.404  0.00  0.00    +0.000 OA
ATOM     28  H   UNL     1      48.851   2.131   6.952  0.00  0.00    +0.000 HD
ENDBRANCH  25  27
ENDBRANCH  21  23
ENDBRANCH  18  21
ENDBRANCH  15  16
ENDBRANCH   1  15
TORSDOF 8
ENDMDL
