MODEL 1
REMARK VINA RESULT:    -9.030      0.000      0.000
REMARK INTER + INTRA:         -12.368
REMARK INTER:                 -11.669
REMARK INTRA:                  -0.699
REMARK UNBOUND:                -0.699
REMARK  Name = 
REMARK  5 active torsions:
REMARK  status: ('A' for Active; 'I' for Inactive)
REMARK    1  A    between atoms: C_2  and  C_4
REMARK    2  A    between atoms: C_7  and  O_8
REMARK    3  A    between atoms: O_8  and  C_9
REMARK    4  A    between atoms: C_9  and  C_10
REMARK    5  A    between atoms: C_14  and  C_15
REMARK                            x       y       z     vdW  Elec       q    Type
REMARK                         _______ _______ _______ _____ _____    ______ ____
ROOT
ATOM      1  C   UNL     1      44.114   4.615  11.433  0.00  0.00    +0.000 C 
ATOM      2  C   UNL     1      43.516   3.556  12.352  0.00  0.00    +0.000 C 
ATOM      3  C   UNL     1      42.860   4.886  12.261  0.00  0.00    +0.000 C 
ENDROOT
BRANCH   1   4
ATOM      4  C   UNL     1      45.431   5.217  11.873  0.00  0.00    +0.000 A 
ATOM      5  C   UNL     1      46.033   6.289  11.203  0.00  0.00    +0.000 A 
ATOM      6  C   UNL     1      47.151   6.927  11.738  0.00  0.00    +0.000 A 
ATOM      7  C   UNL     1      47.678   6.507  12.962  0.00  0.00    +0.000 A 
ATOM      8  C   UNL     1      47.121   5.422  13.657  0.00  0.00    +0.000 A 
ATOM      9  C   UNL     1      46.035   4.764  13.060  0.00  0.00    +0.000 A 
BRANCH   8  10
ATOM     10  C   UNL     1      47.548   5.049  15.022  0.00  0.00    +0.000 A 
ATOM     11  C   UNL     1      47.182   3.807  15.569  0.00  0.00    +0.000 A 
ATOM     12  C   UNL     1      47.673   3.385  16.808  0.00  0.00    +0.000 A 
ATOM     13  C   UNL     1      48.547   4.197  17.523  0.00  0.00    +0.000 A 
ATOM     14  C   UNL     1      48.915   5.437  17.011  0.00  0.00    +0.000 A 
ATOM     15  C   UNL     1      48.413   5.862  15.776  0.00  0.00    +0.000 A 
ENDBRANCH   8  10
ENDBRANCH   1   4
BRANCH   1  16
ATOM     16  O   UNL     1      43.837   4.681  10.017  0.00  0.00    +0.000 OA
BRANCH  16  20
ATOM     17  C   UNL     1      46.188   2.167   7.899  0.00  0.00    +0.000 A 
ATOM     18  C   UNL     1      46.187   3.524   7.599  0.00  0.00    +0.000 A 
ATOM     19  N   UNL     1      45.351   4.399   8.208  0.00  0.00    +0.000 NA
ATOM     20  C   UNL     1      44.547   3.872   9.156  0.00  0.00    +0.000 A 
ATOM     21  C   UNL     1      44.511   2.505   9.419  0.00  0.00    +0.000 A 
ATOM     22  N   UNL     1      45.323   1.613   8.794  0.00  0.00    +0.000 NA
BRANCH  17  24
ATOM     23  N   UNL     1      48.283   1.927   6.716  0.00  0.00    +0.000 N 
ATOM     24  C   UNL     1      47.227   1.286   7.306  0.00  0.00    +0.000 C 
ATOM     25  O   UNL     1      47.132   0.065   7.314  0.00  0.00    +0.000 OA
ATOM     26  H   UNL     1      48.972   1.385   6.213  0.00  0.00    +0.000 HD
ATOM     27  H   UNL     1      48.296   2.940   6.672  0.00  0.00    +0.000 HD
ENDBRANCH  17  24
ENDBRANCH  16  20
ENDBRANCH   1  16
TORSDOF 5
ENDMDL
MODEL 2
REMARK VINA RESULT:    -8.745      1.686      3.455
REMARK INTER + INTRA:         -11.999
REMARK INTER:                 -11.466
REMARK INTRA:                  -0.533
REMARK UNBOUND:                -0.699
REMARK  Name = 
REMARK  5 active torsions:
REMARK  status: ('A' for Active; 'I' for Inactive)
REMARK    1  A    between atoms: C_2  and  C_4
REMARK    2  A    between atoms: C_7  and  O_8
REMARK    3  A    between atoms: O_8  and  C_9
REMARK    4  A    between atoms: C_9  and  C_10
REMARK    5  A    between atoms: C_14  and  C_15
REMARK                            x       y       z     vdW  Elec       q    Type
REMARK                         _______ _______ _______ _____ _____    ______ ____
ROOT
ATOM      1  C   UNL     1      44.007   4.711  11.248  0.00  0.00    +0.000 C 
ATOM      2  C   UNL     1      43.041   3.650  11.764  0.00  0.00    +0.000 C 
ATOM      3  C   UNL     1      42.601   5.070  11.723  0.00  0.00    +0.000 C 
ENDROOT
BRANCH   1   4
ATOM      4  C   UNL     1      45.189   5.029  12.139  0.00  0.00    +0.000 A 
ATOM      5  C   UNL     1      45.760   4.086  13.003  0.00  0.00    +0.000 A 
ATOM      6  C   UNL     1      46.949   4.362  13.674  0.00  0.00    +0.000 A 
ATOM      7  C   UNL     1      47.594   5.587  13.482  0.00  0.00    +0.000 A 
ATOM      8  C   UNL     1      47.045   6.571  12.644  0.00  0.00    +0.000 A 
ATOM      9  C   UNL     1      45.816   6.283  12.031  0.00  0.00    +0.000 A 
BRANCH   8  10
ATOM     10  C   UNL     1      47.771   7.810  12.293  0.00  0.00    +0.000 A 
ATOM     11  C   UNL     1      49.095   7.753  11.825  0.00  0.00    +0.000 A 
ATOM     12  C   UNL     1      49.758   8.898  11.375  0.00  0.00    +0.000 A 
ATOM     13  C   UNL     1      49.104  10.126  11.377  0.00  0.00    +0.000 A 
ATOM     14  C   UNL     1      47.798  10.213  11.846  0.00  0.00    +0.000 A 
ATOM     15  C   UNL     1      47.141   9.067  12.308  0.00  0.00    +0.000 A 
ENDBRANCH   8  10
ENDBRANCH   1   4
BRANCH   1  16
ATOM     16  O   UNL     1      44.182   5.006   9.845  0.00  0.00    +0.000 OA
BRANCH  16  20
ATOM     17  C   UNL     1      46.238   2.127   7.890  0.00  0.00    +0.000 A 
ATOM     18  C   UNL     1      46.409   3.459   7.531  0.00  0.00    +0.000 A 
ATOM     19  N   UNL     1      45.679   4.457   8.083  0.00  0.00    +0.000 NA
ATOM     20  C   UNL     1      44.800   4.077   9.036  0.00  0.00    +0.000 A 
ATOM     21  C   UNL     1      44.591   2.739   9.357  0.00  0.00    +0.000 A 
ATOM     22  N   UNL     1      45.297   1.725   8.790  0.00  0.00    +0.000 NA
BRANCH  17  24
ATOM     23  N   UNL     1      46.858  -0.199   7.667  0.00  0.00    +0.000 N 
ATOM     24  C   UNL     1      47.169   1.099   7.359  0.00  0.00    +0.000 C 
ATOM     25  O   UNL     1      48.169   1.391   6.716  0.00  0.00    +0.000 OA
ATOM     26  H   UNL     1      47.504  -0.934   7.415  0.00  0.00    +0.000 HD
ATOM     27  H   UNL     1      46.058  -0.399   8.256  0.00  0.00    +0.000 HD
ENDBRANCH  17  24
ENDBRANCH  16  20
ENDBRANCH   1  16
TORSDOF 5
ENDMDL
MODEL 3
REMARK VINA RESULT:    -8.421      2.033      2.800
REMARK INTER + INTRA:         -11.581
REMARK INTER:                 -10.682
REMARK INTRA:                  -0.899
REMARK UNBOUND:                -0.699
REMARK  Name = 
REMARK  5 active torsions:
REMARK  status: ('A' for Active; 'I' for Inactive)
REMARK    1  A    between atoms: C_2  and  C_4
REMARK    2  A    between atoms: C_7  and  O_8
REMARK    3  A    between atoms: O_8  and  C_9
REMARK    4  A    between atoms: C_9  and  C_10
REMARK    5  A    between atoms: C_14  and  C_15
REMARK                            x       y       z     vdW  Elec       q    Type
REMARK                         _______ _______ _______ _____ _____    ______ ____
ROOT
ATOM      1  C   UNL     1      44.453   4.508  11.481  0.00  0.00    +0.000 C 
ATOM      2  C   UNL     1      45.069   3.533  12.478  0.00  0.00    +0.000 C 
ATOM      3  C   UNL     1      43.668   3.986  12.683  0.00  0.00    +0.000 C 
ENDROOT
BRANCH   1   4
ATOM      4  C   UNL     1      44.989   5.924  11.511  0.00  0.00    +0.000 A 
ATOM      5  C   UNL     1      44.162   7.047  11.387  0.00  0.00    +0.000 A 
ATOM      6  C   UNL     1      44.666   8.330  11.594  0.00  0.00    +0.000 A 
ATOM      7  C   UNL     1      46.008   8.507  11.940  0.00  0.00    +0.000 A 
ATOM      8  C   UNL     1      46.879   7.412  12.051  0.00  0.00    +0.000 A 
ATOM      9  C   UNL     1      46.352   6.140  11.777  0.00  0.00    +0.000 A 
BRANCH   8  10
ATOM     10  C   UNL     1      48.258   7.542  12.566  0.00  0.00    +0.000 A 
ATOM     11  C   UNL     1      49.284   8.036  11.741  0.00  0.00    +0.000 A 
ATOM     12  C   UNL     1      50.566   8.280  12.241  0.00  0.00    +0.000 A 
ATOM     13  C   UNL     1      50.846   8.040  13.583  0.00  0.00    +0.000 A 
ATOM     14  C   UNL     1      49.853   7.539  14.418  0.00  0.00    +0.000 A 
ATOM     15  C   UNL     1      48.574   7.285  13.912  0.00  0.00    +0.000 A 
ENDBRANCH   8  10
ENDBRANCH   1   4
BRANCH   1  16
ATOM     16  O   UNL     1      43.852   4.092  10.236  0.00  0.00    +0.000 OA
BRANCH  16  20
ATOM     17  C   UNL     1      46.529   2.485   7.670  0.00  0.00    +0.000 A 
ATOM     18  C   UNL     1      46.255   3.846   7.614  0.00  0.00    +0.000 A 
ATOM     19  N   UNL     1      45.300   4.424   8.382  0.00  0.00    +0.000 NA
ATOM     20  C   UNL     1      44.658   3.596   9.234  0.00  0.00    +0.000 A 
ATOM     21  C   UNL     1      44.896   2.224   9.252  0.00  0.00    +0.000 A 
ATOM     22  N   UNL     1      45.831   1.628   8.466  0.00  0.00    +0.000 NA
BRANCH  17  24
ATOM     23  N   UNL     1      48.551   2.867   6.400  0.00  0.00    +0.000 N 
ATOM     24  C   UNL     1      47.686   1.938   6.914  0.00  0.00    +0.000 C 
ATOM     25  O   UNL     1      47.840   0.737   6.733  0.00  0.00    +0.000 OA
ATOM     26  H   UNL     1      49.302   2.561   5.797  0.00  0.00    +0.000 HD
ATOM     27  H   UNL     1      48.356   3.855   6.515  0.00  0.00    +0.000 HD
ENDBRANCH  17  24
ENDBRANCH  16  20
ENDBRANCH   1  16
TORSDOF 5
ENDMDL
MODEL 4
REMARK VINA RESULT:    -7.607      3.618      7.352
REMARK INTER + INTRA:         -10.529
REMARK INTER:                 -11.041
REMARK INTRA:                   0.513
REMARK UNBOUND:                -0.699
REMARK  Name = 
REMARK  5 active torsions:
REMARK  status: ('A' for Active; 'I' for Inactive)
REMARK    1  A    between atoms: C_2  and  C_4
REMARK    2  A    between atoms: C_7  and  O_8
REMARK    3  A    between atoms: O_8  and  C_9
REMARK    4  A    between atoms: C_9  and  C_10
REMARK    5  A    between atoms: C_14  and  C_15
REMARK                            x       y       z     vdW  Elec       q    Type
REMARK                         _______ _______ _______ _____ _____    ______ ____
ROOT
ATOM      1  C   UNL     1      46.366   7.189  12.187  0.00  0.00    +0.000 C 
ATOM      2  C   UNL     1      46.169   8.652  11.807  0.00  0.00    +0.000 C 
ATOM      3  C   UNL     1      45.876   8.223  13.200  0.00  0.00    +0.000 C 
ENDROOT
BRANCH   1   4
ATOM      4  C   UNL     1      45.376   6.206  11.601  0.00  0.00    +0.000 A 
ATOM      5  C   UNL     1      43.995   6.312  11.807  0.00  0.00    +0.000 A 
ATOM      6  C   UNL     1      43.105   5.496  11.111  0.00  0.00    +0.000 A 
ATOM      7  C   UNL     1      43.586   4.564  10.187  0.00  0.00    +0.000 A 
ATOM      8  C   UNL     1      44.963   4.407   9.966  0.00  0.00    +0.000 A 
ATOM      9  C   UNL     1      45.832   5.203  10.728  0.00  0.00    +0.000 A 
BRANCH   8  10
ATOM     10  C   UNL     1      45.503   3.551   8.890  0.00  0.00    +0.000 A 
ATOM     11  C   UNL     1      46.113   4.124   7.760  0.00  0.00    +0.000 A 
ATOM     12  C   UNL     1      46.735   3.334   6.790  0.00  0.00    +0.000 A 
ATOM     13  C   UNL     1      46.765   1.950   6.934  0.00  0.00    +0.000 A 
ATOM     14  C   UNL     1      46.157   1.356   8.035  0.00  0.00    +0.000 A 
ATOM     15  C   UNL     1      45.525   2.149   8.999  0.00  0.00    +0.000 A 
ENDBRANCH   8  10
ENDBRANCH   1   4
BRANCH   1  16
ATOM     16  O   UNL     1      47.644   6.637  12.573  0.00  0.00    +0.000 OA
BRANCH  16  20
ATOM     17  C   UNL     1      47.403   4.534  16.016  0.00  0.00    +0.000 A 
ATOM     18  C   UNL     1      48.229   5.650  15.948  0.00  0.00    +0.000 A 
ATOM     19  N   UNL     1      48.424   6.337  14.796  0.00  0.00    +0.000 NA
ATOM     20  C   UNL     1      47.732   5.889  13.727  0.00  0.00    +0.000 A 
ATOM     21  C   UNL     1      46.946   4.741  13.783  0.00  0.00    +0.000 A 
ATOM     22  N   UNL     1      46.765   4.027  14.925  0.00  0.00    +0.000 NA
BRANCH  17  24
ATOM     23  N   UNL     1      47.628   4.569  18.423  0.00  0.00    +0.000 N 
ATOM     24  C   UNL     1      47.113   3.916  17.335  0.00  0.00    +0.000 C 
ATOM     25  O   UNL     1      46.483   2.871  17.444  0.00  0.00    +0.000 OA
ATOM     26  H   UNL     1      47.547   4.146  19.337  0.00  0.00    +0.000 HD
ATOM     27  H   UNL     1      48.199   5.396  18.290  0.00  0.00    +0.000 HD
ENDBRANCH  17  24
ENDBRANCH  16  20
ENDBRANCH   1  16
TORSDOF 5
ENDMDL
MODEL 5
REMARK VINA RESULT:    -6.894      4.097      7.529
REMARK INTER + INTRA:          -9.608
REMARK INTER:                  -9.637
REMARK INTRA:                   0.029
REMARK UNBOUND:                -0.699
REMARK  Name = 
REMARK  5 active torsions:
REMARK  status: ('A' for Active; 'I' for Inactive)
REMARK    1  A    between atoms: C_2  and  C_4
REMARK    2  A    between atoms: C_7  and  O_8
REMARK    3  A    between atoms: O_8  and  C_9
REMARK    4  A    between atoms: C_9  and  C_10
REMARK    5  A    between atoms: C_14  and  C_15
REMARK                            x       y       z     vdW  Elec       q    Type
REMARK                         _______ _______ _______ _____ _____    ______ ____
ROOT
ATOM      1  C   UNL     1      48.570   7.800  12.990  0.00  0.00    +0.000 C 
ATOM      2  C   UNL     1      49.655   7.297  12.046  0.00  0.00    +0.000 C 
ATOM      3  C   UNL     1      49.487   8.761  12.236  0.00  0.00    +0.000 C 
ENDROOT
BRANCH   1   4
ATOM      4  C   UNL     1      47.141   7.626  12.521  0.00  0.00    +0.000 A 
ATOM      5  C   UNL     1      46.195   8.657  12.582  0.00  0.00    +0.000 A 
ATOM      6  C   UNL     1      44.945   8.514  11.982  0.00  0.00    +0.000 A 
ATOM      7  C   UNL     1      44.626   7.336  11.301  0.00  0.00    +0.000 A 
ATOM      8  C   UNL     1      45.534   6.268  11.236  0.00  0.00    +0.000 A 
ATOM      9  C   UNL     1      46.760   6.422  11.902  0.00  0.00    +0.000 A 
BRANCH   8  10
ATOM     10  C   UNL     1      45.298   5.074  10.397  0.00  0.00    +0.000 A 
ATOM     11  C   UNL     1      44.560   3.986  10.896  0.00  0.00    +0.000 A 
ATOM     12  C   UNL     1      44.224   2.901  10.082  0.00  0.00    +0.000 A 
ATOM     13  C   UNL     1      44.614   2.886   8.746  0.00  0.00    +0.000 A 
ATOM     14  C   UNL     1      45.355   3.944   8.230  0.00  0.00    +0.000 A 
ATOM     15  C   UNL     1      45.701   5.023   9.051  0.00  0.00    +0.000 A 
ENDBRANCH   8  10
ENDBRANCH   1   4
BRANCH   1  16
ATOM     16  O   UNL     1      48.752   7.908  14.419  0.00  0.00    +0.000 OA
BRANCH  16  20
ATOM     17  C   UNL     1      47.976   4.669  16.709  0.00  0.00    +0.000 A 
ATOM     18  C   UNL     1      48.800   5.675  17.198  0.00  0.00    +0.000 A 
ATOM     19  N   UNL     1      49.173   6.737  16.443  0.00  0.00    +0.000 NA
ATOM     20  C   UNL     1      48.658   6.772  15.195  0.00  0.00    +0.000 A 
ATOM     21  C   UNL     1      47.876   5.738  14.688  0.00  0.00    +0.000 A 
ATOM     22  N   UNL     1      47.518   4.654  15.426  0.00  0.00    +0.000 NA
BRANCH  17  24
ATOM     23  N   UNL     1      48.214   3.436  18.775  0.00  0.00    +0.000 N 
ATOM     24  C   UNL     1      47.484   3.612  17.630  0.00  0.00    +0.000 C 
ATOM     25  O   UNL     1      46.509   2.919  17.369  0.00  0.00    +0.000 OA
ATOM     26  H   UNL     1      47.985   2.670  19.393  0.00  0.00    +0.000 HD
ATOM     27  H   UNL     1      49.052   3.985  18.927  0.00  0.00    +0.000 HD
ENDBRANCH  17  24
ENDBRANCH  16  20
ENDBRANCH   1  16
TORSDOF 5
ENDMDL
MODEL 6
REMARK VINA RESULT:    -6.791      4.766      7.475
REMARK INTER + INTRA:          -9.475
REMARK INTER:                  -8.498
REMARK INTRA:                  -0.977
REMARK UNBOUND:                -0.699
REMARK  Name = 
REMARK  5 active torsions:
REMARK  status: ('A' for Active; 'I' for Inactive)
REMARK    1  A    between atoms: C_2  and  C_4
REMARK    2  A    between atoms: C_7  and  O_8
REMARK    3  A    between atoms: O_8  and  C_9
REMARK    4  A    between atoms: C_9  and  C_10
REMARK    5  A    between atoms: C_14  and  C_15
REMARK                            x       y       z     vdW  Elec       q    Type
REMARK                         _______ _______ _______ _____ _____    ______ ____
ROOT
ATOM      1  C   UNL     1      46.182   5.101  13.109  0.00  0.00    +0.000 C 
ATOM      2  C   UNL     1      44.751   4.613  13.306  0.00  0.00    +0.000 C 
ATOM      3  C   UNL     1      45.533   4.107  12.148  0.00  0.00    +0.000 C 
ENDROOT
BRANCH   1   4
ATOM      4  C   UNL     1      46.344   6.542  12.678  0.00  0.00    +0.000 A 
ATOM      5  C   UNL     1      45.353   7.509  12.885  0.00  0.00    +0.000 A 
ATOM      6  C   UNL     1      45.607   8.856  12.635  0.00  0.00    +0.000 A 
ATOM      7  C   UNL     1      46.866   9.259  12.182  0.00  0.00    +0.000 A 
ATOM      8  C   UNL     1      47.882   8.322  11.937  0.00  0.00    +0.000 A 
ATOM      9  C   UNL     1      47.573   6.969  12.142  0.00  0.00    +0.000 A 
BRANCH   8  10
ATOM     10  C   UNL     1      49.267   8.719  11.611  0.00  0.00    +0.000 A 
ATOM     11  C   UNL     1      50.257   7.744  11.395  0.00  0.00    +0.000 A 
ATOM     12  C   UNL     1      51.541   8.093  10.969  0.00  0.00    +0.000 A 
ATOM     13  C   UNL     1      51.861   9.428  10.744  0.00  0.00    +0.000 A 
ATOM     14  C   UNL     1      50.905  10.414  10.962  0.00  0.00    +0.000 A 
ATOM     15  C   UNL     1      49.623  10.063  11.400  0.00  0.00    +0.000 A 
ENDBRANCH   8  10
ENDBRANCH   1   4
BRANCH   1  16
ATOM     16  O   UNL     1      47.316   4.517  13.786  0.00  0.00    +0.000 OA
BRANCH  16  20
ATOM     17  C   UNL     1      48.032   4.671  17.761  0.00  0.00    +0.000 A 
ATOM     18  C   UNL     1      47.220   3.667  17.247  0.00  0.00    +0.000 A 
ATOM     19  N   UNL     1      46.867   3.620  15.940  0.00  0.00    +0.000 NA
ATOM     20  C   UNL     1      47.389   4.591  15.161  0.00  0.00    +0.000 A 
ATOM     21  C   UNL     1      48.158   5.626  15.685  0.00  0.00    +0.000 A 
ATOM     22  N   UNL     1      48.496   5.701  16.999  0.00  0.00    +0.000 NA
BRANCH  17  24
ATOM     23  N   UNL     1      48.485   3.333  19.723  0.00  0.00    +0.000 N 
ATOM     24  C   UNL     1      48.504   4.584  19.167  0.00  0.00    +0.000 C 
ATOM     25  O   UNL     1      48.856   5.571  19.801  0.00  0.00    +0.000 OA
ATOM     26  H   UNL     1      48.703   3.226  20.704  0.00  0.00    +0.000 HD
ATOM     27  H   UNL     1      48.127   2.550  19.189  0.00  0.00    +0.000 HD
ENDBRANCH  17  24
ENDBRANCH  16  20
ENDBRANCH   1  16
TORSDOF 5
ENDMDL
MODEL 7
REMARK VINA RESULT:    -6.685      3.512      6.055
REMARK INTER + INTRA:          -9.337
REMARK INTER:                  -8.393
REMARK INTRA:                  -0.944
REMARK UNBOUND:                -0.699
REMARK  Name = 
REMARK  5 active torsions:
REMARK  status: ('A' for Active; 'I' for Inactive)
REMARK    1  A    between atoms: C_2  and  C_4
REMARK    2  A    between atoms: C_7  and  O_8
REMARK    3  A    between atoms: O_8  and  C_9
REMARK    4  A    between atoms: C_9  and  C_10
REMARK    5  A    between atoms: C_14  and  C_15
REMARK                            x       y       z     vdW  Elec       q    Type
REMARK                         _______ _______ _______ _____ _____    ______ ____
ROOT
ATOM      1  C   UNL     1      48.885   7.275  15.064  0.00  0.00    +0.000 C 
ATOM      2  C   UNL     1      48.309   8.684  14.984  0.00  0.00    +0.000 C 
ATOM      3  C   UNL     1      49.710   8.451  14.546  0.00  0.00    +0.000 C 
ENDROOT
BRANCH   1   4
ATOM      4  C   UNL     1      49.156   6.740  16.453  0.00  0.00    +0.000 A 
ATOM      5  C   UNL     1      48.452   7.176  17.582  0.00  0.00    +0.000 A 
ATOM      6  C   UNL     1      48.607   6.538  18.811  0.00  0.00    +0.000 A 
ATOM      7  C   UNL     1      49.466   5.442  18.927  0.00  0.00    +0.000 A 
ATOM      8  C   UNL     1      50.210   4.985  17.828  0.00  0.00    +0.000 A 
ATOM      9  C   UNL     1      50.075   5.688  16.621  0.00  0.00    +0.000 A 
BRANCH   8  10
ATOM     10  C   UNL     1      51.004   3.739  17.869  0.00  0.00    +0.000 A 
ATOM     11  C   UNL     1      50.462   2.531  17.396  0.00  0.00    +0.000 A 
ATOM     12  C   UNL     1      51.234   1.370  17.314  0.00  0.00    +0.000 A 
ATOM     13  C   UNL     1      52.571   1.394  17.699  0.00  0.00    +0.000 A 
ATOM     14  C   UNL     1      53.129   2.573  18.183  0.00  0.00    +0.000 A 
ATOM     15  C   UNL     1      52.351   3.731  18.275  0.00  0.00    +0.000 A 
ENDBRANCH   8  10
ENDBRANCH   1   4
BRANCH   1  16
ATOM     16  O   UNL     1      48.682   6.279  14.037  0.00  0.00    +0.000 OA
BRANCH  16  20
ATOM     17  C   UNL     1      45.139   4.633  13.000  0.00  0.00    +0.000 A 
ATOM     18  C   UNL     1      45.521   5.850  12.447  0.00  0.00    +0.000 A 
ATOM     19  N   UNL     1      46.649   6.496  12.828  0.00  0.00    +0.000 NA
ATOM     20  C   UNL     1      47.401   5.860  13.752  0.00  0.00    +0.000 A 
ATOM     21  C   UNL     1      46.992   4.668  14.344  0.00  0.00    +0.000 A 
ATOM     22  N   UNL     1      45.848   4.024  13.992  0.00  0.00    +0.000 NA
BRANCH  17  24
ATOM     23  N   UNL     1      44.042   2.538  12.498  0.00  0.00    +0.000 N 
ATOM     24  C   UNL     1      43.974   3.905  12.437  0.00  0.00    +0.000 C 
ATOM     25  O   UNL     1      43.027   4.485  11.921  0.00  0.00    +0.000 OA
ATOM     26  H   UNL     1      43.325   1.988  12.047  0.00  0.00    +0.000 HD
ATOM     27  H   UNL     1      44.870   2.091  12.874  0.00  0.00    +0.000 HD
ENDBRANCH  17  24
ENDBRANCH  16  20
ENDBRANCH   1  16
TORSDOF 5
ENDMDL
