MODEL 1
REMARK VINA RESULT:    -7.826      0.000      0.000
REMARK INTER + INTRA:         -11.536
REMARK INTER:                 -10.570
REMARK INTRA:                  -0.965
REMARK UNBOUND:                -0.965
REMARK  Name = 
REMARK  6 active torsions:
REMARK  status: ('A' for Active; 'I' for Inactive)
REMARK    1  A    between atoms: C_2  and  C_4
REMARK    2  A    between atoms: N_11  and  C_12
REMARK    3  A    between atoms: C_12  and  C_13
REMARK    4  A    between atoms: C_16  and  C_17
REMARK    5  A    between atoms: C_17  and  N_18
REMARK    6  A    between atoms: C_19  and  C_21
REMARK                            x       y       z     vdW  Elec       q    Type
REMARK                         _______ _______ _______ _____ _____    ______ ____
ROOT
ATOM      1  C   UNL     1      51.472   3.213  17.748  0.00  0.00    +0.000 A 
ATOM      2  C   UNL     1      50.767   4.420  17.862  0.00  0.00    +0.000 A 
ATOM      3  C   UNL     1      49.407   4.486  17.532  0.00  0.00    +0.000 A 
ATOM      4  C   UNL     1      48.722   3.342  17.100  0.00  0.00    +0.000 A 
ATOM      5  C   UNL     1      49.439   2.149  16.945  0.00  0.00    +0.000 A 
ATOM      6  C   UNL     1      50.795   2.083  17.274  0.00  0.00    +0.000 A 
ENDROOT
BRANCH   1   7
ATOM      7  C   UNL     1      52.924   3.116  18.134  0.00  0.00    +0.000 C 
BRANCH   7  15
ATOM      8  C   UNL     1      54.935  -0.871  17.730  0.00  0.00    +0.000 A 
ATOM      9  C   UNL     1      55.203  -2.118  18.295  0.00  0.00    +0.000 A 
ATOM     10  C   UNL     1      55.352  -1.962  19.685  0.00  0.00    +0.000 A 
ATOM     11  C   UNL     1      55.190  -0.628  19.949  0.00  0.00    +0.000 A 
ATOM     12  N   UNL     1      54.844   0.047  18.783  0.00  0.00    +0.000 N 
ATOM     13  C   UNL     1      54.539   1.429  18.798  0.00  0.00    +0.000 C 
ATOM     14  O   UNL     1      55.141   2.162  19.570  0.00  0.00    +0.000 OA
ATOM     15  N   UNL     1      53.433   1.765  18.057  0.00  0.00    +0.000 N 
ATOM     16  H   UNL     1      53.086   1.146  17.331  0.00  0.00    +0.000 HD
BRANCH   8  18
ATOM     17  N   UNL     1      54.118  -1.436  15.574  0.00  0.00    +0.000 N 
ATOM     18  C   UNL     1      54.842  -0.551  16.326  0.00  0.00    +0.000 C 
ATOM     19  O   UNL     1      55.370   0.416  15.788  0.00  0.00    +0.000 OA
ATOM     20  H   UNL     1      54.108  -1.302  14.573  0.00  0.00    +0.000 HD
ATOM     21  H   UNL     1      53.819  -2.331  15.934  0.00  0.00    +0.000 HD
ENDBRANCH   8  18
ENDBRANCH   7  15
ENDBRANCH   1   7
BRANCH   4  22
ATOM     22  C   UNL     1      47.247   3.390  16.791  0.00  0.00    +0.000 C 
BRANCH  22  23
ATOM     23  N   UNL     1      46.936   4.447  15.865  0.00  0.00    +0.000 N 
ATOM     24  C   UNL     1      46.880   4.215  14.514  0.00  0.00    +0.000 C 
ATOM     25  O   UNL     1      47.227   3.147  14.019  0.00  0.00    +0.000 OA
ATOM     26  H   UNL     1      46.483   5.269  16.249  0.00  0.00    +0.000 HD
BRANCH  24  27
ATOM     27  C   UNL     1      46.393   5.320  13.679  0.00  0.00    +0.000 A 
ATOM     28  C   UNL     1      47.206   6.420  13.438  0.00  0.00    +0.000 A 
ATOM     29  S   UNL     1      46.501   7.576  12.400  0.00  0.00    +0.000 S 
ATOM     30  C   UNL     1      45.111   6.615  12.188  0.00  0.00    +0.000 A 
ATOM     31  N   UNL     1      44.126   6.990  11.327  0.00  0.00    +0.000 NA
ATOM     32  C   UNL     1      43.141   6.158  11.251  0.00  0.00    +0.000 A 
ATOM     33  N   UNL     1      43.036   5.002  11.980  0.00  0.00    +0.000 N 
ATOM     34  C   UNL     1      43.985   4.605  12.892  0.00  0.00    +0.000 A 
ATOM     35  O   UNL     1      43.817   3.615  13.594  0.00  0.00    +0.000 OA
ATOM     36  C   UNL     1      45.147   5.472  12.966  0.00  0.00    +0.000 A 
ATOM     37  H   UNL     1      42.215   4.417  11.911  0.00  0.00    +0.000 HD
ENDBRANCH  24  27
ENDBRANCH  22  23
ENDBRANCH   4  22
TORSDOF 6
ENDMDL
MODEL 2
REMARK VINA RESULT:    -7.483      3.204     10.481
REMARK INTER + INTRA:         -11.073
REMARK INTER:                  -9.890
REMARK INTRA:                  -1.183
REMARK UNBOUND:                -0.965
REMARK  Name = 
REMARK  6 active torsions:
REMARK  status: ('A' for Active; 'I' for Inactive)
REMARK    1  A    between atoms: C_2  and  C_4
REMARK    2  A    between atoms: N_11  and  C_12
REMARK    3  A    between atoms: C_12  and  C_13
REMARK    4  A    between atoms: C_16  and  C_17
REMARK    5  A    between atoms: C_17  and  N_18
REMARK    6  A    between atoms: C_19  and  C_21
REMARK                            x       y       z     vdW  Elec       q    Type
REMARK                         _______ _______ _______ _____ _____    ______ ____
ROOT
ATOM      1  C   UNL     1      47.444   5.951  14.280  0.00  0.00    +0.000 A 
ATOM      2  C   UNL     1      48.460   6.642  14.956  0.00  0.00    +0.000 A 
ATOM      3  C   UNL     1      49.016   6.123  16.132  0.00  0.00    +0.000 A 
ATOM      4  C   UNL     1      48.579   4.895  16.646  0.00  0.00    +0.000 A 
ATOM      5  C   UNL     1      47.534   4.228  15.994  0.00  0.00    +0.000 A 
ATOM      6  C   UNL     1      46.979   4.745  14.820  0.00  0.00    +0.000 A 
ENDROOT
BRANCH   1   7
ATOM      7  C   UNL     1      46.862   6.476  12.995  0.00  0.00    +0.000 C 
BRANCH   7  15
ATOM      8  C   UNL     1      44.796   3.407  10.460  0.00  0.00    +0.000 A 
ATOM      9  C   UNL     1      44.760   2.706   9.255  0.00  0.00    +0.000 A 
ATOM     10  C   UNL     1      45.188   3.559   8.222  0.00  0.00    +0.000 A 
ATOM     11  C   UNL     1      45.464   4.768   8.802  0.00  0.00    +0.000 A 
ATOM     12  N   UNL     1      45.320   4.675  10.183  0.00  0.00    +0.000 N 
ATOM     13  C   UNL     1      45.626   5.768  11.028  0.00  0.00    +0.000 C 
ATOM     14  O   UNL     1      45.399   6.905  10.636  0.00  0.00    +0.000 OA
ATOM     15  N   UNL     1      46.344   5.425  12.146  0.00  0.00    +0.000 N 
ATOM     16  H   UNL     1      46.358   4.467  12.481  0.00  0.00    +0.000 HD
BRANCH   8  18
ATOM     17  N   UNL     1      42.990   2.635  11.793  0.00  0.00    +0.000 N 
ATOM     18  C   UNL     1      44.319   2.958  11.746  0.00  0.00    +0.000 C 
ATOM     19  O   UNL     1      45.003   2.874  12.760  0.00  0.00    +0.000 OA
ATOM     20  H   UNL     1      42.595   2.409  12.695  0.00  0.00    +0.000 HD
ATOM     21  H   UNL     1      42.354   2.856  11.040  0.00  0.00    +0.000 HD
ENDBRANCH   8  18
ENDBRANCH   7  15
ENDBRANCH   1   7
BRANCH   4  22
ATOM     22  C   UNL     1      49.205   4.302  17.883  0.00  0.00    +0.000 C 
BRANCH  22  23
ATOM     23  N   UNL     1      50.576   3.929  17.653  0.00  0.00    +0.000 N 
ATOM     24  C   UNL     1      51.525   4.068  18.635  0.00  0.00    +0.000 C 
ATOM     25  O   UNL     1      51.290   4.640  19.695  0.00  0.00    +0.000 OA
ATOM     26  H   UNL     1      50.753   3.306  16.872  0.00  0.00    +0.000 HD
BRANCH  24  27
ATOM     27  C   UNL     1      52.850   3.503  18.349  0.00  0.00    +0.000 A 
ATOM     28  C   UNL     1      53.990   4.276  18.533  0.00  0.00    +0.000 A 
ATOM     29  S   UNL     1      55.442   3.440  18.212  0.00  0.00    +0.000 S 
ATOM     30  C   UNL     1      54.599   2.000  17.877  0.00  0.00    +0.000 A 
ATOM     31  N   UNL     1      55.267   0.843  17.613  0.00  0.00    +0.000 NA
ATOM     32  C   UNL     1      54.503  -0.175  17.396  0.00  0.00    +0.000 A 
ATOM     33  N   UNL     1      53.133  -0.137  17.388  0.00  0.00    +0.000 N 
ATOM     34  C   UNL     1      52.416   1.015  17.608  0.00  0.00    +0.000 A 
ATOM     35  O   UNL     1      51.196   1.034  17.503  0.00  0.00    +0.000 OA
ATOM     36  C   UNL     1      53.228   2.176  17.924  0.00  0.00    +0.000 A 
ATOM     37  H   UNL     1      52.592  -0.961  17.163  0.00  0.00    +0.000 HD
ENDBRANCH  24  27
ENDBRANCH  22  23
ENDBRANCH   4  22
TORSDOF 6
ENDMDL
MODEL 3
REMARK VINA RESULT:    -7.399      3.437     10.264
REMARK INTER + INTRA:         -10.960
REMARK INTER:                 -10.027
REMARK INTRA:                  -0.932
REMARK UNBOUND:                -0.965
REMARK  Name = 
REMARK  6 active torsions:
REMARK  status: ('A' for Active; 'I' for Inactive)
REMARK    1  A    between atoms: C_2  and  C_4
REMARK    2  A    between atoms: N_11  and  C_12
REMARK    3  A    between atoms: C_12  and  C_13
REMARK    4  A    between atoms: C_16  and  C_17
REMARK    5  A    between atoms: C_17  and  N_18
REMARK    6  A    between atoms: C_19  and  C_21
REMARK                            x       y       z     vdW  Elec       q    Type
REMARK                         _______ _______ _______ _____ _____    ______ ____
ROOT
ATOM      1  C   UNL     1      47.613   5.490  14.759  0.00  0.00    +0.000 A 
ATOM      2  C   UNL     1      48.439   6.117  15.702  0.00  0.00    +0.000 A 
ATOM      3  C   UNL     1      48.757   5.479  16.908  0.00  0.00    +0.000 A 
ATOM      4  C   UNL     1      48.271   4.194  17.185  0.00  0.00    +0.000 A 
ATOM      5  C   UNL     1      47.410   3.589  16.261  0.00  0.00    +0.000 A 
ATOM      6  C   UNL     1      47.093   4.224  15.058  0.00  0.00    +0.000 A 
ENDROOT
BRANCH   1   7
ATOM      7  C   UNL     1      47.292   6.145  13.441  0.00  0.00    +0.000 C 
BRANCH   7  15
ATOM      8  C   UNL     1      44.410   3.858  10.877  0.00  0.00    +0.000 A 
ATOM      9  C   UNL     1      44.168   3.216   9.663  0.00  0.00    +0.000 A 
ATOM     10  C   UNL     1      44.828   3.918   8.639  0.00  0.00    +0.000 A 
ATOM     11  C   UNL     1      45.449   4.984   9.234  0.00  0.00    +0.000 A 
ATOM     12  N   UNL     1      45.285   4.919  10.614  0.00  0.00    +0.000 N 
ATOM     13  C   UNL     1      45.901   5.861  11.472  0.00  0.00    +0.000 C 
ATOM     14  O   UNL     1      46.020   7.019  11.095  0.00  0.00    +0.000 OA
ATOM     15  N   UNL     1      46.486   5.306  12.582  0.00  0.00    +0.000 N 
ATOM     16  H   UNL     1      46.216   4.381  12.905  0.00  0.00    +0.000 HD
BRANCH   8  18
ATOM     17  N   UNL     1      43.703   2.219  12.441  0.00  0.00    +0.000 N 
ATOM     18  C   UNL     1      43.823   3.553  12.160  0.00  0.00    +0.000 C 
ATOM     19  O   UNL     1      43.423   4.385  12.966  0.00  0.00    +0.000 OA
ATOM     20  H   UNL     1      43.210   1.961  13.285  0.00  0.00    +0.000 HD
ATOM     21  H   UNL     1      43.850   1.504  11.742  0.00  0.00    +0.000 HD
ENDBRANCH   8  18
ENDBRANCH   7  15
ENDBRANCH   1   7
BRANCH   4  22
ATOM     22  C   UNL     1      48.648   3.478  18.457  0.00  0.00    +0.000 C 
BRANCH  22  23
ATOM     23  N   UNL     1      50.057   3.187  18.500  0.00  0.00    +0.000 N 
ATOM     24  C   UNL     1      50.627   2.299  17.623  0.00  0.00    +0.000 C 
ATOM     25  O   UNL     1      49.955   1.608  16.862  0.00  0.00    +0.000 OA
ATOM     26  H   UNL     1      50.645   3.857  18.984  0.00  0.00    +0.000 HD
BRANCH  24  27
ATOM     27  C   UNL     1      52.093   2.204  17.646  0.00  0.00    +0.000 A 
ATOM     28  C   UNL     1      52.709   0.959  17.628  0.00  0.00    +0.000 A 
ATOM     29  S   UNL     1      54.413   1.041  17.597  0.00  0.00    +0.000 S 
ATOM     30  C   UNL     1      54.382   2.743  17.544  0.00  0.00    +0.000 A 
ATOM     31  N   UNL     1      55.532   3.460  17.413  0.00  0.00    +0.000 NA
ATOM     32  C   UNL     1      55.359   4.738  17.366  0.00  0.00    +0.000 A 
ATOM     33  N   UNL     1      54.145   5.368  17.471  0.00  0.00    +0.000 N 
ATOM     34  C   UNL     1      52.964   4.688  17.646  0.00  0.00    +0.000 A 
ATOM     35  O   UNL     1      51.908   5.284  17.827  0.00  0.00    +0.000 OA
ATOM     36  C   UNL     1      53.095   3.242  17.636  0.00  0.00    +0.000 A 
ATOM     37  H   UNL     1      54.082   6.376  17.476  0.00  0.00    +0.000 HD
ENDBRANCH  24  27
ENDBRANCH  22  23
ENDBRANCH   4  22
TORSDOF 6
ENDMDL
MODEL 4
REMARK VINA RESULT:    -7.387      3.572     10.275
REMARK INTER + INTRA:         -10.943
REMARK INTER:                  -9.907
REMARK INTRA:                  -1.036
REMARK UNBOUND:                -0.965
REMARK  Name = 
REMARK  6 active torsions:
REMARK  status: ('A' for Active; 'I' for Inactive)
REMARK    1  A    between atoms: C_2  and  C_4
REMARK    2  A    between atoms: N_11  and  C_12
REMARK    3  A    between atoms: C_12  and  C_13
REMARK    4  A    between atoms: C_16  and  C_17
REMARK    5  A    between atoms: C_17  and  N_18
REMARK    6  A    between atoms: C_19  and  C_21
REMARK                            x       y       z     vdW  Elec       q    Type
REMARK                         _______ _______ _______ _____ _____    ______ ____
ROOT
ATOM      1  C   UNL     1      47.578   7.380  13.193  0.00  0.00    +0.000 A 
ATOM      2  C   UNL     1      47.760   8.682  13.682  0.00  0.00    +0.000 A 
ATOM      3  C   UNL     1      48.328   8.897  14.944  0.00  0.00    +0.000 A 
ATOM      4  C   UNL     1      48.744   7.816  15.733  0.00  0.00    +0.000 A 
ATOM      5  C   UNL     1      48.522   6.516  15.260  0.00  0.00    +0.000 A 
ATOM      6  C   UNL     1      47.954   6.301  14.001  0.00  0.00    +0.000 A 
ENDROOT
BRANCH   1   7
ATOM      7  C   UNL     1      47.004   7.132  11.823  0.00  0.00    +0.000 C 
BRANCH   7  15
ATOM      8  C   UNL     1      43.627   4.198  11.512  0.00  0.00    +0.000 A 
ATOM      9  C   UNL     1      43.231   2.877  11.304  0.00  0.00    +0.000 A 
ATOM     10  C   UNL     1      44.091   2.289  10.358  0.00  0.00    +0.000 A 
ATOM     11  C   UNL     1      44.987   3.257   9.990  0.00  0.00    +0.000 A 
ATOM     12  N   UNL     1      44.782   4.406  10.748  0.00  0.00    +0.000 N 
ATOM     13  C   UNL     1      45.632   5.530  10.621  0.00  0.00    +0.000 C 
ATOM     14  O   UNL     1      46.096   5.803   9.522  0.00  0.00    +0.000 OA
ATOM     15  N   UNL     1      46.003   6.088  11.818  0.00  0.00    +0.000 N 
ATOM     16  H   UNL     1      45.466   5.914  12.662  0.00  0.00    +0.000 HD
BRANCH   8  18
ATOM     17  N   UNL     1      42.229   6.114  11.580  0.00  0.00    +0.000 N 
ATOM     18  C   UNL     1      42.950   5.200  12.299  0.00  0.00    +0.000 C 
ATOM     19  O   UNL     1      42.999   5.286  13.521  0.00  0.00    +0.000 OA
ATOM     20  H   UNL     1      41.819   6.888  12.084  0.00  0.00    +0.000 HD
ATOM     21  H   UNL     1      42.304   6.191  10.576  0.00  0.00    +0.000 HD
ENDBRANCH   8  18
ENDBRANCH   7  15
ENDBRANCH   1   7
BRANCH   4  22
ATOM     22  C   UNL     1      49.404   8.037  17.070  0.00  0.00    +0.000 C 
BRANCH  22  23
ATOM     23  N   UNL     1      50.452   7.079  17.305  0.00  0.00    +0.000 N 
ATOM     24  C   UNL     1      50.302   6.072  18.225  0.00  0.00    +0.000 C 
ATOM     25  O   UNL     1      49.340   6.019  18.986  0.00  0.00    +0.000 OA
ATOM     26  H   UNL     1      51.161   6.995  16.585  0.00  0.00    +0.000 HD
BRANCH  24  27
ATOM     27  C   UNL     1      51.362   5.057  18.264  0.00  0.00    +0.000 A 
ATOM     28  C   UNL     1      52.598   5.363  18.820  0.00  0.00    +0.000 A 
ATOM     29  S   UNL     1      53.684   4.048  18.836  0.00  0.00    +0.000 S 
ATOM     30  C   UNL     1      52.519   3.009  18.157  0.00  0.00    +0.000 A 
ATOM     31  N   UNL     1      52.778   1.684  17.984  0.00  0.00    +0.000 NA
ATOM     32  C   UNL     1      51.799   1.012  17.478  0.00  0.00    +0.000 A 
ATOM     33  N   UNL     1      50.595   1.548  17.099  0.00  0.00    +0.000 N 
ATOM     34  C   UNL     1      50.304   2.887  17.215  0.00  0.00    +0.000 A 
ATOM     35  O   UNL     1      49.255   3.349  16.782  0.00  0.00    +0.000 OA
ATOM     36  C   UNL     1      51.348   3.676  17.843  0.00  0.00    +0.000 A 
ATOM     37  H   UNL     1      49.886   0.976  16.663  0.00  0.00    +0.000 HD
ENDBRANCH  24  27
ENDBRANCH  22  23
ENDBRANCH   4  22
TORSDOF 6
ENDMDL
MODEL 5
REMARK VINA RESULT:    -7.304      3.039      4.602
REMARK INTER + INTRA:         -10.832
REMARK INTER:                  -9.640
REMARK INTRA:                  -1.191
REMARK UNBOUND:                -0.965
REMARK  Name = 
REMARK  6 active torsions:
REMARK  status: ('A' for Active; 'I' for Inactive)
REMARK    1  A    between atoms: C_2  and  C_4
REMARK    2  A    between atoms: N_11  and  C_12
REMARK    3  A    between atoms: C_12  and  C_13
REMARK    4  A    between atoms: C_16  and  C_17
REMARK    5  A    between atoms: C_17  and  N_18
REMARK    6  A    between atoms: C_19  and  C_21
REMARK                            x       y       z     vdW  Elec       q    Type
REMARK                         _______ _______ _______ _____ _____    ______ ____
ROOT
ATOM      1  C   UNL     1      49.972   6.825  16.268  0.00  0.00    +0.000 A 
ATOM      2  C   UNL     1      50.791   7.483  15.338  0.00  0.00    +0.000 A 
ATOM      3  C   UNL     1      50.331   7.742  14.040  0.00  0.00    +0.000 A 
ATOM      4  C   UNL     1      49.038   7.366  13.654  0.00  0.00    +0.000 A 
ATOM      5  C   UNL     1      48.239   6.671  14.570  0.00  0.00    +0.000 A 
ATOM      6  C   UNL     1      48.697   6.412  15.865  0.00  0.00    +0.000 A 
ENDROOT
BRANCH   1   7
ATOM      7  C   UNL     1      50.437   6.572  17.678  0.00  0.00    +0.000 C 
BRANCH   7  15
ATOM      8  C   UNL     1      52.748   2.820  18.507  0.00  0.00    +0.000 A 
ATOM      9  C   UNL     1      53.158   1.566  18.056  0.00  0.00    +0.000 A 
ATOM     10  C   UNL     1      52.118   0.994  17.300  0.00  0.00    +0.000 A 
ATOM     11  C   UNL     1      51.086   1.893  17.312  0.00  0.00    +0.000 A 
ATOM     12  N   UNL     1      51.478   3.057  17.966  0.00  0.00    +0.000 N 
ATOM     13  C   UNL     1      50.620   4.180  18.046  0.00  0.00    +0.000 C 
ATOM     14  O   UNL     1      49.414   4.000  18.150  0.00  0.00    +0.000 OA
ATOM     15  N   UNL     1      51.242   5.377  17.794  0.00  0.00    +0.000 N 
ATOM     16  H   UNL     1      52.251   5.465  17.871  0.00  0.00    +0.000 HD
BRANCH   8  18
ATOM     17  N   UNL     1      53.365   3.341  20.739  0.00  0.00    +0.000 N 
ATOM     18  C   UNL     1      53.448   3.692  19.418  0.00  0.00    +0.000 C 
ATOM     19  O   UNL     1      54.069   4.698  19.093  0.00  0.00    +0.000 OA
ATOM     20  H   UNL     1      53.758   3.977  21.418  0.00  0.00    +0.000 HD
ATOM     21  H   UNL     1      52.723   2.634  21.069  0.00  0.00    +0.000 HD
ENDBRANCH   8  18
ENDBRANCH   7  15
ENDBRANCH   1   7
BRANCH   4  22
ATOM     22  C   UNL     1      48.514   7.685  12.276  0.00  0.00    +0.000 C 
BRANCH  22  23
ATOM     23  N   UNL     1      47.686   6.623  11.768  0.00  0.00    +0.000 N 
ATOM     24  C   UNL     1      46.361   6.830  11.479  0.00  0.00    +0.000 C 
ATOM     25  O   UNL     1      45.784   7.875  11.768  0.00  0.00    +0.000 OA
ATOM     26  H   UNL     1      48.167   5.827  11.363  0.00  0.00    +0.000 HD
BRANCH  24  27
ATOM     27  C   UNL     1      45.656   5.729  10.812  0.00  0.00    +0.000 A 
ATOM     28  C   UNL     1      45.820   5.523   9.448  0.00  0.00    +0.000 A 
ATOM     29  S   UNL     1      44.976   4.164   8.856  0.00  0.00    +0.000 S 
ATOM     30  C   UNL     1      44.413   3.769  10.414  0.00  0.00    +0.000 A 
ATOM     31  N   UNL     1      43.690   2.636  10.631  0.00  0.00    +0.000 NA
ATOM     32  C   UNL     1      43.346   2.452  11.862  0.00  0.00    +0.000 A 
ATOM     33  N   UNL     1      43.632   3.312  12.891  0.00  0.00    +0.000 N 
ATOM     34  C   UNL     1      44.323   4.487  12.713  0.00  0.00    +0.000 A 
ATOM     35  O   UNL     1      44.482   5.277  13.635  0.00  0.00    +0.000 OA
ATOM     36  C   UNL     1      44.792   4.708  11.356  0.00  0.00    +0.000 A 
ATOM     37  H   UNL     1      43.292   3.134  13.826  0.00  0.00    +0.000 HD
ENDBRANCH  24  27
ENDBRANCH  22  23
ENDBRANCH   4  22
TORSDOF 6
ENDMDL
MODEL 6
REMARK VINA RESULT:    -7.218      7.571     10.942
REMARK INTER + INTRA:         -10.715
REMARK INTER:                  -9.488
REMARK INTRA:                  -1.227
REMARK UNBOUND:                -0.965
REMARK  Name = 
REMARK  6 active torsions:
REMARK  status: ('A' for Active; 'I' for Inactive)
REMARK    1  A    between atoms: C_2  and  C_4
REMARK    2  A    between atoms: N_11  and  C_12
REMARK    3  A    between atoms: C_12  and  C_13
REMARK    4  A    between atoms: C_16  and  C_17
REMARK    5  A    between atoms: C_17  and  N_18
REMARK    6  A    between atoms: C_19  and  C_21
REMARK                            x       y       z     vdW  Elec       q    Type
REMARK                         _______ _______ _______ _____ _____    ______ ____
ROOT
ATOM      1  C   UNL     1      48.082   7.813  12.492  0.00  0.00    +0.000 A 
ATOM      2  C   UNL     1      49.275   7.108  12.278  0.00  0.00    +0.000 A 
ATOM      3  C   UNL     1      50.403   7.756  11.758  0.00  0.00    +0.000 A 
ATOM      4  C   UNL     1      50.366   9.125  11.462  0.00  0.00    +0.000 A 
ATOM      5  C   UNL     1      49.160   9.817  11.635  0.00  0.00    +0.000 A 
ATOM      6  C   UNL     1      48.034   9.171  12.153  0.00  0.00    +0.000 A 
ENDROOT
BRANCH   1   7
ATOM      7  C   UNL     1      46.872   7.141  13.084  0.00  0.00    +0.000 C 
BRANCH   7  15
ATOM      8  C   UNL     1      45.137   3.601  10.948  0.00  0.00    +0.000 A 
ATOM      9  C   UNL     1      45.055   2.861   9.769  0.00  0.00    +0.000 A 
ATOM     10  C   UNL     1      45.107   3.745   8.675  0.00  0.00    +0.000 A 
ATOM     11  C   UNL     1      45.204   5.007   9.197  0.00  0.00    +0.000 A 
ATOM     12  N   UNL     1      45.316   4.940  10.582  0.00  0.00    +0.000 N 
ATOM     13  C   UNL     1      45.511   6.106  11.360  0.00  0.00    +0.000 C 
ATOM     14  O   UNL     1      44.979   7.151  11.010  0.00  0.00    +0.000 OA
ATOM     15  N   UNL     1      46.462   5.970  12.340  0.00  0.00    +0.000 N 
ATOM     16  H   UNL     1      46.742   5.052  12.670  0.00  0.00    +0.000 HD
BRANCH   8  18
ATOM     17  N   UNL     1      43.769   2.569  12.591  0.00  0.00    +0.000 N 
ATOM     18  C   UNL     1      44.991   3.111  12.298  0.00  0.00    +0.000 C 
ATOM     19  O   UNL     1      45.855   3.171  13.165  0.00  0.00    +0.000 OA
ATOM     20  H   UNL     1      43.592   2.303  13.549  0.00  0.00    +0.000 HD
ATOM     21  H   UNL     1      42.976   2.660  11.971  0.00  0.00    +0.000 HD
ENDBRANCH   8  18
ENDBRANCH   7  15
ENDBRANCH   1   7
BRANCH   4  22
ATOM     22  C   UNL     1      51.588   9.844  10.950  0.00  0.00    +0.000 C 
BRANCH  22  23
ATOM     23  N   UNL     1      51.965   9.378   9.642  0.00  0.00    +0.000 N 
ATOM     24  C   UNL     1      53.175   8.768   9.425  0.00  0.00    +0.000 C 
ATOM     25  O   UNL     1      54.046   8.716  10.288  0.00  0.00    +0.000 OA
ATOM     26  H   UNL     1      51.214   9.250   8.971  0.00  0.00    +0.000 HD
BRANCH  24  27
ATOM     27  C   UNL     1      53.385   8.184   8.093  0.00  0.00    +0.000 A 
ATOM     28  C   UNL     1      53.456   9.007   6.977  0.00  0.00    +0.000 A 
ATOM     29  S   UNL     1      53.765   8.165   5.526  0.00  0.00    +0.000 S 
ATOM     30  C   UNL     1      53.876   6.680   6.351  0.00  0.00    +0.000 A 
ATOM     31  N   UNL     1      54.218   5.538   5.693  0.00  0.00    +0.000 NA
ATOM     32  C   UNL     1      54.283   4.490   6.445  0.00  0.00    +0.000 A 
ATOM     33  N   UNL     1      54.008   4.473   7.788  0.00  0.00    +0.000 N 
ATOM     34  C   UNL     1      53.619   5.592   8.485  0.00  0.00    +0.000 A 
ATOM     35  O   UNL     1      53.291   5.524   9.664  0.00  0.00    +0.000 OA
ATOM     36  C   UNL     1      53.596   6.812   7.699  0.00  0.00    +0.000 A 
ATOM     37  H   UNL     1      54.030   3.609   8.311  0.00  0.00    +0.000 HD
ENDBRANCH  24  27
ENDBRANCH  22  23
ENDBRANCH   4  22
TORSDOF 6
ENDMDL
MODEL 7
REMARK VINA RESULT:    -7.182      2.845      4.464
REMARK INTER + INTRA:         -10.667
REMARK INTER:                 -10.014
REMARK INTRA:                  -0.653
REMARK UNBOUND:                -0.965
REMARK  Name = 
REMARK  6 active torsions:
REMARK  status: ('A' for Active; 'I' for Inactive)
REMARK    1  A    between atoms: C_2  and  C_4
REMARK    2  A    between atoms: N_11  and  C_12
REMARK    3  A    between atoms: C_12  and  C_13
REMARK    4  A    between atoms: C_16  and  C_17
REMARK    5  A    between atoms: C_17  and  N_18
REMARK    6  A    between atoms: C_19  and  C_21
REMARK                            x       y       z     vdW  Elec       q    Type
REMARK                         _______ _______ _______ _____ _____    ______ ____
ROOT
ATOM      1  C   UNL     1      49.526   6.933  17.309  0.00  0.00    +0.000 A 
ATOM      2  C   UNL     1      49.246   6.187  16.155  0.00  0.00    +0.000 A 
ATOM      3  C   UNL     1      48.615   6.783  15.056  0.00  0.00    +0.000 A 
ATOM      4  C   UNL     1      48.270   8.141  15.081  0.00  0.00    +0.000 A 
ATOM      5  C   UNL     1      48.511   8.872  16.251  0.00  0.00    +0.000 A 
ATOM      6  C   UNL     1      49.141   8.278  17.348  0.00  0.00    +0.000 A 
ENDROOT
BRANCH   1   7
ATOM      7  C   UNL     1      50.238   6.318  18.485  0.00  0.00    +0.000 C 
BRANCH   7  15
ATOM      8  C   UNL     1      51.092   2.049  17.410  0.00  0.00    +0.000 A 
ATOM      9  C   UNL     1      51.838   0.898  17.661  0.00  0.00    +0.000 A 
ATOM     10  C   UNL     1      53.144   1.275  18.023  0.00  0.00    +0.000 A 
ATOM     11  C   UNL     1      53.184   2.643  17.974  0.00  0.00    +0.000 A 
ATOM     12  N   UNL     1      51.917   3.144  17.690  0.00  0.00    +0.000 N 
ATOM     13  C   UNL     1      51.669   4.537  17.662  0.00  0.00    +0.000 C 
ATOM     14  O   UNL     1      52.543   5.289  17.254  0.00  0.00    +0.000 OA
ATOM     15  N   UNL     1      50.511   4.910  18.298  0.00  0.00    +0.000 N 
ATOM     16  H   UNL     1      49.771   4.235  18.470  0.00  0.00    +0.000 HD
BRANCH   8  18
ATOM     17  N   UNL     1      48.800   2.544  17.778  0.00  0.00    +0.000 N 
ATOM     18  C   UNL     1      49.749   2.122  16.887  0.00  0.00    +0.000 C 
ATOM     19  O   UNL     1      49.421   1.820  15.744  0.00  0.00    +0.000 OA
ATOM     20  H   UNL     1      47.834   2.517  17.482  0.00  0.00    +0.000 HD
ATOM     21  H   UNL     1      48.989   2.629  18.767  0.00  0.00    +0.000 HD
ENDBRANCH   8  18
ENDBRANCH   7  15
ENDBRANCH   1   7
BRANCH   4  22
ATOM     22  C   UNL     1      47.637   8.805  13.885  0.00  0.00    +0.000 C 
BRANCH  22  23
ATOM     23  N   UNL     1      46.445   8.115  13.468  0.00  0.00    +0.000 N 
ATOM     24  C   UNL     1      46.459   7.249  12.404  0.00  0.00    +0.000 C 
ATOM     25  O   UNL     1      47.438   7.128  11.672  0.00  0.00    +0.000 OA
ATOM     26  H   UNL     1      45.691   8.060  14.145  0.00  0.00    +0.000 HD
BRANCH  24  27
ATOM     27  C   UNL     1      45.233   6.476  12.171  0.00  0.00    +0.000 A 
ATOM     28  C   UNL     1      44.102   7.101  11.661  0.00  0.00    +0.000 A 
ATOM     29  S   UNL     1      42.794   6.039  11.399  0.00  0.00    +0.000 S 
ATOM     30  C   UNL     1      43.715   4.697  11.898  0.00  0.00    +0.000 A 
ATOM     31  N   UNL     1      43.208   3.435  11.829  0.00  0.00    +0.000 NA
ATOM     32  C   UNL     1      44.022   2.513  12.221  0.00  0.00    +0.000 A 
ATOM     33  N   UNL     1      45.284   2.738  12.706  0.00  0.00    +0.000 N 
ATOM     34  C   UNL     1      45.822   3.997  12.833  0.00  0.00    +0.000 A 
ATOM     35  O   UNL     1      46.917   4.170  13.355  0.00  0.00    +0.000 OA
ATOM     36  C   UNL     1      44.972   5.066  12.341  0.00  0.00    +0.000 A 
ATOM     37  H   UNL     1      45.854   1.975  13.043  0.00  0.00    +0.000 HD
ENDBRANCH  24  27
ENDBRANCH  22  23
ENDBRANCH   4  22
TORSDOF 6
ENDMDL
MODEL 8
REMARK VINA RESULT:    -7.180      5.338     10.040
REMARK INTER + INTRA:         -10.664
REMARK INTER:                  -9.810
REMARK INTRA:                  -0.854
REMARK UNBOUND:                -0.965
REMARK  Name = 
REMARK  6 active torsions:
REMARK  status: ('A' for Active; 'I' for Inactive)
REMARK    1  A    between atoms: C_2  and  C_4
REMARK    2  A    between atoms: N_11  and  C_12
REMARK    3  A    between atoms: C_12  and  C_13
REMARK    4  A    between atoms: C_16  and  C_17
REMARK    5  A    between atoms: C_17  and  N_18
REMARK    6  A    between atoms: C_19  and  C_21
REMARK                            x       y       z     vdW  Elec       q    Type
REMARK                         _______ _______ _______ _____ _____    ______ ____
ROOT
ATOM      1  C   UNL     1      45.439   4.768  11.518  0.00  0.00    +0.000 A 
ATOM      2  C   UNL     1      45.846   4.555  12.843  0.00  0.00    +0.000 A 
ATOM      3  C   UNL     1      46.523   5.557  13.551  0.00  0.00    +0.000 A 
ATOM      4  C   UNL     1      46.788   6.797  12.955  0.00  0.00    +0.000 A 
ATOM      5  C   UNL     1      46.419   6.990  11.617  0.00  0.00    +0.000 A 
ATOM      6  C   UNL     1      45.745   5.991  10.910  0.00  0.00    +0.000 A 
ENDROOT
BRANCH   1   7
ATOM      7  C   UNL     1      44.678   3.716  10.756  0.00  0.00    +0.000 C 
BRANCH   7  15
ATOM      8  C   UNL     1      46.693   1.661   7.316  0.00  0.00    +0.000 A 
ATOM      9  C   UNL     1      47.670   1.713   6.323  0.00  0.00    +0.000 A 
ATOM     10  C   UNL     1      47.760   3.033   5.844  0.00  0.00    +0.000 A 
ATOM     11  C   UNL     1      46.832   3.764   6.536  0.00  0.00    +0.000 A 
ATOM     12  N   UNL     1      46.229   2.968   7.506  0.00  0.00    +0.000 N 
ATOM     13  C   UNL     1      45.287   3.507   8.415  0.00  0.00    +0.000 C 
ATOM     14  O   UNL     1      44.529   4.388   8.033  0.00  0.00    +0.000 OA
ATOM     15  N   UNL     1      45.469   3.100   9.713  0.00  0.00    +0.000 N 
ATOM     16  H   UNL     1      46.004   2.264   9.926  0.00  0.00    +0.000 HD
BRANCH   8  18
ATOM     17  N   UNL     1      46.832  -0.681   7.676  0.00  0.00    +0.000 N 
ATOM     18  C   UNL     1      46.186   0.486   7.982  0.00  0.00    +0.000 C 
ATOM     19  O   UNL     1      45.236   0.471   8.758  0.00  0.00    +0.000 OA
ATOM     20  H   UNL     1      46.449  -1.540   8.044  0.00  0.00    +0.000 HD
ATOM     21  H   UNL     1      47.495  -0.747   6.915  0.00  0.00    +0.000 HD
ENDBRANCH   8  18
ENDBRANCH   7  15
ENDBRANCH   1   7
BRANCH   4  22
ATOM     22  C   UNL     1      47.470   7.900  13.723  0.00  0.00    +0.000 C 
BRANCH  22  23
ATOM     23  N   UNL     1      47.844   7.469  15.044  0.00  0.00    +0.000 N 
ATOM     24  C   UNL     1      49.137   7.114  15.338  0.00  0.00    +0.000 C 
ATOM     25  O   UNL     1      49.999   7.010  14.470  0.00  0.00    +0.000 OA
ATOM     26  H   UNL     1      47.210   7.711  15.798  0.00  0.00    +0.000 HD
BRANCH  24  27
ATOM     27  C   UNL     1      49.440   6.852  16.750  0.00  0.00    +0.000 A 
ATOM     28  C   UNL     1      50.106   7.807  17.508  0.00  0.00    +0.000 A 
ATOM     29  S   UNL     1      50.318   7.358  19.140  0.00  0.00    +0.000 S 
ATOM     30  C   UNL     1      49.472   5.900  18.903  0.00  0.00    +0.000 A 
ATOM     31  N   UNL     1      49.210   5.065  19.946  0.00  0.00    +0.000 NA
ATOM     32  C   UNL     1      48.544   4.006  19.626  0.00  0.00    +0.000 A 
ATOM     33  N   UNL     1      48.143   3.689  18.354  0.00  0.00    +0.000 N 
ATOM     34  C   UNL     1      48.421   4.480  17.264  0.00  0.00    +0.000 A 
ATOM     35  O   UNL     1      48.129   4.123  16.129  0.00  0.00    +0.000 OA
ATOM     36  C   UNL     1      49.109   5.718  17.581  0.00  0.00    +0.000 A 
ATOM     37  H   UNL     1      47.666   2.819  18.161  0.00  0.00    +0.000 HD
ENDBRANCH  24  27
ENDBRANCH  22  23
ENDBRANCH   4  22
TORSDOF 6
ENDMDL
MODEL 9
REMARK VINA RESULT:    -7.010      6.865     10.415
REMARK INTER + INTRA:         -10.435
REMARK INTER:                  -9.058
REMARK INTRA:                  -1.377
REMARK UNBOUND:                -0.965
REMARK  Name = 
REMARK  6 active torsions:
REMARK  status: ('A' for Active; 'I' for Inactive)
REMARK    1  A    between atoms: C_2  and  C_4
REMARK    2  A    between atoms: N_11  and  C_12
REMARK    3  A    between atoms: C_12  and  C_13
REMARK    4  A    between atoms: C_16  and  C_17
REMARK    5  A    between atoms: C_17  and  N_18
REMARK    6  A    between atoms: C_19  and  C_21
REMARK                            x       y       z     vdW  Elec       q    Type
REMARK                         _______ _______ _______ _____ _____    ______ ____
ROOT
ATOM      1  C   UNL     1      48.756   6.946  13.713  0.00  0.00    +0.000 A 
ATOM      2  C   UNL     1      48.714   7.142  12.326  0.00  0.00    +0.000 A 
ATOM      3  C   UNL     1      49.728   7.858  11.676  0.00  0.00    +0.000 A 
ATOM      4  C   UNL     1      50.812   8.375  12.398  0.00  0.00    +0.000 A 
ATOM      5  C   UNL     1      50.828   8.215  13.789  0.00  0.00    +0.000 A 
ATOM      6  C   UNL     1      49.817   7.501  14.438  0.00  0.00    +0.000 A 
ENDROOT
BRANCH   1   7
ATOM      7  C   UNL     1      47.695   6.147  14.423  0.00  0.00    +0.000 C 
BRANCH   7  15
ATOM      8  C   UNL     1      44.709   4.739  11.388  0.00  0.00    +0.000 A 
ATOM      9  C   UNL     1      43.517   4.060  11.136  0.00  0.00    +0.000 A 
ATOM     10  C   UNL     1      43.412   2.980  12.032  0.00  0.00    +0.000 A 
ATOM     11  C   UNL     1      44.542   3.002  12.805  0.00  0.00    +0.000 A 
ATOM     12  N   UNL     1      45.308   4.121  12.493  0.00  0.00    +0.000 N 
ATOM     13  C   UNL     1      46.492   4.423  13.208  0.00  0.00    +0.000 C 
ATOM     14  O   UNL     1      47.194   3.506  13.610  0.00  0.00    +0.000 OA
ATOM     15  N   UNL     1      46.617   5.747  13.545  0.00  0.00    +0.000 N 
ATOM     16  H   UNL     1      46.090   6.462  13.053  0.00  0.00    +0.000 HD
BRANCH   8  18
ATOM     17  N   UNL     1      45.664   5.498   9.353  0.00  0.00    +0.000 N 
ATOM     18  C   UNL     1      45.274   5.824  10.624  0.00  0.00    +0.000 C 
ATOM     19  O   UNL     1      45.438   6.966  11.038  0.00  0.00    +0.000 OA
ATOM     20  H   UNL     1      46.152   6.203   8.818  0.00  0.00    +0.000 HD
ATOM     21  H   UNL     1      45.715   4.541   9.033  0.00  0.00    +0.000 HD
ENDBRANCH   8  18
ENDBRANCH   7  15
ENDBRANCH   1   7
BRANCH   4  22
ATOM     22  C   UNL     1      51.934   9.103  11.702  0.00  0.00    +0.000 C 
BRANCH  22  23
ATOM     23  N   UNL     1      52.060   8.688  10.330  0.00  0.00    +0.000 N 
ATOM     24  C   UNL     1      53.178   8.993   9.595  0.00  0.00    +0.000 C 
ATOM     25  O   UNL     1      54.052   9.746  10.015  0.00  0.00    +0.000 OA
ATOM     26  H   UNL     1      51.453   7.935  10.025  0.00  0.00    +0.000 HD
BRANCH  24  27
ATOM     27  C   UNL     1      53.275   8.379   8.264  0.00  0.00    +0.000 A 
ATOM     28  C   UNL     1      53.283   9.179   7.129  0.00  0.00    +0.000 A 
ATOM     29  S   UNL     1      53.462   8.302   5.676  0.00  0.00    +0.000 S 
ATOM     30  C   UNL     1      53.598   6.830   6.521  0.00  0.00    +0.000 A 
ATOM     31  N   UNL     1      53.863   5.668   5.864  0.00  0.00    +0.000 NA
ATOM     32  C   UNL     1      53.959   4.633   6.630  0.00  0.00    +0.000 A 
ATOM     33  N   UNL     1      53.784   4.648   7.990  0.00  0.00    +0.000 N 
ATOM     34  C   UNL     1      53.475   5.789   8.691  0.00  0.00    +0.000 A 
ATOM     35  O   UNL     1      53.234   5.752   9.892  0.00  0.00    +0.000 OA
ATOM     36  C   UNL     1      53.423   6.995   7.883  0.00  0.00    +0.000 A 
ATOM     37  H   UNL     1      53.824   3.794   8.528  0.00  0.00    +0.000 HD
ENDBRANCH  24  27
ENDBRANCH  22  23
ENDBRANCH   4  22
TORSDOF 6
ENDMDL
