MODEL 1
REMARK VINA RESULT:    -8.522      0.000      0.000
REMARK INTER + INTRA:         -13.277
REMARK INTER:                 -12.507
REMARK INTRA:                  -0.770
REMARK UNBOUND:                -0.770
REMARK  Name = 
REMARK  9 active torsions:
REMARK  status: ('A' for Active; 'I' for Inactive)
REMARK    1  A    between atoms: C_1  and  C_2
REMARK    2  A    between atoms: C_2  and  C_3
REMARK    3  A    between atoms: C_3  and  N_4
REMARK    4  A    between atoms: C_3  and  C_17
REMARK    5  A    between atoms: C_5  and  C_7
REMARK    6  A    between atoms: C_20  and  C_21
REMARK    7  A    between atoms: C_21  and  N_22
REMARK    8  A    between atoms: N_22  and  C_23
REMARK    9  A    between atoms: C_23  and  C_24
REMARK                            x       y       z     vdW  Elec       q    Type
REMARK                         _______ _______ _______ _____ _____    ______ ____
ROOT
ATOM      1  C   UNL     1      46.737   8.115  13.067  0.00  0.00    +0.000 C 
ENDROOT
BRANCH   1   2
ATOM      2  C   UNL     1      45.977   6.988  12.389  0.00  0.00    +0.000 A 
ATOM      3  C   UNL     1      46.321   6.565  11.101  0.00  0.00    +0.000 A 
ATOM      4  C   UNL     1      45.624   5.516  10.501  0.00  0.00    +0.000 A 
ATOM      5  C   UNL     1      44.584   4.913  11.200  0.00  0.00    +0.000 A 
ATOM      6  N   UNL     1      44.199   5.330  12.430  0.00  0.00    +0.000 NA
ATOM      7  C   UNL     1      44.888   6.353  12.982  0.00  0.00    +0.000 A 
BRANCH   5   8
ATOM      8  C   UNL     1      43.806   3.761  10.597  0.00  0.00    +0.000 C 
BRANCH   8   9
ATOM      9  N   UNL     1      44.566   2.515  10.491  0.00  0.00    +0.000 NA
ATOM     10  H   UNL     1      44.179   1.856  11.175  0.00  0.00    +0.000 HD
BRANCH   9  11
ATOM     11  C   UNL     1      44.418   1.878   9.168  0.00  0.00    +0.000 C 
BRANCH  11  12
ATOM     12  C   UNL     1      45.687   2.000   8.340  0.00  0.00    +0.000 A 
ATOM     13  N   UNL     1      45.991   3.222   7.845  0.00  0.00    +0.000 NA
ATOM     14  C   UNL     1      47.044   3.284   7.012  0.00  0.00    +0.000 A 
ATOM     15  C   UNL     1      47.807   2.193   6.672  0.00  0.00    +0.000 A 
ATOM     16  C   UNL     1      47.437   1.003   7.252  0.00  0.00    +0.000 A 
ATOM     17  N   UNL     1      46.391   0.876   8.088  0.00  0.00    +0.000 NA
ENDBRANCH  11  12
ENDBRANCH   9  11
ENDBRANCH   8   9
ENDBRANCH   5   8
ENDBRANCH   1   2
BRANCH   1  18
ATOM     18  N   UNL     1      47.291   7.618  14.313  0.00  0.00    +0.000 N 
ATOM     19  C   UNL     1      48.296   6.688  14.374  0.00  0.00    +0.000 C 
ATOM     20  O   UNL     1      48.835   6.237  13.368  0.00  0.00    +0.000 OA
ATOM     21  H   UNL     1      46.805   7.880  15.164  0.00  0.00    +0.000 HD
BRANCH  19  22
ATOM     22  C   UNL     1      48.736   6.290  15.718  0.00  0.00    +0.000 A 
ATOM     23  C   UNL     1      49.680   7.057  16.389  0.00  0.00    +0.000 A 
ATOM     24  S   UNL     1      50.061   6.469  17.944  0.00  0.00    +0.000 S 
ATOM     25  C   UNL     1      49.013   5.144  17.756  0.00  0.00    +0.000 A 
ATOM     26  N   UNL     1      48.885   4.210  18.742  0.00  0.00    +0.000 NA
ATOM     27  C   UNL     1      48.079   3.243  18.457  0.00  0.00    +0.000 A 
ATOM     28  N   UNL     1      47.386   3.122  17.282  0.00  0.00    +0.000 N 
ATOM     29  C   UNL     1      47.454   4.060  16.278  0.00  0.00    +0.000 A 
ATOM     30  O   UNL     1      46.768   3.958  15.264  0.00  0.00    +0.000 OA
ATOM     31  C   UNL     1      48.363   5.159  16.537  0.00  0.00    +0.000 A 
ATOM     32  H   UNL     1      46.759   2.347  17.127  0.00  0.00    +0.000 HD
ENDBRANCH  19  22
ENDBRANCH   1  18
BRANCH   1  34
ATOM     33  C   UNL     1      47.746  10.220  11.941  0.00  0.00    +0.000 C 
ATOM     34  C   UNL     1      47.819   8.715  12.140  0.00  0.00    +0.000 C 
ENDBRANCH   1  34
TORSDOF 8
ENDMDL
MODEL 2
REMARK VINA RESULT:    -8.126      1.090      1.102
REMARK INTER + INTRA:         -12.697
REMARK INTER:                 -11.417
REMARK INTRA:                  -1.280
REMARK UNBOUND:                -0.770
REMARK  Name = 
REMARK  9 active torsions:
REMARK  status: ('A' for Active; 'I' for Inactive)
REMARK    1  A    between atoms: C_1  and  C_2
REMARK    2  A    between atoms: C_2  and  C_3
REMARK    3  A    between atoms: C_3  and  N_4
REMARK    4  A    between atoms: C_3  and  C_17
REMARK    5  A    between atoms: C_5  and  C_7
REMARK    6  A    between atoms: C_20  and  C_21
REMARK    7  A    between atoms: C_21  and  N_22
REMARK    8  A    between atoms: N_22  and  C_23
REMARK    9  A    between atoms: C_23  and  C_24
REMARK                            x       y       z     vdW  Elec       q    Type
REMARK                         _______ _______ _______ _____ _____    ______ ____
ROOT
ATOM      1  C   UNL     1      47.800   7.308  12.787  0.00  0.00    +0.000 C 
ENDROOT
BRANCH   1   2
ATOM      2  C   UNL     1      46.715   6.374  12.280  0.00  0.00    +0.000 A 
ATOM      3  C   UNL     1      46.204   6.504  10.985  0.00  0.00    +0.000 A 
ATOM      4  C   UNL     1      45.220   5.625  10.530  0.00  0.00    +0.000 A 
ATOM      5  C   UNL     1      44.756   4.634  11.388  0.00  0.00    +0.000 A 
ATOM      6  N   UNL     1      45.199   4.511  12.661  0.00  0.00    +0.000 NA
ATOM      7  C   UNL     1      46.146   5.381  13.076  0.00  0.00    +0.000 A 
BRANCH   5   8
ATOM      8  C   UNL     1      43.699   3.647  10.936  0.00  0.00    +0.000 C 
BRANCH   8   9
ATOM      9  N   UNL     1      43.804   3.258   9.528  0.00  0.00    +0.000 NA
ATOM     10  H   UNL     1      44.351   3.979   9.047  0.00  0.00    +0.000 HD
BRANCH   9  11
ATOM     11  C   UNL     1      44.537   1.989   9.351  0.00  0.00    +0.000 C 
BRANCH  11  12
ATOM     12  C   UNL     1      45.733   2.152   8.428  0.00  0.00    +0.000 A 
ATOM     13  N   UNL     1      45.967   3.387   7.928  0.00  0.00    +0.000 NA
ATOM     14  C   UNL     1      46.950   3.485   7.016  0.00  0.00    +0.000 A 
ATOM     15  C   UNL     1      47.710   2.418   6.603  0.00  0.00    +0.000 A 
ATOM     16  C   UNL     1      47.417   1.213   7.194  0.00  0.00    +0.000 A 
ATOM     17  N   UNL     1      46.443   1.050   8.108  0.00  0.00    +0.000 NA
ENDBRANCH  11  12
ENDBRANCH   9  11
ENDBRANCH   8   9
ENDBRANCH   5   8
ENDBRANCH   1   2
BRANCH   1  18
ATOM     18  N   UNL     1      48.487   6.664  13.891  0.00  0.00    +0.000 N 
ATOM     19  C   UNL     1      48.746   7.286  15.085  0.00  0.00    +0.000 C 
ATOM     20  O   UNL     1      48.371   8.431  15.324  0.00  0.00    +0.000 OA
ATOM     21  H   UNL     1      48.907   5.761  13.701  0.00  0.00    +0.000 HD
BRANCH  19  22
ATOM     22  C   UNL     1      49.455   6.490  16.096  0.00  0.00    +0.000 A 
ATOM     23  C   UNL     1      50.707   6.897  16.539  0.00  0.00    +0.000 A 
ATOM     24  S   UNL     1      51.379   5.874  17.727  0.00  0.00    +0.000 S 
ATOM     25  C   UNL     1      50.041   4.828  17.658  0.00  0.00    +0.000 A 
ATOM     26  N   UNL     1      49.993   3.704  18.429  0.00  0.00    +0.000 NA
ATOM     27  C   UNL     1      48.935   2.985  18.256  0.00  0.00    +0.000 A 
ATOM     28  N   UNL     1      47.919   3.284  17.387  0.00  0.00    +0.000 N 
ATOM     29  C   UNL     1      47.908   4.426  16.620  0.00  0.00    +0.000 A 
ATOM     30  O   UNL     1      46.950   4.700  15.901  0.00  0.00    +0.000 OA
ATOM     31  C   UNL     1      49.084   5.261  16.759  0.00  0.00    +0.000 A 
ATOM     32  H   UNL     1      47.110   2.686  17.310  0.00  0.00    +0.000 HD
ENDBRANCH  19  22
ENDBRANCH   1  18
BRANCH   1  34
ATOM     33  C   UNL     1      49.219   9.179  11.691  0.00  0.00    +0.000 C 
ATOM     34  C   UNL     1      48.767   7.729  11.656  0.00  0.00    +0.000 C 
ENDBRANCH   1  34
TORSDOF 8
ENDMDL
MODEL 3
REMARK VINA RESULT:    -7.817      2.496      2.933
REMARK INTER + INTRA:         -12.243
REMARK INTER:                 -11.062
REMARK INTRA:                  -1.181
REMARK UNBOUND:                -0.770
REMARK  Name = 
REMARK  9 active torsions:
REMARK  status: ('A' for Active; 'I' for Inactive)
REMARK    1  A    between atoms: C_1  and  C_2
REMARK    2  A    between atoms: C_2  and  C_3
REMARK    3  A    between atoms: C_3  and  N_4
REMARK    4  A    between atoms: C_3  and  C_17
REMARK    5  A    between atoms: C_5  and  C_7
REMARK    6  A    between atoms: C_20  and  C_21
REMARK    7  A    between atoms: C_21  and  N_22
REMARK    8  A    between atoms: N_22  and  C_23
REMARK    9  A    between atoms: C_23  and  C_24
REMARK                            x       y       z     vdW  Elec       q    Type
REMARK                         _______ _______ _______ _____ _____    ______ ____
ROOT
ATOM      1  C   UNL     1      48.336   6.722  15.411  0.00  0.00    +0.000 C 
ENDROOT
BRANCH   1   2
ATOM      2  C   UNL     1      47.486   5.845  14.507  0.00  0.00    +0.000 A 
ATOM      3  C   UNL     1      46.964   6.343  13.309  0.00  0.00    +0.000 A 
ATOM      4  C   UNL     1      46.201   5.518  12.483  0.00  0.00    +0.000 A 
ATOM      5  C   UNL     1      45.965   4.205  12.876  0.00  0.00    +0.000 A 
ATOM      6  N   UNL     1      46.420   3.708  14.051  0.00  0.00    +0.000 NA
ATOM      7  C   UNL     1      47.150   4.533  14.833  0.00  0.00    +0.000 A 
BRANCH   5   8
ATOM      8  C   UNL     1      45.154   3.266  12.007  0.00  0.00    +0.000 C 
BRANCH   8   9
ATOM      9  N   UNL     1      44.785   3.824  10.704  0.00  0.00    +0.000 NA
ATOM     10  H   UNL     1      45.607   4.310  10.331  0.00  0.00    +0.000 HD
BRANCH   9  11
ATOM     11  C   UNL     1      44.438   2.776   9.724  0.00  0.00    +0.000 C 
BRANCH  11  12
ATOM     12  C   UNL     1      45.528   2.597   8.681  0.00  0.00    +0.000 A 
ATOM     13  N   UNL     1      45.868   3.680   7.944  0.00  0.00    +0.000 NA
ATOM     14  C   UNL     1      46.741   3.472   6.944  0.00  0.00    +0.000 A 
ATOM     15  C   UNL     1      47.294   2.246   6.664  0.00  0.00    +0.000 A 
ATOM     16  C   UNL     1      46.911   1.216   7.488  0.00  0.00    +0.000 A 
ATOM     17  N   UNL     1      46.039   1.360   8.502  0.00  0.00    +0.000 NA
ENDBRANCH  11  12
ENDBRANCH   9  11
ENDBRANCH   8   9
ENDBRANCH   5   8
ENDBRANCH   1   2
BRANCH   1  18
ATOM     18  N   UNL     1      49.430   5.925  15.935  0.00  0.00    +0.000 N 
ATOM     19  C   UNL     1      49.811   5.940  17.252  0.00  0.00    +0.000 C 
ATOM     20  O   UNL     1      49.221   6.604  18.099  0.00  0.00    +0.000 OA
ATOM     21  H   UNL     1      50.011   5.446  15.255  0.00  0.00    +0.000 HD
BRANCH  19  22
ATOM     22  C   UNL     1      50.942   5.074  17.614  0.00  0.00    +0.000 A 
ATOM     23  C   UNL     1      52.116   5.640  18.096  0.00  0.00    +0.000 A 
ATOM     24  S   UNL     1      53.317   4.494  18.489  0.00  0.00    +0.000 S 
ATOM     25  C   UNL     1      52.326   3.207  17.987  0.00  0.00    +0.000 A 
ATOM     26  N   UNL     1      52.776   1.919  18.038  0.00  0.00    +0.000 NA
ATOM     27  C   UNL     1      51.934   1.045  17.599  0.00  0.00    +0.000 A 
ATOM     28  N   UNL     1      50.685   1.334  17.116  0.00  0.00    +0.000 N 
ATOM     29  C   UNL     1      50.177   2.612  17.084  0.00  0.00    +0.000 A 
ATOM     30  O   UNL     1      49.028   2.830  16.709  0.00  0.00    +0.000 OA
ATOM     31  C   UNL     1      51.090   3.639  17.546  0.00  0.00    +0.000 A 
ATOM     32  H   UNL     1      50.069   0.600  16.802  0.00  0.00    +0.000 HD
ENDBRANCH  19  22
ENDBRANCH   1  18
BRANCH   1  34
ATOM     33  C   UNL     1      50.183   7.865  13.997  0.00  0.00    +0.000 C 
ATOM     34  C   UNL     1      48.830   7.990  14.678  0.00  0.00    +0.000 C 
ENDBRANCH   1  34
TORSDOF 8
ENDMDL
MODEL 4
REMARK VINA RESULT:    -7.573      1.935      2.315
REMARK INTER + INTRA:         -11.884
REMARK INTER:                 -11.024
REMARK INTRA:                  -0.860
REMARK UNBOUND:                -0.770
REMARK  Name = 
REMARK  9 active torsions:
REMARK  status: ('A' for Active; 'I' for Inactive)
REMARK    1  A    between atoms: C_1  and  C_2
REMARK    2  A    between atoms: C_2  and  C_3
REMARK    3  A    between atoms: C_3  and  N_4
REMARK    4  A    between atoms: C_3  and  C_17
REMARK    5  A    between atoms: C_5  and  C_7
REMARK    6  A    between atoms: C_20  and  C_21
REMARK    7  A    between atoms: C_21  and  N_22
REMARK    8  A    between atoms: N_22  and  C_23
REMARK    9  A    between atoms: C_23  and  C_24
REMARK                            x       y       z     vdW  Elec       q    Type
REMARK                         _______ _______ _______ _____ _____    ______ ____
ROOT
ATOM      1  C   UNL     1      47.739   7.320  13.606  0.00  0.00    +0.000 C 
ENDROOT
BRANCH   1   2
ATOM      2  C   UNL     1      46.624   6.349  13.256  0.00  0.00    +0.000 A 
ATOM      3  C   UNL     1      46.847   4.968  13.263  0.00  0.00    +0.000 A 
ATOM      4  C   UNL     1      45.806   4.092  12.957  0.00  0.00    +0.000 A 
ATOM      5  C   UNL     1      44.558   4.615  12.637  0.00  0.00    +0.000 A 
ATOM      6  N   UNL     1      44.324   5.947  12.577  0.00  0.00    +0.000 NA
ATOM      7  C   UNL     1      45.353   6.772  12.872  0.00  0.00    +0.000 A 
BRANCH   5   8
ATOM      8  C   UNL     1      43.393   3.703  12.310  0.00  0.00    +0.000 C 
BRANCH   8   9
ATOM      9  N   UNL     1      43.252   3.398  10.884  0.00  0.00    +0.000 NA
ATOM     10  H   UNL     1      42.262   3.507  10.640  0.00  0.00    +0.000 HD
BRANCH   9  11
ATOM     11  C   UNL     1      44.001   4.342  10.032  0.00  0.00    +0.000 C 
BRANCH  11  12
ATOM     12  C   UNL     1      44.989   3.624   9.129  0.00  0.00    +0.000 A 
ATOM     13  N   UNL     1      45.587   4.352   8.159  0.00  0.00    +0.000 NA
ATOM     14  C   UNL     1      46.359   3.673   7.293  0.00  0.00    +0.000 A 
ATOM     15  C   UNL     1      46.570   2.318   7.366  0.00  0.00    +0.000 A 
ATOM     16  C   UNL     1      45.945   1.673   8.406  0.00  0.00    +0.000 A 
ATOM     17  N   UNL     1      45.157   2.295   9.301  0.00  0.00    +0.000 NA
ENDBRANCH  11  12
ENDBRANCH   9  11
ENDBRANCH   8   9
ENDBRANCH   5   8
ENDBRANCH   1   2
BRANCH   1  18
ATOM     18  N   UNL     1      47.940   7.296  15.043  0.00  0.00    +0.000 N 
ATOM     19  C   UNL     1      48.602   8.281  15.729  0.00  0.00    +0.000 C 
ATOM     20  O   UNL     1      49.040   9.286  15.176  0.00  0.00    +0.000 OA
ATOM     21  H   UNL     1      47.692   6.438  15.523  0.00  0.00    +0.000 HD
BRANCH  19  22
ATOM     22  C   UNL     1      48.720   8.098  17.182  0.00  0.00    +0.000 A 
ATOM     23  C   UNL     1      48.433   9.156  18.035  0.00  0.00    +0.000 A 
ATOM     24  S   UNL     1      48.598   8.768  19.688  0.00  0.00    +0.000 S 
ATOM     25  C   UNL     1      49.101   7.186  19.319  0.00  0.00    +0.000 A 
ATOM     26  N   UNL     1      49.434   6.311  20.311  0.00  0.00    +0.000 NA
ATOM     27  C   UNL     1      49.827   5.155  19.891  0.00  0.00    +0.000 A 
ATOM     28  N   UNL     1      49.915   4.791  18.573  0.00  0.00    +0.000 N 
ATOM     29  C   UNL     1      49.552   5.627  17.543  0.00  0.00    +0.000 A 
ATOM     30  O   UNL     1      49.578   5.246  16.376  0.00  0.00    +0.000 OA
ATOM     31  C   UNL     1      49.123   6.948  17.958  0.00  0.00    +0.000 A 
ATOM     32  H   UNL     1      50.216   3.864  18.311  0.00  0.00    +0.000 HD
ENDBRANCH  19  22
ENDBRANCH   1  18
BRANCH   1  34
ATOM     33  C   UNL     1      49.221   7.786  11.532  0.00  0.00    +0.000 C 
ATOM     34  C   UNL     1      49.036   7.008  12.824  0.00  0.00    +0.000 C 
ENDBRANCH   1  34
TORSDOF 8
ENDMDL
MODEL 5
REMARK VINA RESULT:    -7.183      2.687      4.090
REMARK INTER + INTRA:         -11.312
REMARK INTER:                 -10.493
REMARK INTRA:                  -0.820
REMARK UNBOUND:                -0.770
REMARK  Name = 
REMARK  9 active torsions:
REMARK  status: ('A' for Active; 'I' for Inactive)
REMARK    1  A    between atoms: C_1  and  C_2
REMARK    2  A    between atoms: C_2  and  C_3
REMARK    3  A    between atoms: C_3  and  N_4
REMARK    4  A    between atoms: C_3  and  C_17
REMARK    5  A    between atoms: C_5  and  C_7
REMARK    6  A    between atoms: C_20  and  C_21
REMARK    7  A    between atoms: C_21  and  N_22
REMARK    8  A    between atoms: N_22  and  C_23
REMARK    9  A    between atoms: C_23  and  C_24
REMARK                            x       y       z     vdW  Elec       q    Type
REMARK                         _______ _______ _______ _____ _____    ______ ____
ROOT
ATOM      1  C   UNL     1      47.774   4.846  15.144  0.00  0.00    +0.000 C 
ENDROOT
BRANCH   1   2
ATOM      2  C   UNL     1      46.737   4.616  14.057  0.00  0.00    +0.000 A 
ATOM      3  C   UNL     1      45.949   5.669  13.583  0.00  0.00    +0.000 A 
ATOM      4  C   UNL     1      45.015   5.443  12.572  0.00  0.00    +0.000 A 
ATOM      5  C   UNL     1      44.879   4.158  12.057  0.00  0.00    +0.000 A 
ATOM      6  N   UNL     1      45.596   3.110  12.527  0.00  0.00    +0.000 NA
ATOM      7  C   UNL     1      46.488   3.358  13.511  0.00  0.00    +0.000 A 
BRANCH   5   8
ATOM      8  C   UNL     1      43.889   3.865  10.949  0.00  0.00    +0.000 C 
BRANCH   8   9
ATOM      9  N   UNL     1      44.026   4.732   9.778  0.00  0.00    +0.000 NA
ATOM     10  H   UNL     1      43.682   5.663  10.039  0.00  0.00    +0.000 HD
BRANCH   9  11
ATOM     11  C   UNL     1      45.433   4.905   9.369  0.00  0.00    +0.000 C 
BRANCH  11  12
ATOM     12  C   UNL     1      45.886   3.800   8.429  0.00  0.00    +0.000 A 
ATOM     13  N   UNL     1      45.760   2.525   8.863  0.00  0.00    +0.000 NA
ATOM     14  C   UNL     1      46.282   1.571   8.073  0.00  0.00    +0.000 A 
ATOM     15  C   UNL     1      46.901   1.833   6.875  0.00  0.00    +0.000 A 
ATOM     16  C   UNL     1      46.950   3.156   6.507  0.00  0.00    +0.000 A 
ATOM     17  N   UNL     1      46.451   4.156   7.256  0.00  0.00    +0.000 NA
ENDBRANCH  11  12
ENDBRANCH   9  11
ENDBRANCH   8   9
ENDBRANCH   5   8
ENDBRANCH   1   2
BRANCH   1  18
ATOM     18  N   UNL     1      47.847   6.268  15.421  0.00  0.00    +0.000 N 
ATOM     19  C   UNL     1      49.026   6.942  15.605  0.00  0.00    +0.000 C 
ATOM     20  O   UNL     1      50.119   6.392  15.504  0.00  0.00    +0.000 OA
ATOM     21  H   UNL     1      46.970   6.739  15.619  0.00  0.00    +0.000 HD
BRANCH  19  22
ATOM     22  C   UNL     1      48.920   8.381  15.881  0.00  0.00    +0.000 A 
ATOM     23  C   UNL     1      49.387   9.299  14.949  0.00  0.00    +0.000 A 
ATOM     24  S   UNL     1      49.166  10.924  15.416  0.00  0.00    +0.000 S 
ATOM     25  C   UNL     1      48.479  10.458  16.900  0.00  0.00    +0.000 A 
ATOM     26  N   UNL     1      48.082  11.394  17.810  0.00  0.00    +0.000 NA
ATOM     27  C   UNL     1      47.606  10.903  18.904  0.00  0.00    +0.000 A 
ATOM     28  N   UNL     1      47.486   9.565  19.174  0.00  0.00    +0.000 N 
ATOM     29  C   UNL     1      47.835   8.589  18.271  0.00  0.00    +0.000 A 
ATOM     30  O   UNL     1      47.652   7.400  18.517  0.00  0.00    +0.000 OA
ATOM     31  C   UNL     1      48.398   9.085  17.030  0.00  0.00    +0.000 A 
ATOM     32  H   UNL     1      47.090   9.247  20.046  0.00  0.00    +0.000 HD
ENDBRANCH  19  22
ENDBRANCH   1  18
BRANCH   1  34
ATOM     33  C   UNL     1      48.371   2.812  16.634  0.00  0.00    +0.000 C 
ATOM     34  C   UNL     1      47.469   4.013  16.410  0.00  0.00    +0.000 C 
ENDBRANCH   1  34
TORSDOF 8
ENDMDL
MODEL 6
REMARK VINA RESULT:    -7.089      4.622      9.200
REMARK INTER + INTRA:         -11.174
REMARK INTER:                 -10.065
REMARK INTRA:                  -1.110
REMARK UNBOUND:                -0.770
REMARK  Name = 
REMARK  9 active torsions:
REMARK  status: ('A' for Active; 'I' for Inactive)
REMARK    1  A    between atoms: C_1  and  C_2
REMARK    2  A    between atoms: C_2  and  C_3
REMARK    3  A    between atoms: C_3  and  N_4
REMARK    4  A    between atoms: C_3  and  C_17
REMARK    5  A    between atoms: C_5  and  C_7
REMARK    6  A    between atoms: C_20  and  C_21
REMARK    7  A    between atoms: C_21  and  N_22
REMARK    8  A    between atoms: N_22  and  C_23
REMARK    9  A    between atoms: C_23  and  C_24
REMARK                            x       y       z     vdW  Elec       q    Type
REMARK                         _______ _______ _______ _____ _____    ______ ____
ROOT
ATOM      1  C   UNL     1      48.863   6.060  17.327  0.00  0.00    +0.000 C 
ENDROOT
BRANCH   1   2
ATOM      2  C   UNL     1      49.640   4.755  17.362  0.00  0.00    +0.000 A 
ATOM      3  C   UNL     1      51.038   4.754  17.410  0.00  0.00    +0.000 A 
ATOM      4  C   UNL     1      51.734   3.546  17.460  0.00  0.00    +0.000 A 
ATOM      5  C   UNL     1      51.016   2.355  17.451  0.00  0.00    +0.000 A 
ATOM      6  N   UNL     1      49.665   2.324  17.360  0.00  0.00    +0.000 NA
ATOM      7  C   UNL     1      49.019   3.509  17.306  0.00  0.00    +0.000 A 
BRANCH   5   8
ATOM      8  C   UNL     1      51.725   1.018  17.517  0.00  0.00    +0.000 C 
BRANCH   8   9
ATOM      9  N   UNL     1      52.847   0.981  18.457  0.00  0.00    +0.000 NA
ATOM     10  H   UNL     1      52.518   0.529  19.316  0.00  0.00    +0.000 HD
BRANCH   9  11
ATOM     11  C   UNL     1      53.971   0.164  17.958  0.00  0.00    +0.000 C 
BRANCH  11  12
ATOM     12  C   UNL     1      54.282  -0.995  18.890  0.00  0.00    +0.000 A 
ATOM     13  N   UNL     1      53.252  -1.789  19.260  0.00  0.00    +0.000 NA
ATOM     14  C   UNL     1      53.523  -2.728  20.182  0.00  0.00    +0.000 A 
ATOM     15  C   UNL     1      54.770  -2.917  20.728  0.00  0.00    +0.000 A 
ATOM     16  C   UNL     1      55.757  -2.082  20.263  0.00  0.00    +0.000 A 
ATOM     17  N   UNL     1      55.547  -1.120  19.346  0.00  0.00    +0.000 NA
ENDBRANCH  11  12
ENDBRANCH   9  11
ENDBRANCH   8   9
ENDBRANCH   5   8
ENDBRANCH   1   2
BRANCH   1  18
ATOM     18  N   UNL     1      47.979   6.042  16.177  0.00  0.00    +0.000 N 
ATOM     19  C   UNL     1      48.385   6.360  14.907  0.00  0.00    +0.000 C 
ATOM     20  O   UNL     1      49.550   6.644  14.642  0.00  0.00    +0.000 OA
ATOM     21  H   UNL     1      46.990   5.919  16.365  0.00  0.00    +0.000 HD
BRANCH  19  22
ATOM     22  C   UNL     1      47.358   6.295  13.857  0.00  0.00    +0.000 A 
ATOM     23  C   UNL     1      46.910   7.465  13.258  0.00  0.00    +0.000 A 
ATOM     24  S   UNL     1      45.737   7.208  12.046  0.00  0.00    +0.000 S 
ATOM     25  C   UNL     1      45.756   5.529  12.312  0.00  0.00    +0.000 A 
ATOM     26  N   UNL     1      44.939   4.701  11.599  0.00  0.00    +0.000 NA
ATOM     27  C   UNL     1      45.033   3.455  11.922  0.00  0.00    +0.000 A 
ATOM     28  N   UNL     1      45.868   2.957  12.887  0.00  0.00    +0.000 N 
ATOM     29  C   UNL     1      46.737   3.750  13.601  0.00  0.00    +0.000 A 
ATOM     30  O   UNL     1      47.522   3.264  14.411  0.00  0.00    +0.000 OA
ATOM     31  C   UNL     1      46.658   5.165  13.293  0.00  0.00    +0.000 A 
ATOM     32  H   UNL     1      45.905   1.968  13.080  0.00  0.00    +0.000 HD
ENDBRANCH  19  22
ENDBRANCH   1  18
BRANCH   1  34
ATOM     33  C   UNL     1      47.564   7.717  18.837  0.00  0.00    +0.000 C 
ATOM     34  C   UNL     1      48.105   6.310  18.650  0.00  0.00    +0.000 C 
ENDBRANCH   1  34
TORSDOF 8
ENDMDL
MODEL 7
REMARK VINA RESULT:    -6.954      2.790      7.983
REMARK INTER + INTRA:         -10.977
REMARK INTER:                 -10.330
REMARK INTRA:                  -0.647
REMARK UNBOUND:                -0.770
REMARK  Name = 
REMARK  9 active torsions:
REMARK  status: ('A' for Active; 'I' for Inactive)
REMARK    1  A    between atoms: C_1  and  C_2
REMARK    2  A    between atoms: C_2  and  C_3
REMARK    3  A    between atoms: C_3  and  N_4
REMARK    4  A    between atoms: C_3  and  C_17
REMARK    5  A    between atoms: C_5  and  C_7
REMARK    6  A    between atoms: C_20  and  C_21
REMARK    7  A    between atoms: C_21  and  N_22
REMARK    8  A    between atoms: N_22  and  C_23
REMARK    9  A    between atoms: C_23  and  C_24
REMARK                            x       y       z     vdW  Elec       q    Type
REMARK                         _______ _______ _______ _____ _____    ______ ____
ROOT
ATOM      1  C   UNL     1      46.876   7.966  12.208  0.00  0.00    +0.000 C 
ENDROOT
BRANCH   1   2
ATOM      2  C   UNL     1      48.036   7.776  13.170  0.00  0.00    +0.000 A 
ATOM      3  C   UNL     1      49.037   8.746  13.287  0.00  0.00    +0.000 A 
ATOM      4  C   UNL     1      50.085   8.563  14.190  0.00  0.00    +0.000 A 
ATOM      5  C   UNL     1      50.118   7.402  14.956  0.00  0.00    +0.000 A 
ATOM      6  N   UNL     1      49.188   6.426  14.833  0.00  0.00    +0.000 NA
ATOM      7  C   UNL     1      48.189   6.628  13.945  0.00  0.00    +0.000 A 
BRANCH   5   8
ATOM      8  C   UNL     1      51.227   7.164  15.959  0.00  0.00    +0.000 C 
BRANCH   8   9
ATOM      9  N   UNL     1      50.757   6.832  17.306  0.00  0.00    +0.000 NA
ATOM     10  H   UNL     1      49.743   6.980  17.326  0.00  0.00    +0.000 HD
BRANCH   9  11
ATOM     11  C   UNL     1      50.979   5.412  17.642  0.00  0.00    +0.000 C 
BRANCH  11  12
ATOM     12  C   UNL     1      49.686   4.615  17.604  0.00  0.00    +0.000 A 
ATOM     13  N   UNL     1      49.729   3.388  17.036  0.00  0.00    +0.000 NA
ATOM     14  C   UNL     1      48.553   2.752  16.897  0.00  0.00    +0.000 A 
ATOM     15  C   UNL     1      47.354   3.278  17.313  0.00  0.00    +0.000 A 
ATOM     16  C   UNL     1      47.419   4.515  17.906  0.00  0.00    +0.000 A 
ATOM     17  N   UNL     1      48.564   5.203  18.069  0.00  0.00    +0.000 NA
ENDBRANCH  11  12
ENDBRANCH   9  11
ENDBRANCH   8   9
ENDBRANCH   5   8
ENDBRANCH   1   2
BRANCH   1  18
ATOM     18  N   UNL     1      46.293   6.668  11.924  0.00  0.00    +0.000 N 
ATOM     19  C   UNL     1      45.056   6.504  11.355  0.00  0.00    +0.000 C 
ATOM     20  O   UNL     1      44.365   7.456  11.002  0.00  0.00    +0.000 OA
ATOM     21  H   UNL     1      46.779   5.859  12.295  0.00  0.00    +0.000 HD
BRANCH  19  22
ATOM     22  C   UNL     1      44.615   5.120  11.139  0.00  0.00    +0.000 A 
ATOM     23  C   UNL     1      43.827   4.491  12.096  0.00  0.00    +0.000 A 
ATOM     24  S   UNL     1      43.385   2.897  11.678  0.00  0.00    +0.000 S 
ATOM     25  C   UNL     1      44.267   2.977  10.227  0.00  0.00    +0.000 A 
ATOM     26  N   UNL     1      44.327   1.904   9.386  0.00  0.00    +0.000 NA
ATOM     27  C   UNL     1      45.055   2.091   8.337  0.00  0.00    +0.000 A 
ATOM     28  N   UNL     1      45.725   3.250   8.045  0.00  0.00    +0.000 N 
ATOM     29  C   UNL     1      45.660   4.368   8.843  0.00  0.00    +0.000 A 
ATOM     30  O   UNL     1      46.218   5.414   8.520  0.00  0.00    +0.000 OA
ATOM     31  C   UNL     1      44.873   4.207  10.050  0.00  0.00    +0.000 A 
ATOM     32  H   UNL     1      46.265   3.336   7.198  0.00  0.00    +0.000 HD
ENDBRANCH  19  22
ENDBRANCH   1  18
BRANCH   1  34
ATOM     33  C   UNL     1      45.829  10.332  12.078  0.00  0.00    +0.000 C 
ATOM     34  C   UNL     1      45.838   8.972  12.754  0.00  0.00    +0.000 C 
ENDBRANCH   1  34
TORSDOF 8
ENDMDL
MODEL 8
REMARK VINA RESULT:    -6.639      3.949      6.738
REMARK INTER + INTRA:         -10.513
REMARK INTER:                  -9.333
REMARK INTRA:                  -1.180
REMARK UNBOUND:                -0.770
REMARK  Name = 
REMARK  9 active torsions:
REMARK  status: ('A' for Active; 'I' for Inactive)
REMARK    1  A    between atoms: C_1  and  C_2
REMARK    2  A    between atoms: C_2  and  C_3
REMARK    3  A    between atoms: C_3  and  N_4
REMARK    4  A    between atoms: C_3  and  C_17
REMARK    5  A    between atoms: C_5  and  C_7
REMARK    6  A    between atoms: C_20  and  C_21
REMARK    7  A    between atoms: C_21  and  N_22
REMARK    8  A    between atoms: N_22  and  C_23
REMARK    9  A    between atoms: C_23  and  C_24
REMARK                            x       y       z     vdW  Elec       q    Type
REMARK                         _______ _______ _______ _____ _____    ______ ____
ROOT
ATOM      1  C   UNL     1      45.810   5.104  13.077  0.00  0.00    +0.000 C 
ENDROOT
BRANCH   1   2
ATOM      2  C   UNL     1      45.479   6.522  12.644  0.00  0.00    +0.000 A 
ATOM      3  C   UNL     1      46.149   7.616  13.201  0.00  0.00    +0.000 A 
ATOM      4  C   UNL     1      45.844   8.910  12.778  0.00  0.00    +0.000 A 
ATOM      5  C   UNL     1      44.864   9.088  11.808  0.00  0.00    +0.000 A 
ATOM      6  N   UNL     1      44.168   8.052  11.283  0.00  0.00    +0.000 NA
ATOM      7  C   UNL     1      44.479   6.811  11.718  0.00  0.00    +0.000 A 
BRANCH   5   8
ATOM      8  C   UNL     1      44.508  10.472  11.306  0.00  0.00    +0.000 C 
BRANCH   8   9
ATOM      9  N   UNL     1      43.140  10.592  10.798  0.00  0.00    +0.000 NA
ATOM     10  H   UNL     1      42.701   9.668  10.867  0.00  0.00    +0.000 HD
BRANCH   9  11
ATOM     11  C   UNL     1      42.317  11.508  11.613  0.00  0.00    +0.000 C 
BRANCH  11  12
ATOM     12  C   UNL     1      40.838  11.176  11.513  0.00  0.00    +0.000 A 
ATOM     13  N   UNL     1      40.401  10.623  10.358  0.00  0.00    +0.000 NA
ATOM     14  C   UNL     1      39.073  10.454  10.241  0.00  0.00    +0.000 A 
ATOM     15  C   UNL     1      38.176  10.794  11.225  0.00  0.00    +0.000 A 
ATOM     16  C   UNL     1      38.720  11.318  12.372  0.00  0.00    +0.000 A 
ATOM     17  N   UNL     1      40.040  11.516  12.547  0.00  0.00    +0.000 NA
ENDBRANCH  11  12
ENDBRANCH   9  11
ENDBRANCH   8   9
ENDBRANCH   5   8
ENDBRANCH   1   2
BRANCH   1  18
ATOM     18  N   UNL     1      46.444   5.153  14.381  0.00  0.00    +0.000 N 
ATOM     19  C   UNL     1      47.202   4.131  14.891  0.00  0.00    +0.000 C 
ATOM     20  O   UNL     1      47.436   3.107  14.255  0.00  0.00    +0.000 OA
ATOM     21  H   UNL     1      46.190   5.930  14.982  0.00  0.00    +0.000 HD
BRANCH  19  22
ATOM     22  C   UNL     1      47.769   4.344  16.230  0.00  0.00    +0.000 A 
ATOM     23  C   UNL     1      47.454   3.465  17.259  0.00  0.00    +0.000 A 
ATOM     24  S   UNL     1      48.214   3.843  18.738  0.00  0.00    +0.000 S 
ATOM     25  C   UNL     1      48.954   5.218  18.067  0.00  0.00    +0.000 A 
ATOM     26  N   UNL     1      49.745   6.028  18.829  0.00  0.00    +0.000 NA
ATOM     27  C   UNL     1      50.218   7.052  18.202  0.00  0.00    +0.000 A 
ATOM     28  N   UNL     1      49.979   7.342  16.884  0.00  0.00    +0.000 N 
ATOM     29  C   UNL     1      49.222   6.533  16.069  0.00  0.00    +0.000 A 
ATOM     30  O   UNL     1      49.083   6.784  14.875  0.00  0.00    +0.000 OA
ATOM     31  C   UNL     1      48.646   5.377  16.729  0.00  0.00    +0.000 A 
ATOM     32  H   UNL     1      50.394   8.152  16.449  0.00  0.00    +0.000 HD
ENDBRANCH  19  22
ENDBRANCH   1  18
BRANCH   1  34
ATOM     33  C   UNL     1      44.496   3.187  11.930  0.00  0.00    +0.000 C 
ATOM     34  C   UNL     1      44.559   4.196  13.064  0.00  0.00    +0.000 C 
ENDBRANCH   1  34
TORSDOF 8
ENDMDL
MODEL 9
REMARK VINA RESULT:    -6.538      3.250      7.617
REMARK INTER + INTRA:         -10.365
REMARK INTER:                  -9.074
REMARK INTRA:                  -1.292
REMARK UNBOUND:                -0.770
REMARK  Name = 
REMARK  9 active torsions:
REMARK  status: ('A' for Active; 'I' for Inactive)
REMARK    1  A    between atoms: C_1  and  C_2
REMARK    2  A    between atoms: C_2  and  C_3
REMARK    3  A    between atoms: C_3  and  N_4
REMARK    4  A    between atoms: C_3  and  C_17
REMARK    5  A    between atoms: C_5  and  C_7
REMARK    6  A    between atoms: C_20  and  C_21
REMARK    7  A    between atoms: C_21  and  N_22
REMARK    8  A    between atoms: N_22  and  C_23
REMARK    9  A    between atoms: C_23  and  C_24
REMARK                            x       y       z     vdW  Elec       q    Type
REMARK                         _______ _______ _______ _____ _____    ______ ____
ROOT
ATOM      1  C   UNL     1      49.169   8.449  14.072  0.00  0.00    +0.000 C 
ENDROOT
BRANCH   1   2
ATOM      2  C   UNL     1      49.159   8.279  15.582  0.00  0.00    +0.000 A 
ATOM      3  C   UNL     1      48.251   8.985  16.378  0.00  0.00    +0.000 A 
ATOM      4  C   UNL     1      48.245   8.801  17.761  0.00  0.00    +0.000 A 
ATOM      5  C   UNL     1      49.159   7.918  18.326  0.00  0.00    +0.000 A 
ATOM      6  N   UNL     1      50.079   7.255  17.586  0.00  0.00    +0.000 NA
ATOM      7  C   UNL     1      50.066   7.458  16.251  0.00  0.00    +0.000 A 
BRANCH   5   8
ATOM      8  C   UNL     1      49.183   7.675  19.821  0.00  0.00    +0.000 C 
BRANCH   8   9
ATOM      9  N   UNL     1      49.470   6.290  20.199  0.00  0.00    +0.000 NA
ATOM     10  H   UNL     1      49.754   6.289  21.184  0.00  0.00    +0.000 HD
BRANCH   9  11
ATOM     11  C   UNL     1      48.278   5.424  20.106  0.00  0.00    +0.000 C 
BRANCH  11  12
ATOM     12  C   UNL     1      48.295   4.576  18.845  0.00  0.00    +0.000 A 
ATOM     13  N   UNL     1      47.223   4.660  18.025  0.00  0.00    +0.000 NA
ATOM     14  C   UNL     1      47.198   3.811  16.984  0.00  0.00    +0.000 A 
ATOM     15  C   UNL     1      48.197   2.905  16.721  0.00  0.00    +0.000 A 
ATOM     16  C   UNL     1      49.259   2.919  17.593  0.00  0.00    +0.000 A 
ATOM     17  N   UNL     1      49.338   3.741  18.656  0.00  0.00    +0.000 NA
ENDBRANCH  11  12
ENDBRANCH   9  11
ENDBRANCH   8   9
ENDBRANCH   5   8
ENDBRANCH   1   2
BRANCH   1  18
ATOM     18  N   UNL     1      47.918   7.941  13.540  0.00  0.00    +0.000 N 
ATOM     19  C   UNL     1      47.791   6.707  12.958  0.00  0.00    +0.000 C 
ATOM     20  O   UNL     1      48.728   5.917  12.883  0.00  0.00    +0.000 OA
ATOM     21  H   UNL     1      47.147   8.598  13.484  0.00  0.00    +0.000 HD
BRANCH  19  22
ATOM     22  C   UNL     1      46.452   6.351  12.468  0.00  0.00    +0.000 A 
ATOM     23  C   UNL     1      45.637   7.331  11.915  0.00  0.00    +0.000 A 
ATOM     24  S   UNL     1      44.129   6.744  11.377  0.00  0.00    +0.000 S 
ATOM     25  C   UNL     1      44.495   5.170  11.905  0.00  0.00    +0.000 A 
ATOM     26  N   UNL     1      43.591   4.158  11.763  0.00  0.00    +0.000 NA
ATOM     27  C   UNL     1      43.985   3.023  12.233  0.00  0.00    +0.000 A 
ATOM     28  N   UNL     1      45.199   2.801  12.828  0.00  0.00    +0.000 N 
ATOM     29  C   UNL     1      46.155   3.781  12.956  0.00  0.00    +0.000 A 
ATOM     30  O   UNL     1      47.260   3.533  13.433  0.00  0.00    +0.000 OA
ATOM     31  C   UNL     1      45.756   5.085  12.463  0.00  0.00    +0.000 A 
ATOM     32  H   UNL     1      45.452   1.883  13.161  0.00  0.00    +0.000 HD
ENDBRANCH  19  22
ENDBRANCH   1  18
BRANCH   1  34
ATOM     33  C   UNL     1      48.635  10.413  12.468  0.00  0.00    +0.000 C 
ATOM     34  C   UNL     1      49.430   9.917  13.664  0.00  0.00    +0.000 C 
ENDBRANCH   1  34
TORSDOF 8
ENDMDL
