MODEL 1
REMARK VINA RESULT:    -6.643      0.000      0.000
REMARK INTER + INTRA:          -8.755
REMARK INTER:                  -8.390
REMARK INTRA:                  -0.365
REMARK UNBOUND:                -0.365
REMARK  Name = 
REMARK  5 active torsions:
REMARK  status: ('A' for Active; 'I' for Inactive)
REMARK    1  A    between atoms: N_1  and  C_2
REMARK    2  A    between atoms: C_2  and  C_3
REMARK    3  A    between atoms: C_6  and  S_7
REMARK    4  A    between atoms: S_7  and  C_8
REMARK    5  A    between atoms: C_8  and  C_9
REMARK                            x       y       z     vdW  Elec       q    Type
REMARK                         _______ _______ _______ _____ _____    ______ ____
ROOT
ATOM      1  C   UNL     1      46.440   2.943   7.241  0.00  0.00    +0.000 A 
ATOM      2  C   UNL     1      46.074   1.839   8.005  0.00  0.00    +0.000 A 
ATOM      3  N   UNL     1      45.319   1.933   9.132  0.00  0.00    +0.000 NA
ATOM      4  C   UNL     1      44.907   3.176   9.469  0.00  0.00    +0.000 A 
ATOM      5  C   UNL     1      45.250   4.274   8.687  0.00  0.00    +0.000 A 
ATOM      6  N   UNL     1      46.025   4.192   7.570  0.00  0.00    +0.000 NA
ENDROOT
BRANCH   1   7
ATOM      7  C   UNL     1      47.291   2.780   6.003  0.00  0.00    +0.000 C 
BRANCH   7   8
ATOM      8  N   UNL     1      48.370   1.809   6.194  0.00  0.00    +0.000 NA
ATOM      9  H   UNL     1      47.961   0.910   6.447  0.00  0.00    +0.000 HD
ATOM     10  H   UNL     1      48.909   2.103   7.012  0.00  0.00    +0.000 HD
ENDBRANCH   7   8
ENDBRANCH   1   7
BRANCH   4  11
ATOM     11  S   UNL     1      43.902   3.392  10.933  0.00  0.00    +0.000 S 
BRANCH  11  12
ATOM     12  C   UNL     1      45.209   3.416  12.209  0.00  0.00    +0.000 C 
BRANCH  12  13
ATOM     13  C   UNL     1      45.199   4.655  13.132  0.00  0.00    +0.000 C 
ATOM     14  C   UNL     1      45.128   5.930  12.266  0.00  0.00    +0.000 C 
ATOM     15  C   UNL     1      46.479   6.252  11.629  0.00  0.00    +0.000 C 
ATOM     16  C   UNL     1      47.554   6.370  12.702  0.00  0.00    +0.000 C 
ATOM     17  N   UNL     1      47.658   5.132  13.474  0.00  0.00    +0.000 NA
ATOM     18  C   UNL     1      46.387   4.768  14.109  0.00  0.00    +0.000 C 
ATOM     19  H   UNL     1      48.364   5.256  14.200  0.00  0.00    +0.000 HD
ENDBRANCH  12  13
ENDBRANCH  11  12
ENDBRANCH   4  11
TORSDOF 5
ENDMDL
MODEL 2
REMARK VINA RESULT:    -6.610      1.162      1.954
REMARK INTER + INTRA:          -8.713
REMARK INTER:                  -8.460
REMARK INTRA:                  -0.253
REMARK UNBOUND:                -0.365
REMARK  Name = 
REMARK  5 active torsions:
REMARK  status: ('A' for Active; 'I' for Inactive)
REMARK    1  A    between atoms: N_1  and  C_2
REMARK    2  A    between atoms: C_2  and  C_3
REMARK    3  A    between atoms: C_6  and  S_7
REMARK    4  A    between atoms: S_7  and  C_8
REMARK    5  A    between atoms: C_8  and  C_9
REMARK                            x       y       z     vdW  Elec       q    Type
REMARK                         _______ _______ _______ _____ _____    ______ ____
ROOT
ATOM      1  C   UNL     1      46.715   2.151   7.440  0.00  0.00    +0.000 A 
ATOM      2  C   UNL     1      46.602   3.528   7.273  0.00  0.00    +0.000 A 
ATOM      3  N   UNL     1      45.795   4.306   8.043  0.00  0.00    +0.000 NA
ATOM      4  C   UNL     1      45.112   3.668   9.020  0.00  0.00    +0.000 A 
ATOM      5  C   UNL     1      45.250   2.297   9.204  0.00  0.00    +0.000 A 
ATOM      6  N   UNL     1      46.038   1.507   8.423  0.00  0.00    +0.000 NA
ENDROOT
BRANCH   1   7
ATOM      7  C   UNL     1      47.620   1.334   6.548  0.00  0.00    +0.000 C 
BRANCH   7   8
ATOM      8  N   UNL     1      48.448   2.173   5.679  0.00  0.00    +0.000 NA
ATOM      9  H   UNL     1      48.636   3.054   6.156  0.00  0.00    +0.000 HD
ATOM     10  H   UNL     1      47.886   2.420   4.861  0.00  0.00    +0.000 HD
ENDBRANCH   7   8
ENDBRANCH   1   7
BRANCH   4  11
ATOM     11  S   UNL     1      44.032   4.616  10.086  0.00  0.00    +0.000 S 
BRANCH  11  12
ATOM     12  C   UNL     1      45.244   5.786  10.795  0.00  0.00    +0.000 C 
BRANCH  12  13
ATOM     13  C   UNL     1      45.007   6.155  12.276  0.00  0.00    +0.000 C 
ATOM     14  C   UNL     1      46.299   6.767  12.857  0.00  0.00    +0.000 C 
ATOM     15  C   UNL     1      47.344   5.693  13.154  0.00  0.00    +0.000 C 
ATOM     16  C   UNL     1      46.764   4.635  14.086  0.00  0.00    +0.000 C 
ATOM     17  N   UNL     1      45.578   4.016  13.496  0.00  0.00    +0.000 NA
ATOM     18  C   UNL     1      44.537   5.001  13.185  0.00  0.00    +0.000 C 
ATOM     19  H   UNL     1      45.200   3.336  14.157  0.00  0.00    +0.000 HD
ENDBRANCH  12  13
ENDBRANCH  11  12
ENDBRANCH   4  11
TORSDOF 5
ENDMDL
MODEL 3
REMARK VINA RESULT:    -5.718      1.790      5.713
REMARK INTER + INTRA:          -7.587
REMARK INTER:                  -7.115
REMARK INTRA:                  -0.473
REMARK UNBOUND:                -0.365
REMARK  Name = 
REMARK  5 active torsions:
REMARK  status: ('A' for Active; 'I' for Inactive)
REMARK    1  A    between atoms: N_1  and  C_2
REMARK    2  A    between atoms: C_2  and  C_3
REMARK    3  A    between atoms: C_6  and  S_7
REMARK    4  A    between atoms: S_7  and  C_8
REMARK    5  A    between atoms: C_8  and  C_9
REMARK                            x       y       z     vdW  Elec       q    Type
REMARK                         _______ _______ _______ _____ _____    ______ ____
ROOT
ATOM      1  C   UNL     1      47.970   6.511  13.224  0.00  0.00    +0.000 A 
ATOM      2  C   UNL     1      47.176   6.688  12.096  0.00  0.00    +0.000 A 
ATOM      3  N   UNL     1      46.065   5.944  11.844  0.00  0.00    +0.000 NA
ATOM      4  C   UNL     1      45.746   5.020  12.779  0.00  0.00    +0.000 A 
ATOM      5  C   UNL     1      46.526   4.865  13.920  0.00  0.00    +0.000 A 
ATOM      6  N   UNL     1      47.652   5.591  14.168  0.00  0.00    +0.000 NA
ENDROOT
BRANCH   1   7
ATOM      7  C   UNL     1      49.200   7.361  13.446  0.00  0.00    +0.000 C 
BRANCH   7   8
ATOM      8  N   UNL     1      50.201   7.174  12.394  0.00  0.00    +0.000 NA
ATOM      9  H   UNL     1      49.955   6.348  11.850  0.00  0.00    +0.000 HD
ATOM     10  H   UNL     1      51.089   6.948  12.849  0.00  0.00    +0.000 HD
ENDBRANCH   7   8
ENDBRANCH   1   7
BRANCH   4  11
ATOM     11  S   UNL     1      44.296   4.001  12.534  0.00  0.00    +0.000 S 
BRANCH  11  12
ATOM     12  C   UNL     1      44.905   2.905  11.205  0.00  0.00    +0.000 C 
BRANCH  12  13
ATOM     13  C   UNL     1      44.169   3.044   9.855  0.00  0.00    +0.000 C 
ATOM     14  C   UNL     1      44.734   2.006   8.862  0.00  0.00    +0.000 C 
ATOM     15  C   UNL     1      46.094   2.437   8.315  0.00  0.00    +0.000 C 
ATOM     16  C   UNL     1      45.994   3.817   7.677  0.00  0.00    +0.000 C 
ATOM     17  N   UNL     1      45.519   4.805   8.646  0.00  0.00    +0.000 NA
ATOM     18  C   UNL     1      44.214   4.444   9.210  0.00  0.00    +0.000 C 
ATOM     19  H   UNL     1      45.436   5.709   8.178  0.00  0.00    +0.000 HD
ENDBRANCH  12  13
ENDBRANCH  11  12
ENDBRANCH   4  11
TORSDOF 5
ENDMDL
MODEL 4
REMARK VINA RESULT:    -5.618      3.314      6.807
REMARK INTER + INTRA:          -7.461
REMARK INTER:                  -7.080
REMARK INTRA:                  -0.381
REMARK UNBOUND:                -0.365
REMARK  Name = 
REMARK  5 active torsions:
REMARK  status: ('A' for Active; 'I' for Inactive)
REMARK    1  A    between atoms: N_1  and  C_2
REMARK    2  A    between atoms: C_2  and  C_3
REMARK    3  A    between atoms: C_6  and  S_7
REMARK    4  A    between atoms: S_7  and  C_8
REMARK    5  A    between atoms: C_8  and  C_9
REMARK                            x       y       z     vdW  Elec       q    Type
REMARK                         _______ _______ _______ _____ _____    ______ ____
ROOT
ATOM      1  C   UNL     1      47.650   4.364  16.230  0.00  0.00    +0.000 A 
ATOM      2  C   UNL     1      48.395   5.503  15.942  0.00  0.00    +0.000 A 
ATOM      3  N   UNL     1      48.274   6.195  14.778  0.00  0.00    +0.000 NA
ATOM      4  C   UNL     1      47.355   5.728  13.902  0.00  0.00    +0.000 A 
ATOM      5  C   UNL     1      46.591   4.605  14.205  0.00  0.00    +0.000 A 
ATOM      6  N   UNL     1      46.722   3.894  15.360  0.00  0.00    +0.000 NA
ENDROOT
BRANCH   1   7
ATOM      7  C   UNL     1      47.834   3.629  17.538  0.00  0.00    +0.000 C 
BRANCH   7   8
ATOM      8  N   UNL     1      46.721   2.724  17.827  0.00  0.00    +0.000 NA
ATOM      9  H   UNL     1      46.810   1.895  17.240  0.00  0.00    +0.000 HD
ATOM     10  H   UNL     1      45.860   3.184  17.522  0.00  0.00    +0.000 HD
ENDBRANCH   7   8
ENDBRANCH   1   7
BRANCH   4  11
ATOM     11  S   UNL     1      47.123   6.581  12.347  0.00  0.00    +0.000 S 
BRANCH  11  12
ATOM     12  C   UNL     1      45.303   6.740  12.347  0.00  0.00    +0.000 C 
BRANCH  12  13
ATOM     13  C   UNL     1      44.600   6.201  11.082  0.00  0.00    +0.000 C 
ATOM     14  C   UNL     1      43.086   6.080  11.358  0.00  0.00    +0.000 C 
ATOM     15  C   UNL     1      42.770   4.855  12.216  0.00  0.00    +0.000 C 
ATOM     16  C   UNL     1      43.317   3.594  11.559  0.00  0.00    +0.000 C 
ATOM     17  N   UNL     1      44.763   3.694  11.361  0.00  0.00    +0.000 NA
ATOM     18  C   UNL     1      45.130   4.856  10.545  0.00  0.00    +0.000 C 
ATOM     19  H   UNL     1      45.090   2.848  10.893  0.00  0.00    +0.000 HD
ENDBRANCH  12  13
ENDBRANCH  11  12
ENDBRANCH   4  11
TORSDOF 5
ENDMDL
MODEL 5
REMARK VINA RESULT:    -5.610      1.536      6.264
REMARK INTER + INTRA:          -7.451
REMARK INTER:                  -7.197
REMARK INTRA:                  -0.254
REMARK UNBOUND:                -0.365
REMARK  Name = 
REMARK  5 active torsions:
REMARK  status: ('A' for Active; 'I' for Inactive)
REMARK    1  A    between atoms: N_1  and  C_2
REMARK    2  A    between atoms: C_2  and  C_3
REMARK    3  A    between atoms: C_6  and  S_7
REMARK    4  A    between atoms: S_7  and  C_8
REMARK    5  A    between atoms: C_8  and  C_9
REMARK                            x       y       z     vdW  Elec       q    Type
REMARK                         _______ _______ _______ _____ _____    ______ ____
ROOT
ATOM      1  C   UNL     1      46.708   4.760  14.087  0.00  0.00    +0.000 A 
ATOM      2  C   UNL     1      46.322   5.929  13.440  0.00  0.00    +0.000 A 
ATOM      3  N   UNL     1      45.577   5.938  12.302  0.00  0.00    +0.000 NA
ATOM      4  C   UNL     1      45.198   4.728  11.832  0.00  0.00    +0.000 A 
ATOM      5  C   UNL     1      45.560   3.561  12.497  0.00  0.00    +0.000 A 
ATOM      6  N   UNL     1      46.324   3.543  13.625  0.00  0.00    +0.000 NA
ENDROOT
BRANCH   1   7
ATOM      7  C   UNL     1      47.545   4.810  15.344  0.00  0.00    +0.000 C 
BRANCH   7   8
ATOM      8  N   UNL     1      48.596   5.827  15.271  0.00  0.00    +0.000 NA
ATOM      9  H   UNL     1      48.608   6.350  16.146  0.00  0.00    +0.000 HD
ATOM     10  H   UNL     1      48.323   6.503  14.553  0.00  0.00    +0.000 HD
ENDBRANCH   7   8
ENDBRANCH   1   7
BRANCH   4  11
ATOM     11  S   UNL     1      44.209   4.645  10.343  0.00  0.00    +0.000 S 
BRANCH  11  12
ATOM     12  C   UNL     1      45.536   4.636   9.087  0.00  0.00    +0.000 C 
BRANCH  12  13
ATOM     13  C   UNL     1      45.208   3.856   7.795  0.00  0.00    +0.000 C 
ATOM     14  C   UNL     1      44.691   2.451   8.171  0.00  0.00    +0.000 C 
ATOM     15  C   UNL     1      45.832   1.529   8.596  0.00  0.00    +0.000 C 
ATOM     16  C   UNL     1      46.889   1.456   7.500  0.00  0.00    +0.000 C 
ATOM     17  N   UNL     1      47.419   2.786   7.198  0.00  0.00    +0.000 NA
ATOM     18  C   UNL     1      46.366   3.720   6.786  0.00  0.00    +0.000 C 
ATOM     19  H   UNL     1      48.100   2.703   6.442  0.00  0.00    +0.000 HD
ENDBRANCH  12  13
ENDBRANCH  11  12
ENDBRANCH   4  11
TORSDOF 5
ENDMDL
MODEL 6
REMARK VINA RESULT:    -5.564      1.376      2.214
REMARK INTER + INTRA:          -7.392
REMARK INTER:                  -7.231
REMARK INTRA:                  -0.161
REMARK UNBOUND:                -0.365
REMARK  Name = 
REMARK  5 active torsions:
REMARK  status: ('A' for Active; 'I' for Inactive)
REMARK    1  A    between atoms: N_1  and  C_2
REMARK    2  A    between atoms: C_2  and  C_3
REMARK    3  A    between atoms: C_6  and  S_7
REMARK    4  A    between atoms: S_7  and  C_8
REMARK    5  A    between atoms: C_8  and  C_9
REMARK                            x       y       z     vdW  Elec       q    Type
REMARK                         _______ _______ _______ _____ _____    ______ ____
ROOT
ATOM      1  C   UNL     1      45.892   2.598   8.282  0.00  0.00    +0.000 A 
ATOM      2  C   UNL     1      45.877   3.986   8.185  0.00  0.00    +0.000 A 
ATOM      3  N   UNL     1      45.090   4.777   8.963  0.00  0.00    +0.000 NA
ATOM      4  C   UNL     1      44.323   4.137   9.875  0.00  0.00    +0.000 A 
ATOM      5  C   UNL     1      44.362   2.751   9.989  0.00  0.00    +0.000 A 
ATOM      6  N   UNL     1      45.131   1.951   9.199  0.00  0.00    +0.000 NA
ENDROOT
BRANCH   1   7
ATOM      7  C   UNL     1      46.781   1.769   7.383  0.00  0.00    +0.000 C 
BRANCH   7   8
ATOM      8  N   UNL     1      46.818   0.362   7.785  0.00  0.00    +0.000 NA
ATOM      9  H   UNL     1      47.777   0.116   8.030  0.00  0.00    +0.000 HD
ATOM     10  H   UNL     1      46.593  -0.201   6.962  0.00  0.00    +0.000 HD
ENDBRANCH   7   8
ENDBRANCH   1   7
BRANCH   4  11
ATOM     11  S   UNL     1      43.262   5.099  10.946  0.00  0.00    +0.000 S 
BRANCH  11  12
ATOM     12  C   UNL     1      44.357   5.269  12.399  0.00  0.00    +0.000 C 
BRANCH  12  13
ATOM     13  C   UNL     1      45.860   5.062  12.112  0.00  0.00    +0.000 C 
ATOM     14  C   UNL     1      46.408   3.968  13.052  0.00  0.00    +0.000 C 
ATOM     15  C   UNL     1      46.617   4.500  14.469  0.00  0.00    +0.000 C 
ATOM     16  C   UNL     1      47.529   5.720  14.447  0.00  0.00    +0.000 C 
ATOM     17  N   UNL     1      46.967   6.775  13.605  0.00  0.00    +0.000 NA
ATOM     18  C   UNL     1      46.741   6.323  12.229  0.00  0.00    +0.000 C 
ATOM     19  H   UNL     1      47.616   7.563  13.589  0.00  0.00    +0.000 HD
ENDBRANCH  12  13
ENDBRANCH  11  12
ENDBRANCH   4  11
TORSDOF 5
ENDMDL
MODEL 7
REMARK VINA RESULT:    -5.549      2.344      6.022
REMARK INTER + INTRA:          -7.373
REMARK INTER:                  -7.066
REMARK INTRA:                  -0.307
REMARK UNBOUND:                -0.365
REMARK  Name = 
REMARK  5 active torsions:
REMARK  status: ('A' for Active; 'I' for Inactive)
REMARK    1  A    between atoms: N_1  and  C_2
REMARK    2  A    between atoms: C_2  and  C_3
REMARK    3  A    between atoms: C_6  and  S_7
REMARK    4  A    between atoms: S_7  and  C_8
REMARK    5  A    between atoms: C_8  and  C_9
REMARK                            x       y       z     vdW  Elec       q    Type
REMARK                         _______ _______ _______ _____ _____    ______ ____
ROOT
ATOM      1  C   UNL     1      45.145   7.772  12.014  0.00  0.00    +0.000 A 
ATOM      2  C   UNL     1      45.973   6.802  12.570  0.00  0.00    +0.000 A 
ATOM      3  N   UNL     1      45.657   5.479  12.590  0.00  0.00    +0.000 NA
ATOM      4  C   UNL     1      44.484   5.139  12.007  0.00  0.00    +0.000 A 
ATOM      5  C   UNL     1      43.673   6.108  11.426  0.00  0.00    +0.000 A 
ATOM      6  N   UNL     1      43.971   7.437  11.422  0.00  0.00    +0.000 NA
ENDROOT
BRANCH   1   7
ATOM      7  C   UNL     1      45.543   9.230  12.030  0.00  0.00    +0.000 C 
BRANCH   7   8
ATOM      8  N   UNL     1      44.472  10.092  12.534  0.00  0.00    +0.000 NA
ATOM      9  H   UNL     1      43.862   9.540  13.135  0.00  0.00    +0.000 HD
ATOM     10  H   UNL     1      43.895  10.367  11.736  0.00  0.00    +0.000 HD
ENDBRANCH   7   8
ENDBRANCH   1   7
BRANCH   4  11
ATOM     11  S   UNL     1      43.993   3.419  11.980  0.00  0.00    +0.000 S 
BRANCH  11  12
ATOM     12  C   UNL     1      45.101   2.799  10.667  0.00  0.00    +0.000 C 
BRANCH  12  13
ATOM     13  C   UNL     1      44.465   2.710   9.262  0.00  0.00    +0.000 C 
ATOM     14  C   UNL     1      45.087   1.521   8.500  0.00  0.00    +0.000 C 
ATOM     15  C   UNL     1      46.487   1.854   7.989  0.00  0.00    +0.000 C 
ATOM     16  C   UNL     1      46.450   3.108   7.125  0.00  0.00    +0.000 C 
ATOM     17  N   UNL     1      45.920   4.244   7.878  0.00  0.00    +0.000 NA
ATOM     18  C   UNL     1      44.574   3.983   8.398  0.00  0.00    +0.000 C 
ATOM     19  H   UNL     1      45.882   5.058   7.262  0.00  0.00    +0.000 HD
ENDBRANCH  12  13
ENDBRANCH  11  12
ENDBRANCH   4  11
TORSDOF 5
ENDMDL
MODEL 8
REMARK VINA RESULT:    -5.371      2.027      6.627
REMARK INTER + INTRA:          -7.149
REMARK INTER:                  -6.947
REMARK INTRA:                  -0.202
REMARK UNBOUND:                -0.365
REMARK  Name = 
REMARK  5 active torsions:
REMARK  status: ('A' for Active; 'I' for Inactive)
REMARK    1  A    between atoms: N_1  and  C_2
REMARK    2  A    between atoms: C_2  and  C_3
REMARK    3  A    between atoms: C_6  and  S_7
REMARK    4  A    between atoms: S_7  and  C_8
REMARK    5  A    between atoms: C_8  and  C_9
REMARK                            x       y       z     vdW  Elec       q    Type
REMARK                         _______ _______ _______ _____ _____    ______ ____
ROOT
ATOM      1  C   UNL     1      47.924   4.950  15.673  0.00  0.00    +0.000 A 
ATOM      2  C   UNL     1      46.914   4.055  15.336  0.00  0.00    +0.000 A 
ATOM      3  N   UNL     1      46.181   4.156  14.194  0.00  0.00    +0.000 NA
ATOM      4  C   UNL     1      46.507   5.177  13.369  0.00  0.00    +0.000 A 
ATOM      5  C   UNL     1      47.538   6.053  13.694  0.00  0.00    +0.000 A 
ATOM      6  N   UNL     1      48.261   5.971  14.846  0.00  0.00    +0.000 NA
ENDROOT
BRANCH   1   7
ATOM      7  C   UNL     1      48.699   4.794  16.961  0.00  0.00    +0.000 C 
BRANCH   7   8
ATOM      8  N   UNL     1      50.107   5.165  16.811  0.00  0.00    +0.000 NA
ATOM      9  H   UNL     1      50.673   4.548  17.391  0.00  0.00    +0.000 HD
ATOM     10  H   UNL     1      50.225   6.099  17.210  0.00  0.00    +0.000 HD
ENDBRANCH   7   8
ENDBRANCH   1   7
BRANCH   4  11
ATOM     11  S   UNL     1      45.601   5.381  11.840  0.00  0.00    +0.000 S 
BRANCH  11  12
ATOM     12  C   UNL     1      45.236   3.632  11.458  0.00  0.00    +0.000 C 
BRANCH  12  13
ATOM     13  C   UNL     1      44.219   3.411  10.316  0.00  0.00    +0.000 C 
ATOM     14  C   UNL     1      44.550   2.088   9.594  0.00  0.00    +0.000 C 
ATOM     15  C   UNL     1      45.756   2.242   8.668  0.00  0.00    +0.000 C 
ATOM     16  C   UNL     1      45.517   3.373   7.674  0.00  0.00    +0.000 C 
ATOM     17  N   UNL     1      45.269   4.635   8.370  0.00  0.00    +0.000 NA
ATOM     18  C   UNL     1      44.121   4.548   9.279  0.00  0.00    +0.000 C 
ATOM     19  H   UNL     1      45.085   5.361   7.677  0.00  0.00    +0.000 HD
ENDBRANCH  12  13
ENDBRANCH  11  12
ENDBRANCH   4  11
TORSDOF 5
ENDMDL
MODEL 9
REMARK VINA RESULT:    -5.090      3.557      7.711
REMARK INTER + INTRA:          -6.794
REMARK INTER:                  -6.550
REMARK INTRA:                  -0.244
REMARK UNBOUND:                -0.365
REMARK  Name = 
REMARK  5 active torsions:
REMARK  status: ('A' for Active; 'I' for Inactive)
REMARK    1  A    between atoms: N_1  and  C_2
REMARK    2  A    between atoms: C_2  and  C_3
REMARK    3  A    between atoms: C_6  and  S_7
REMARK    4  A    between atoms: S_7  and  C_8
REMARK    5  A    between atoms: C_8  and  C_9
REMARK                            x       y       z     vdW  Elec       q    Type
REMARK                         _______ _______ _______ _____ _____    ______ ____
ROOT
ATOM      1  C   UNL     1      48.556   4.671  17.697  0.00  0.00    +0.000 A 
ATOM      2  C   UNL     1      49.185   5.661  16.951  0.00  0.00    +0.000 A 
ATOM      3  N   UNL     1      48.825   5.974  15.677  0.00  0.00    +0.000 NA
ATOM      4  C   UNL     1      47.784   5.277  15.167  0.00  0.00    +0.000 A 
ATOM      5  C   UNL     1      47.137   4.308  15.927  0.00  0.00    +0.000 A 
ATOM      6  N   UNL     1      47.506   3.974  17.195  0.00  0.00    +0.000 NA
ENDROOT
BRANCH   1   7
ATOM      7  C   UNL     1      49.006   4.359  19.106  0.00  0.00    +0.000 C 
BRANCH   7   8
ATOM      8  N   UNL     1      48.352   3.167  19.647  0.00  0.00    +0.000 NA
ATOM      9  H   UNL     1      48.281   2.468  18.909  0.00  0.00    +0.000 HD
ATOM     10  H   UNL     1      47.388   3.420  19.877  0.00  0.00    +0.000 HD
ENDBRANCH   7   8
ENDBRANCH   1   7
BRANCH   4  11
ATOM     11  S   UNL     1      47.236   5.628  13.501  0.00  0.00    +0.000 S 
BRANCH  11  12
ATOM     12  C   UNL     1      45.569   4.882  13.557  0.00  0.00    +0.000 C 
BRANCH  12  13
ATOM     13  C   UNL     1      44.447   5.741  12.932  0.00  0.00    +0.000 C 
ATOM     14  C   UNL     1      43.172   4.882  12.794  0.00  0.00    +0.000 C 
ATOM     15  C   UNL     1      43.271   3.917  11.614  0.00  0.00    +0.000 C 
ATOM     16  C   UNL     1      43.567   4.681  10.329  0.00  0.00    +0.000 C 
ATOM     17  N   UNL     1      44.813   5.439  10.449  0.00  0.00    +0.000 NA
ATOM     18  C   UNL     1      44.779   6.384  11.570  0.00  0.00    +0.000 C 
ATOM     19  H   UNL     1      44.964   5.960   9.584  0.00  0.00    +0.000 HD
ENDBRANCH  12  13
ENDBRANCH  11  12
ENDBRANCH   4  11
TORSDOF 5
ENDMDL
