MODEL 1
REMARK VINA RESULT:    -8.411      0.000      0.000
REMARK INTER + INTRA:         -12.644
REMARK INTER:                 -11.853
REMARK INTRA:                  -0.792
REMARK UNBOUND:                -0.792
REMARK  Name = 
REMARK  8 active torsions:
REMARK  status: ('A' for Active; 'I' for Inactive)
REMARK    1  A    between atoms: C_1  and  C_2
REMARK    2  A    between atoms: C_2  and  C_3
REMARK    3  A    between atoms: C_7  and  C_8
REMARK    4  A    between atoms: C_8  and  C_9
REMARK    5  A    between atoms: C_9  and  N_10
REMARK    6  A    between atoms: C_14  and  C_15
REMARK    7  A    between atoms: N_24  and  C_25
REMARK    8  A    between atoms: C_25  and  C_26
REMARK                            x       y       z     vdW  Elec       q    Type
REMARK                         _______ _______ _______ _____ _____    ______ ____
ROOT
ATOM      1  C   UNL     1      46.411   6.969  13.155  0.00  0.00    +0.000 A 
ATOM      2  C   UNL     1      46.287   8.171  12.441  0.00  0.00    +0.000 A 
ATOM      3  C   UNL     1      45.144   8.447  11.684  0.00  0.00    +0.000 A 
ATOM      4  C   UNL     1      44.103   7.522  11.611  0.00  0.00    +0.000 A 
ATOM      5  C   UNL     1      44.185   6.314  12.310  0.00  0.00    +0.000 A 
ATOM      6  C   UNL     1      45.331   6.078  13.092  0.00  0.00    +0.000 A 
ENDROOT
BRANCH   1   8
ATOM      7  C   UNL     1      48.599   5.816  12.902  0.00  0.00    +0.000 C 
ATOM      8  C   UNL     1      47.718   6.608  13.900  0.00  0.00    +0.000 C 
ATOM      9  C   UNL     1      48.428   7.899  14.376  0.00  0.00    +0.000 C 
ATOM     10  C   UNL     1      49.664   7.607  15.226  0.00  0.00    +0.000 C 
ATOM     11  C   UNL     1      49.355   6.665  16.391  0.00  0.00    +0.000 C 
ATOM     12  N   UNL     1      48.742   5.420  15.912  0.00  0.00    +0.000 NA
ATOM     13  C   UNL     1      47.499   5.713  15.169  0.00  0.00    +0.000 C 
BRANCH  12  14
ATOM     14  C   UNL     1      48.458   4.476  17.032  0.00  0.00    +0.000 C 
BRANCH  14  15
ATOM     15  C   UNL     1      48.195   2.983  16.720  0.00  0.00    +0.000 C 
ATOM     16  F   UNL     1      47.933   2.739  15.418  0.00  0.00    +0.000 F 
ATOM     17  F   UNL     1      49.270   2.232  17.064  0.00  0.00    +0.000 F 
ATOM     18  F   UNL     1      47.142   2.520  17.434  0.00  0.00    +0.000 F 
ENDBRANCH  14  15
ENDBRANCH  12  14
ENDBRANCH   1   8
BRANCH   5  19
ATOM     19  C   UNL     1      43.075   5.281  12.171  0.00  0.00    +0.000 C 
BRANCH  19  20
ATOM     20  C   UNL     1      43.255   4.350  10.965  0.00  0.00    +0.000 C 
BRANCH  20  21
ATOM     21  N   UNL     1      44.020   4.945   9.868  0.00  0.00    +0.000 N 
ATOM     22  C   UNL     1      44.820   3.958   9.231  0.00  0.00    +0.000 A 
ATOM     23  C   UNL     1      45.636   4.341   8.175  0.00  0.00    +0.000 A 
ATOM     24  C   UNL     1      46.408   3.381   7.521  0.00  0.00    +0.000 A 
ATOM     25  C   UNL     1      46.330   2.070   7.956  0.00  0.00    +0.000 A 
ATOM     26  N   UNL     1      45.534   1.703   8.985  0.00  0.00    +0.000 NA
ATOM     27  N   UNL     1      44.773   2.656   9.609  0.00  0.00    +0.000 NA
ATOM     28  H   UNL     1      44.629   5.696  10.186  0.00  0.00    +0.000 HD
BRANCH  25  29
ATOM     29  C   UNL     1      47.127   0.991   7.314  0.00  0.00    +0.000 C 
ATOM     30  N   UNL     1      46.801  -0.295   7.658  0.00  0.00    +0.000 N 
ATOM     31  O   UNL     1      48.030   1.231   6.520  0.00  0.00    +0.000 OA
ATOM     32  H   UNL     1      46.054  -0.486   8.315  0.00  0.00    +0.000 HD
ATOM     33  H   UNL     1      47.314  -1.060   7.243  0.00  0.00    +0.000 HD
ENDBRANCH  25  29
ENDBRANCH  20  21
ENDBRANCH  19  20
ENDBRANCH   5  19
TORSDOF 7
ENDMDL
MODEL 2
REMARK VINA RESULT:    -8.409      3.114      4.198
REMARK INTER + INTRA:         -12.642
REMARK INTER:                 -11.697
REMARK INTRA:                  -0.945
REMARK UNBOUND:                -0.792
REMARK  Name = 
REMARK  8 active torsions:
REMARK  status: ('A' for Active; 'I' for Inactive)
REMARK    1  A    between atoms: C_1  and  C_2
REMARK    2  A    between atoms: C_2  and  C_3
REMARK    3  A    between atoms: C_7  and  C_8
REMARK    4  A    between atoms: C_8  and  C_9
REMARK    5  A    between atoms: C_9  and  N_10
REMARK    6  A    between atoms: C_14  and  C_15
REMARK    7  A    between atoms: N_24  and  C_25
REMARK    8  A    between atoms: C_25  and  C_26
REMARK                            x       y       z     vdW  Elec       q    Type
REMARK                         _______ _______ _______ _____ _____    ______ ____
ROOT
ATOM      1  C   UNL     1      46.786   6.735  13.071  0.00  0.00    +0.000 A 
ATOM      2  C   UNL     1      47.456   5.626  13.611  0.00  0.00    +0.000 A 
ATOM      3  C   UNL     1      46.828   4.381  13.714  0.00  0.00    +0.000 A 
ATOM      4  C   UNL     1      45.508   4.218  13.294  0.00  0.00    +0.000 A 
ATOM      5  C   UNL     1      44.805   5.296  12.748  0.00  0.00    +0.000 A 
ATOM      6  C   UNL     1      45.474   6.527  12.623  0.00  0.00    +0.000 A 
ENDROOT
BRANCH   1   8
ATOM      7  C   UNL     1      46.357   9.126  12.543  0.00  0.00    +0.000 C 
ATOM      8  C   UNL     1      47.434   8.139  13.058  0.00  0.00    +0.000 C 
ATOM      9  C   UNL     1      47.904   8.516  14.485  0.00  0.00    +0.000 C 
ATOM     10  C   UNL     1      48.663   9.842  14.519  0.00  0.00    +0.000 C 
ATOM     11  C   UNL     1      49.815   9.874  13.513  0.00  0.00    +0.000 C 
ATOM     12  N   UNL     1      49.338   9.579  12.156  0.00  0.00    +0.000 NA
ATOM     13  C   UNL     1      48.685   8.254  12.120  0.00  0.00    +0.000 C 
BRANCH  12  14
ATOM     14  C   UNL     1      50.442   9.633  11.157  0.00  0.00    +0.000 C 
BRANCH  14  15
ATOM     15  C   UNL     1      51.477   8.482  11.103  0.00  0.00    +0.000 C 
ATOM     16  F   UNL     1      51.954   8.126  12.316  0.00  0.00    +0.000 F 
ATOM     17  F   UNL     1      50.927   7.377  10.544  0.00  0.00    +0.000 F 
ATOM     18  F   UNL     1      52.542   8.827  10.340  0.00  0.00    +0.000 F 
ENDBRANCH  14  15
ENDBRANCH  12  14
ENDBRANCH   1   8
BRANCH   5  19
ATOM     19  C   UNL     1      43.343   5.126  12.355  0.00  0.00    +0.000 C 
BRANCH  19  20
ATOM     20  C   UNL     1      43.147   4.327  11.060  0.00  0.00    +0.000 C 
BRANCH  20  21
ATOM     21  N   UNL     1      43.828   4.904   9.900  0.00  0.00    +0.000 N 
ATOM     22  C   UNL     1      44.658   3.932   9.280  0.00  0.00    +0.000 A 
ATOM     23  C   UNL     1      45.405   4.303   8.170  0.00  0.00    +0.000 A 
ATOM     24  C   UNL     1      46.205   3.355   7.532  0.00  0.00    +0.000 A 
ATOM     25  C   UNL     1      46.224   2.067   8.038  0.00  0.00    +0.000 A 
ATOM     26  N   UNL     1      45.496   1.712   9.120  0.00  0.00    +0.000 NA
ATOM     27  N   UNL     1      44.706   2.652   9.727  0.00  0.00    +0.000 NA
ATOM     28  H   UNL     1      44.404   5.705  10.151  0.00  0.00    +0.000 HD
BRANCH  25  29
ATOM     29  C   UNL     1      47.057   1.003   7.417  0.00  0.00    +0.000 C 
ATOM     30  N   UNL     1      46.694  -0.291   7.688  0.00  0.00    +0.000 N 
ATOM     31  O   UNL     1      48.020   1.261   6.703  0.00  0.00    +0.000 OA
ATOM     32  H   UNL     1      45.898  -0.497   8.280  0.00  0.00    +0.000 HD
ATOM     33  H   UNL     1      47.229  -1.047   7.284  0.00  0.00    +0.000 HD
ENDBRANCH  25  29
ENDBRANCH  20  21
ENDBRANCH  19  20
ENDBRANCH   5  19
TORSDOF 7
ENDMDL
MODEL 3
REMARK VINA RESULT:    -8.228      3.735      7.704
REMARK INTER + INTRA:         -12.387
REMARK INTER:                 -11.164
REMARK INTRA:                  -1.222
REMARK UNBOUND:                -0.792
REMARK  Name = 
REMARK  8 active torsions:
REMARK  status: ('A' for Active; 'I' for Inactive)
REMARK    1  A    between atoms: C_1  and  C_2
REMARK    2  A    between atoms: C_2  and  C_3
REMARK    3  A    between atoms: C_7  and  C_8
REMARK    4  A    between atoms: C_8  and  C_9
REMARK    5  A    between atoms: C_9  and  N_10
REMARK    6  A    between atoms: C_14  and  C_15
REMARK    7  A    between atoms: N_24  and  C_25
REMARK    8  A    between atoms: C_25  and  C_26
REMARK                            x       y       z     vdW  Elec       q    Type
REMARK                         _______ _______ _______ _____ _____    ______ ____
ROOT
ATOM      1  C   UNL     1      46.041   7.386  12.105  0.00  0.00    +0.000 A 
ATOM      2  C   UNL     1      45.225   8.521  11.981  0.00  0.00    +0.000 A 
ATOM      3  C   UNL     1      45.748   9.808  12.136  0.00  0.00    +0.000 A 
ATOM      4  C   UNL     1      47.098   9.992  12.434  0.00  0.00    +0.000 A 
ATOM      5  C   UNL     1      47.947   8.889  12.563  0.00  0.00    +0.000 A 
ATOM      6  C   UNL     1      47.401   7.607  12.367  0.00  0.00    +0.000 A 
ENDROOT
BRANCH   1   8
ATOM      7  C   UNL     1      46.525   5.003  12.620  0.00  0.00    +0.000 C 
ATOM      8  C   UNL     1      45.449   5.958  12.047  0.00  0.00    +0.000 C 
ATOM      9  C   UNL     1      44.143   5.896  12.877  0.00  0.00    +0.000 C 
ATOM     10  C   UNL     1      43.442   4.542  12.762  0.00  0.00    +0.000 C 
ATOM     11  C   UNL     1      43.212   4.133  11.307  0.00  0.00    +0.000 C 
ATOM     12  N   UNL     1      44.472   4.136  10.553  0.00  0.00    +0.000 NA
ATOM     13  C   UNL     1      45.093   5.476  10.599  0.00  0.00    +0.000 C 
BRANCH  12  14
ATOM     14  C   UNL     1      44.271   3.712   9.137  0.00  0.00    +0.000 C 
BRANCH  14  15
ATOM     15  C   UNL     1      45.505   3.399   8.255  0.00  0.00    +0.000 C 
ATOM     16  F   UNL     1      46.435   4.378   8.259  0.00  0.00    +0.000 F 
ATOM     17  F   UNL     1      46.111   2.263   8.677  0.00  0.00    +0.000 F 
ATOM     18  F   UNL     1      45.138   3.201   6.967  0.00  0.00    +0.000 F 
ENDBRANCH  14  15
ENDBRANCH  12  14
ENDBRANCH   1   8
BRANCH   5  19
ATOM     19  C   UNL     1      49.404   9.095  12.956  0.00  0.00    +0.000 C 
BRANCH  19  20
ATOM     20  C   UNL     1      49.950   7.996  13.876  0.00  0.00    +0.000 C 
BRANCH  20  21
ATOM     21  N   UNL     1      49.717   8.245  15.299  0.00  0.00    +0.000 N 
ATOM     22  C   UNL     1      49.152   7.098  15.916  0.00  0.00    +0.000 A 
ATOM     23  C   UNL     1      48.840   7.153  17.268  0.00  0.00    +0.000 A 
ATOM     24  C   UNL     1      48.309   6.027  17.897  0.00  0.00    +0.000 A 
ATOM     25  C   UNL     1      48.111   4.886  17.140  0.00  0.00    +0.000 A 
ATOM     26  N   UNL     1      48.415   4.838  15.824  0.00  0.00    +0.000 NA
ATOM     27  N   UNL     1      48.947   5.948  15.225  0.00  0.00    +0.000 NA
ATOM     28  H   UNL     1      49.093   9.034  15.455  0.00  0.00    +0.000 HD
BRANCH  25  29
ATOM     29  C   UNL     1      47.543   3.648  17.737  0.00  0.00    +0.000 C 
ATOM     30  N   UNL     1      48.215   3.126  18.812  0.00  0.00    +0.000 N 
ATOM     31  O   UNL     1      46.531   3.115  17.296  0.00  0.00    +0.000 OA
ATOM     32  H   UNL     1      49.052   3.571  19.171  0.00  0.00    +0.000 HD
ATOM     33  H   UNL     1      47.864   2.287  19.252  0.00  0.00    +0.000 HD
ENDBRANCH  25  29
ENDBRANCH  20  21
ENDBRANCH  19  20
ENDBRANCH   5  19
TORSDOF 7
ENDMDL
MODEL 4
REMARK VINA RESULT:    -7.885      3.092      3.925
REMARK INTER + INTRA:         -11.903
REMARK INTER:                 -11.103
REMARK INTRA:                  -0.800
REMARK UNBOUND:                -0.792
REMARK  Name = 
REMARK  8 active torsions:
REMARK  status: ('A' for Active; 'I' for Inactive)
REMARK    1  A    between atoms: C_1  and  C_2
REMARK    2  A    between atoms: C_2  and  C_3
REMARK    3  A    between atoms: C_7  and  C_8
REMARK    4  A    between atoms: C_8  and  C_9
REMARK    5  A    between atoms: C_9  and  N_10
REMARK    6  A    between atoms: C_14  and  C_15
REMARK    7  A    between atoms: N_24  and  C_25
REMARK    8  A    between atoms: C_25  and  C_26
REMARK                            x       y       z     vdW  Elec       q    Type
REMARK                         _______ _______ _______ _____ _____    ______ ____
ROOT
ATOM      1  C   UNL     1      47.129   6.934  12.814  0.00  0.00    +0.000 A 
ATOM      2  C   UNL     1      47.524   5.874  13.645  0.00  0.00    +0.000 A 
ATOM      3  C   UNL     1      46.673   4.791  13.889  0.00  0.00    +0.000 A 
ATOM      4  C   UNL     1      45.401   4.748  13.319  0.00  0.00    +0.000 A 
ATOM      5  C   UNL     1      44.969   5.782  12.483  0.00  0.00    +0.000 A 
ATOM      6  C   UNL     1      45.859   6.841  12.226  0.00  0.00    +0.000 A 
ENDROOT
BRANCH   1   8
ATOM      7  C   UNL     1      49.099   7.820  11.585  0.00  0.00    +0.000 C 
ATOM      8  C   UNL     1      48.017   8.187  12.631  0.00  0.00    +0.000 C 
ATOM      9  C   UNL     1      47.153   9.380  12.152  0.00  0.00    +0.000 C 
ATOM     10  C   UNL     1      47.950  10.682  12.069  0.00  0.00    +0.000 C 
ATOM     11  C   UNL     1      48.681  10.996  13.375  0.00  0.00    +0.000 C 
ATOM     12  N   UNL     1      49.544   9.878  13.778  0.00  0.00    +0.000 NA
ATOM     13  C   UNL     1      48.744   8.647  13.941  0.00  0.00    +0.000 C 
BRANCH  12  14
ATOM     14  C   UNL     1      50.287  10.177  15.036  0.00  0.00    +0.000 C 
BRANCH  14  15
ATOM     15  C   UNL     1      49.608   9.910  16.401  0.00  0.00    +0.000 C 
ATOM     16  F   UNL     1      48.316  10.301  16.450  0.00  0.00    +0.000 F 
ATOM     17  F   UNL     1      49.643   8.588  16.696  0.00  0.00    +0.000 F 
ATOM     18  F   UNL     1      50.259  10.557  17.397  0.00  0.00    +0.000 F 
ENDBRANCH  14  15
ENDBRANCH  12  14
ENDBRANCH   1   8
BRANCH   5  19
ATOM     19  C   UNL     1      43.554   5.761  11.920  0.00  0.00    +0.000 C 
BRANCH  19  20
ATOM     20  C   UNL     1      43.460   5.124  10.527  0.00  0.00    +0.000 C 
BRANCH  20  21
ATOM     21  N   UNL     1      43.751   3.690  10.512  0.00  0.00    +0.000 N 
ATOM     22  C   UNL     1      44.675   3.384   9.477  0.00  0.00    +0.000 A 
ATOM     23  C   UNL     1      45.056   2.061   9.293  0.00  0.00    +0.000 A 
ATOM     24  C   UNL     1      45.983   1.746   8.300  0.00  0.00    +0.000 A 
ATOM     25  C   UNL     1      46.491   2.775   7.527  0.00  0.00    +0.000 A 
ATOM     26  N   UNL     1      46.116   4.060   7.710  0.00  0.00    +0.000 NA
ATOM     27  N   UNL     1      45.214   4.355   8.697  0.00  0.00    +0.000 NA
ATOM     28  H   UNL     1      42.913   3.129  10.371  0.00  0.00    +0.000 HD
BRANCH  25  29
ATOM     29  C   UNL     1      47.478   2.517   6.445  0.00  0.00    +0.000 C 
ATOM     30  N   UNL     1      47.345   3.269   5.307  0.00  0.00    +0.000 N 
ATOM     31  O   UNL     1      48.364   1.677   6.556  0.00  0.00    +0.000 OA
ATOM     32  H   UNL     1      46.610   3.961   5.221  0.00  0.00    +0.000 HD
ATOM     33  H   UNL     1      47.996   3.130   4.546  0.00  0.00    +0.000 HD
ENDBRANCH  25  29
ENDBRANCH  20  21
ENDBRANCH  19  20
ENDBRANCH   5  19
TORSDOF 7
ENDMDL
MODEL 5
REMARK VINA RESULT:    -7.772      2.543      3.430
REMARK INTER + INTRA:         -11.745
REMARK INTER:                 -10.655
REMARK INTRA:                  -1.089
REMARK UNBOUND:                -0.792
REMARK  Name = 
REMARK  8 active torsions:
REMARK  status: ('A' for Active; 'I' for Inactive)
REMARK    1  A    between atoms: C_1  and  C_2
REMARK    2  A    between atoms: C_2  and  C_3
REMARK    3  A    between atoms: C_7  and  C_8
REMARK    4  A    between atoms: C_8  and  C_9
REMARK    5  A    between atoms: C_9  and  N_10
REMARK    6  A    between atoms: C_14  and  C_15
REMARK    7  A    between atoms: N_24  and  C_25
REMARK    8  A    between atoms: C_25  and  C_26
REMARK                            x       y       z     vdW  Elec       q    Type
REMARK                         _______ _______ _______ _____ _____    ______ ____
ROOT
ATOM      1  C   UNL     1      47.314   6.534  13.094  0.00  0.00    +0.000 A 
ATOM      2  C   UNL     1      47.635   5.385  13.833  0.00  0.00    +0.000 A 
ATOM      3  C   UNL     1      46.726   4.330  13.959  0.00  0.00    +0.000 A 
ATOM      4  C   UNL     1      45.468   4.405  13.362  0.00  0.00    +0.000 A 
ATOM      5  C   UNL     1      45.109   5.530  12.616  0.00  0.00    +0.000 A 
ATOM      6  C   UNL     1      46.056   6.561  12.475  0.00  0.00    +0.000 A 
ENDROOT
BRANCH   1   8
ATOM      7  C   UNL     1      49.119   7.602  11.759  0.00  0.00    +0.000 C 
ATOM      8  C   UNL     1      48.268   7.751  13.044  0.00  0.00    +0.000 C 
ATOM      9  C   UNL     1      47.447   9.064  13.025  0.00  0.00    +0.000 C 
ATOM     10  C   UNL     1      48.332  10.308  13.099  0.00  0.00    +0.000 C 
ATOM     11  C   UNL     1      49.300  10.258  14.283  0.00  0.00    +0.000 C 
ATOM     12  N   UNL     1      50.114   9.037  14.247  0.00  0.00    +0.000 NA
ATOM     13  C   UNL     1      49.246   7.842  14.266  0.00  0.00    +0.000 C 
BRANCH  12  14
ATOM     14  C   UNL     1      51.084   8.984  15.378  0.00  0.00    +0.000 C 
BRANCH  14  15
ATOM     15  C   UNL     1      52.204   7.915  15.370  0.00  0.00    +0.000 C 
ATOM     16  F   UNL     1      53.217   8.185  16.222  0.00  0.00    +0.000 F 
ATOM     17  F   UNL     1      51.702   6.703  15.710  0.00  0.00    +0.000 F 
ATOM     18  F   UNL     1      52.743   7.790  14.134  0.00  0.00    +0.000 F 
ENDBRANCH  14  15
ENDBRANCH  12  14
ENDBRANCH   1   8
BRANCH   5  19
ATOM     19  C   UNL     1      43.709   5.633  12.025  0.00  0.00    +0.000 C 
BRANCH  19  20
ATOM     20  C   UNL     1      43.401   4.544  10.989  0.00  0.00    +0.000 C 
BRANCH  20  21
ATOM     21  N   UNL     1      43.766   4.911   9.620  0.00  0.00    +0.000 N 
ATOM     22  C   UNL     1      44.620   3.927   9.055  0.00  0.00    +0.000 A 
ATOM     23  C   UNL     1      45.089   4.114   7.762  0.00  0.00    +0.000 A 
ATOM     24  C   UNL     1      45.908   3.145   7.181  0.00  0.00    +0.000 A 
ATOM     25  C   UNL     1      46.224   2.023   7.926  0.00  0.00    +0.000 A 
ATOM     26  N   UNL     1      45.765   1.846   9.185  0.00  0.00    +0.000 NA
ATOM     27  N   UNL     1      44.952   2.801   9.736  0.00  0.00    +0.000 NA
ATOM     28  H   UNL     1      44.239   5.811   9.575  0.00  0.00    +0.000 HD
BRANCH  25  29
ATOM     29  C   UNL     1      47.095   0.949   7.379  0.00  0.00    +0.000 C 
ATOM     30  N   UNL     1      46.733  -0.339   7.673  0.00  0.00    +0.000 N 
ATOM     31  O   UNL     1      48.088   1.196   6.702  0.00  0.00    +0.000 OA
ATOM     32  H   UNL     1      45.912  -0.536   8.234  0.00  0.00    +0.000 HD
ATOM     33  H   UNL     1      47.295  -1.101   7.319  0.00  0.00    +0.000 HD
ENDBRANCH  25  29
ENDBRANCH  20  21
ENDBRANCH  19  20
ENDBRANCH   5  19
TORSDOF 7
ENDMDL
MODEL 6
REMARK VINA RESULT:    -7.602      1.676      2.129
REMARK INTER + INTRA:         -11.504
REMARK INTER:                 -10.773
REMARK INTRA:                  -0.731
REMARK UNBOUND:                -0.792
REMARK  Name = 
REMARK  8 active torsions:
REMARK  status: ('A' for Active; 'I' for Inactive)
REMARK    1  A    between atoms: C_1  and  C_2
REMARK    2  A    between atoms: C_2  and  C_3
REMARK    3  A    between atoms: C_7  and  C_8
REMARK    4  A    between atoms: C_8  and  C_9
REMARK    5  A    between atoms: C_9  and  N_10
REMARK    6  A    between atoms: C_14  and  C_15
REMARK    7  A    between atoms: N_24  and  C_25
REMARK    8  A    between atoms: C_25  and  C_26
REMARK                            x       y       z     vdW  Elec       q    Type
REMARK                         _______ _______ _______ _____ _____    ______ ____
ROOT
ATOM      1  C   UNL     1      48.120   7.251  13.736  0.00  0.00    +0.000 A 
ATOM      2  C   UNL     1      48.785   7.533  12.532  0.00  0.00    +0.000 A 
ATOM      3  C   UNL     1      48.145   7.376  11.299  0.00  0.00    +0.000 A 
ATOM      4  C   UNL     1      46.829   6.920  11.238  0.00  0.00    +0.000 A 
ATOM      5  C   UNL     1      46.129   6.630  12.413  0.00  0.00    +0.000 A 
ATOM      6  C   UNL     1      46.786   6.831  13.641  0.00  0.00    +0.000 A 
ENDROOT
BRANCH   1   8
ATOM      7  C   UNL     1      50.363   7.487  14.782  0.00  0.00    +0.000 C 
ATOM      8  C   UNL     1      48.856   7.312  15.095  0.00  0.00    +0.000 C 
ATOM      9  C   UNL     1      48.315   8.496  15.934  0.00  0.00    +0.000 C 
ATOM     10  C   UNL     1      48.916   8.539  17.339  0.00  0.00    +0.000 C 
ATOM     11  C   UNL     1      48.765   7.205  18.072  0.00  0.00    +0.000 C 
ATOM     12  N   UNL     1      49.342   6.105  17.289  0.00  0.00    +0.000 NA
ATOM     13  C   UNL     1      48.689   6.020  15.967  0.00  0.00    +0.000 C 
BRANCH  12  14
ATOM     14  C   UNL     1      49.230   4.799  18.001  0.00  0.00    +0.000 C 
BRANCH  14  15
ATOM     15  C   UNL     1      47.940   3.958  17.847  0.00  0.00    +0.000 C 
ATOM     16  F   UNL     1      47.752   3.478  16.598  0.00  0.00    +0.000 F 
ATOM     17  F   UNL     1      47.964   2.897  18.689  0.00  0.00    +0.000 F 
ATOM     18  F   UNL     1      46.846   4.692  18.162  0.00  0.00    +0.000 F 
ENDBRANCH  14  15
ENDBRANCH  12  14
ENDBRANCH   1   8
BRANCH   5  19
ATOM     19  C   UNL     1      44.716   6.067  12.334  0.00  0.00    +0.000 C 
BRANCH  19  20
ATOM     20  C   UNL     1      44.322   5.598  10.928  0.00  0.00    +0.000 C 
BRANCH  20  21
ATOM     21  N   UNL     1      44.344   4.144  10.761  0.00  0.00    +0.000 N 
ATOM     22  C   UNL     1      45.069   3.792   9.591  0.00  0.00    +0.000 A 
ATOM     23  C   UNL     1      45.180   2.449   9.255  0.00  0.00    +0.000 A 
ATOM     24  C   UNL     1      45.909   2.082   8.125  0.00  0.00    +0.000 A 
ATOM     25  C   UNL     1      46.500   3.083   7.373  0.00  0.00    +0.000 A 
ATOM     26  N   UNL     1      46.389   4.388   7.704  0.00  0.00    +0.000 NA
ATOM     27  N   UNL     1      45.679   4.730   8.824  0.00  0.00    +0.000 NA
ATOM     28  H   UNL     1      43.408   3.751  10.691  0.00  0.00    +0.000 HD
BRANCH  25  29
ATOM     29  C   UNL     1      47.289   2.771   6.151  0.00  0.00    +0.000 C 
ATOM     30  N   UNL     1      48.614   2.475   6.340  0.00  0.00    +0.000 N 
ATOM     31  O   UNL     1      46.789   2.780   5.032  0.00  0.00    +0.000 OA
ATOM     32  H   UNL     1      49.021   2.470   7.268  0.00  0.00    +0.000 HD
ATOM     33  H   UNL     1      49.187   2.254   5.538  0.00  0.00    +0.000 HD
ENDBRANCH  25  29
ENDBRANCH  20  21
ENDBRANCH  19  20
ENDBRANCH   5  19
TORSDOF 7
ENDMDL
MODEL 7
REMARK VINA RESULT:    -7.215      4.280      8.264
REMARK INTER + INTRA:         -10.958
REMARK INTER:                 -10.167
REMARK INTRA:                  -0.792
REMARK UNBOUND:                -0.792
REMARK  Name = 
REMARK  8 active torsions:
REMARK  status: ('A' for Active; 'I' for Inactive)
REMARK    1  A    between atoms: C_1  and  C_2
REMARK    2  A    between atoms: C_2  and  C_3
REMARK    3  A    between atoms: C_7  and  C_8
REMARK    4  A    between atoms: C_8  and  C_9
REMARK    5  A    between atoms: C_9  and  N_10
REMARK    6  A    between atoms: C_14  and  C_15
REMARK    7  A    between atoms: N_24  and  C_25
REMARK    8  A    between atoms: C_25  and  C_26
REMARK                            x       y       z     vdW  Elec       q    Type
REMARK                         _______ _______ _______ _____ _____    ______ ____
ROOT
ATOM      1  C   UNL     1      46.302   6.814  12.375  0.00  0.00    +0.000 A 
ATOM      2  C   UNL     1      45.563   8.007  12.413  0.00  0.00    +0.000 A 
ATOM      3  C   UNL     1      46.201   9.250  12.474  0.00  0.00    +0.000 A 
ATOM      4  C   UNL     1      47.593   9.331  12.513  0.00  0.00    +0.000 A 
ATOM      5  C   UNL     1      48.366   8.167  12.474  0.00  0.00    +0.000 A 
ATOM      6  C   UNL     1      47.699   6.932  12.377  0.00  0.00    +0.000 A 
ENDROOT
BRANCH   1   8
ATOM      7  C   UNL     1      46.444   4.540  13.369  0.00  0.00    +0.000 C 
ATOM      8  C   UNL     1      45.605   5.435  12.422  0.00  0.00    +0.000 C 
ATOM      9  C   UNL     1      44.154   5.594  12.940  0.00  0.00    +0.000 C 
ATOM     10  C   UNL     1      43.370   4.283  12.896  0.00  0.00    +0.000 C 
ATOM     11  C   UNL     1      43.413   3.631  11.513  0.00  0.00    +0.000 C 
ATOM     12  N   UNL     1      44.797   3.429  11.068  0.00  0.00    +0.000 NA
ATOM     13  C   UNL     1      45.517   4.718  11.030  0.00  0.00    +0.000 C 
BRANCH  12  14
ATOM     14  C   UNL     1      44.859   2.768   9.733  0.00  0.00    +0.000 C 
BRANCH  14  15
ATOM     15  C   UNL     1      44.925   3.640   8.456  0.00  0.00    +0.000 C 
ATOM     16  F   UNL     1      44.860   2.928   7.310  0.00  0.00    +0.000 F 
ATOM     17  F   UNL     1      43.902   4.529   8.438  0.00  0.00    +0.000 F 
ATOM     18  F   UNL     1      46.075   4.354   8.418  0.00  0.00    +0.000 F 
ENDBRANCH  14  15
ENDBRANCH  12  14
ENDBRANCH   1   8
BRANCH   5  19
ATOM     19  C   UNL     1      49.882   8.260  12.586  0.00  0.00    +0.000 C 
BRANCH  19  20
ATOM     20  C   UNL     1      50.371   8.589  14.003  0.00  0.00    +0.000 C 
BRANCH  20  21
ATOM     21  N   UNL     1      51.042   7.473  14.670  0.00  0.00    +0.000 N 
ATOM     22  C   UNL     1      50.286   7.042  15.793  0.00  0.00    +0.000 A 
ATOM     23  C   UNL     1      50.778   6.000  16.568  0.00  0.00    +0.000 A 
ATOM     24  C   UNL     1      50.037   5.546  17.659  0.00  0.00    +0.000 A 
ATOM     25  C   UNL     1      48.826   6.160  17.929  0.00  0.00    +0.000 A 
ATOM     26  N   UNL     1      48.352   7.174  17.172  0.00  0.00    +0.000 NA
ATOM     27  N   UNL     1      49.087   7.600  16.098  0.00  0.00    +0.000 NA
ATOM     28  H   UNL     1      51.977   7.720  14.988  0.00  0.00    +0.000 HD
BRANCH  25  29
ATOM     29  C   UNL     1      47.982   5.736  19.078  0.00  0.00    +0.000 C 
ATOM     30  N   UNL     1      46.659   5.502  18.808  0.00  0.00    +0.000 N 
ATOM     31  O   UNL     1      48.437   5.604  20.209  0.00  0.00    +0.000 OA
ATOM     32  H   UNL     1      46.289   5.613  17.871  0.00  0.00    +0.000 HD
ATOM     33  H   UNL     1      46.048   5.209  19.558  0.00  0.00    +0.000 HD
ENDBRANCH  25  29
ENDBRANCH  20  21
ENDBRANCH  19  20
ENDBRANCH   5  19
TORSDOF 7
ENDMDL
MODEL 8
REMARK VINA RESULT:    -7.175      3.575      7.826
REMARK INTER + INTRA:         -10.903
REMARK INTER:                  -9.714
REMARK INTRA:                  -1.189
REMARK UNBOUND:                -0.792
REMARK  Name = 
REMARK  8 active torsions:
REMARK  status: ('A' for Active; 'I' for Inactive)
REMARK    1  A    between atoms: C_1  and  C_2
REMARK    2  A    between atoms: C_2  and  C_3
REMARK    3  A    between atoms: C_7  and  C_8
REMARK    4  A    between atoms: C_8  and  C_9
REMARK    5  A    between atoms: C_9  and  N_10
REMARK    6  A    between atoms: C_14  and  C_15
REMARK    7  A    between atoms: N_24  and  C_25
REMARK    8  A    between atoms: C_25  and  C_26
REMARK                            x       y       z     vdW  Elec       q    Type
REMARK                         _______ _______ _______ _____ _____    ______ ____
ROOT
ATOM      1  C   UNL     1      47.252   7.695  12.892  0.00  0.00    +0.000 A 
ATOM      2  C   UNL     1      47.392   8.769  11.999  0.00  0.00    +0.000 A 
ATOM      3  C   UNL     1      48.085   9.927  12.365  0.00  0.00    +0.000 A 
ATOM      4  C   UNL     1      48.641  10.046  13.639  0.00  0.00    +0.000 A 
ATOM      5  C   UNL     1      48.526   8.999  14.557  0.00  0.00    +0.000 A 
ATOM      6  C   UNL     1      47.855   7.831  14.150  0.00  0.00    +0.000 A 
ENDROOT
BRANCH   1   8
ATOM      7  C   UNL     1      47.054   5.239  13.221  0.00  0.00    +0.000 C 
ATOM      8  C   UNL     1      46.392   6.460  12.535  0.00  0.00    +0.000 C 
ATOM      9  C   UNL     1      44.940   6.666  13.034  0.00  0.00    +0.000 C 
ATOM     10  C   UNL     1      44.008   5.533  12.605  0.00  0.00    +0.000 C 
ATOM     11  C   UNL     1      44.062   5.280  11.098  0.00  0.00    +0.000 C 
ATOM     12  N   UNL     1      45.438   5.022  10.655  0.00  0.00    +0.000 NA
ATOM     13  C   UNL     1      46.309   6.166  10.997  0.00  0.00    +0.000 C 
BRANCH  12  14
ATOM     14  C   UNL     1      45.507   4.746   9.192  0.00  0.00    +0.000 C 
BRANCH  14  15
ATOM     15  C   UNL     1      45.301   3.299   8.681  0.00  0.00    +0.000 C 
ATOM     16  F   UNL     1      44.057   3.063   8.210  0.00  0.00    +0.000 F 
ATOM     17  F   UNL     1      46.171   3.022   7.680  0.00  0.00    +0.000 F 
ATOM     18  F   UNL     1      45.532   2.401   9.669  0.00  0.00    +0.000 F 
ENDBRANCH  14  15
ENDBRANCH  12  14
ENDBRANCH   1   8
BRANCH   5  19
ATOM     19  C   UNL     1      49.076   9.164  15.968  0.00  0.00    +0.000 C 
BRANCH  19  20
ATOM     20  C   UNL     1      48.408   8.242  16.996  0.00  0.00    +0.000 C 
BRANCH  20  21
ATOM     21  N   UNL     1      49.334   7.691  17.986  0.00  0.00    +0.000 N 
ATOM     22  C   UNL     1      49.513   6.298  17.773  0.00  0.00    +0.000 A 
ATOM     23  C   UNL     1      50.346   5.593  18.632  0.00  0.00    +0.000 A 
ATOM     24  C   UNL     1      50.554   4.230  18.423  0.00  0.00    +0.000 A 
ATOM     25  C   UNL     1      49.914   3.627  17.354  0.00  0.00    +0.000 A 
ATOM     26  N   UNL     1      49.105   4.316  16.522  0.00  0.00    +0.000 NA
ATOM     27  N   UNL     1      48.920   5.657  16.734  0.00  0.00    +0.000 NA
ATOM     28  H   UNL     1      49.007   7.831  18.940  0.00  0.00    +0.000 HD
BRANCH  25  29
ATOM     29  C   UNL     1      50.082   2.176  17.070  0.00  0.00    +0.000 C 
ATOM     30  N   UNL     1      50.986   1.503  17.849  0.00  0.00    +0.000 N 
ATOM     31  O   UNL     1      49.451   1.607  16.185  0.00  0.00    +0.000 OA
ATOM     32  H   UNL     1      51.505   1.979  18.578  0.00  0.00    +0.000 HD
ATOM     33  H   UNL     1      51.130   0.515  17.693  0.00  0.00    +0.000 HD
ENDBRANCH  25  29
ENDBRANCH  20  21
ENDBRANCH  19  20
ENDBRANCH   5  19
TORSDOF 7
ENDMDL
MODEL 9
REMARK VINA RESULT:    -6.994      4.218      7.580
REMARK INTER + INTRA:         -10.648
REMARK INTER:                  -9.799
REMARK INTRA:                  -0.848
REMARK UNBOUND:                -0.792
REMARK  Name = 
REMARK  8 active torsions:
REMARK  status: ('A' for Active; 'I' for Inactive)
REMARK    1  A    between atoms: C_1  and  C_2
REMARK    2  A    between atoms: C_2  and  C_3
REMARK    3  A    between atoms: C_7  and  C_8
REMARK    4  A    between atoms: C_8  and  C_9
REMARK    5  A    between atoms: C_9  and  N_10
REMARK    6  A    between atoms: C_14  and  C_15
REMARK    7  A    between atoms: N_24  and  C_25
REMARK    8  A    between atoms: C_25  and  C_26
REMARK                            x       y       z     vdW  Elec       q    Type
REMARK                         _______ _______ _______ _____ _____    ______ ____
ROOT
ATOM      1  C   UNL     1      48.025   8.403  13.879  0.00  0.00    +0.000 A 
ATOM      2  C   UNL     1      48.406   9.550  13.166  0.00  0.00    +0.000 A 
ATOM      3  C   UNL     1      48.847  10.700  13.828  0.00  0.00    +0.000 A 
ATOM      4  C   UNL     1      48.902  10.736  15.221  0.00  0.00    +0.000 A 
ATOM      5  C   UNL     1      48.535   9.614  15.970  0.00  0.00    +0.000 A 
ATOM      6  C   UNL     1      48.129   8.459  15.276  0.00  0.00    +0.000 A 
ENDROOT
BRANCH   1   8
ATOM      7  C   UNL     1      48.182   7.028  11.814  0.00  0.00    +0.000 C 
ATOM      8  C   UNL     1      47.430   7.169  13.160  0.00  0.00    +0.000 C 
ATOM      9  C   UNL     1      47.611   5.908  14.040  0.00  0.00    +0.000 C 
ATOM     10  C   UNL     1      46.935   4.675  13.440  0.00  0.00    +0.000 C 
ATOM     11  C   UNL     1      45.465   4.929  13.104  0.00  0.00    +0.000 C 
ATOM     12  N   UNL     1      45.320   6.089  12.216  0.00  0.00    +0.000 NA
ATOM     13  C   UNL     1      45.898   7.293  12.849  0.00  0.00    +0.000 C 
BRANCH  12  14
ATOM     14  C   UNL     1      43.894   6.336  11.855  0.00  0.00    +0.000 C 
BRANCH  14  15
ATOM     15  C   UNL     1      42.855   5.204  12.045  0.00  0.00    +0.000 C 
ATOM     16  F   UNL     1      42.781   4.744  13.313  0.00  0.00    +0.000 F 
ATOM     17  F   UNL     1      41.618   5.635  11.698  0.00  0.00    +0.000 F 
ATOM     18  F   UNL     1      43.145   4.145  11.252  0.00  0.00    +0.000 F 
ENDBRANCH  14  15
ENDBRANCH  12  14
ENDBRANCH   1   8
BRANCH   5  19
ATOM     19  C   UNL     1      48.533   9.685  17.491  0.00  0.00    +0.000 C 
BRANCH  19  20
ATOM     20  C   UNL     1      49.017   8.394  18.163  0.00  0.00    +0.000 C 
BRANCH  20  21
ATOM     21  N   UNL     1      47.961   7.400  18.363  0.00  0.00    +0.000 N 
ATOM     22  C   UNL     1      48.423   6.107  17.997  0.00  0.00    +0.000 A 
ATOM     23  C   UNL     1      47.549   5.033  18.099  0.00  0.00    +0.000 A 
ATOM     24  C   UNL     1      47.993   3.753  17.768  0.00  0.00    +0.000 A 
ATOM     25  C   UNL     1      49.302   3.602  17.347  0.00  0.00    +0.000 A 
ATOM     26  N   UNL     1      50.148   4.651  17.249  0.00  0.00    +0.000 NA
ATOM     27  N   UNL     1      49.700   5.900  17.588  0.00  0.00    +0.000 NA
ATOM     28  H   UNL     1      47.127   7.609  17.819  0.00  0.00    +0.000 HD
BRANCH  25  29
ATOM     29  C   UNL     1      49.847   2.270  16.972  0.00  0.00    +0.000 C 
ATOM     30  N   UNL     1      50.803   1.747  17.803  0.00  0.00    +0.000 N 
ATOM     31  O   UNL     1      49.469   1.668  15.972  0.00  0.00    +0.000 OA
ATOM     32  H   UNL     1      51.111   2.250  18.627  0.00  0.00    +0.000 HD
ATOM     33  H   UNL     1      51.199   0.842  17.589  0.00  0.00    +0.000 HD
ENDBRANCH  25  29
ENDBRANCH  20  21
ENDBRANCH  19  20
ENDBRANCH   5  19
TORSDOF 7
ENDMDL
