MODEL 1
REMARK VINA RESULT:    -8.114      0.000      0.000
REMARK INTER + INTRA:         -11.044
REMARK INTER:                 -10.485
REMARK INTRA:                  -0.558
REMARK UNBOUND:                -0.558
REMARK  Name = 
REMARK  5 active torsions:
REMARK  status: ('A' for Active; 'I' for Inactive)
REMARK    1  A    between atoms: C_2  and  C_3
REMARK    2  A    between atoms: C_6  and  N_7
REMARK    3  A    between atoms: N_7  and  C_8
REMARK    4  A    between atoms: C_8  and  C_9
REMARK    5  A    between atoms: C_11  and  C_12
REMARK                            x       y       z     vdW  Elec       q    Type
REMARK                         _______ _______ _______ _____ _____    ______ ____
ROOT
ATOM      1  C   UNL     1      44.168   4.289  11.686  0.00  0.00    +0.000 C 
ATOM      2  C   UNL     1      43.371   3.173  12.344  0.00  0.00    +0.000 C 
ATOM      3  C   UNL     1      42.947   4.587  12.554  0.00  0.00    +0.000 C 
ENDROOT
BRANCH   1   4
ATOM      4  C   UNL     1      45.479   4.784  12.315  0.00  0.00    +0.000 A 
ATOM      5  C   UNL     1      46.036   5.994  11.869  0.00  0.00    +0.000 A 
ATOM      6  C   UNL     1      47.079   6.613  12.570  0.00  0.00    +0.000 A 
ATOM      7  C   UNL     1      47.580   5.928  13.679  0.00  0.00    +0.000 A 
ATOM      8  C   UNL     1      47.027   4.708  14.032  0.00  0.00    +0.000 A 
ATOM      9  N   UNL     1      45.995   4.131  13.384  0.00  0.00    +0.000 NA
BRANCH   6  10
ATOM     10  C   UNL     1      47.569   7.958  12.199  0.00  0.00    +0.000 A 
ATOM     11  C   UNL     1      48.890   8.172  11.773  0.00  0.00    +0.000 A 
ATOM     12  C   UNL     1      49.339   9.450  11.446  0.00  0.00    +0.000 A 
ATOM     13  C   UNL     1      48.454  10.506  11.561  0.00  0.00    +0.000 A 
ATOM     14  N   UNL     1      47.178  10.365  11.975  0.00  0.00    +0.000 NA
ATOM     15  C   UNL     1      46.772   9.104  12.278  0.00  0.00    +0.000 A 
ENDBRANCH   6  10
ENDBRANCH   1   4
BRANCH   1  16
ATOM     16  N   UNL     1      44.067   4.463  10.222  0.00  0.00    +0.000 N 
ATOM     17  H   UNL     1      43.195   4.818   9.840  0.00  0.00    +0.000 HD
BRANCH  16  21
ATOM     18  C   UNL     1      46.656   2.668   7.539  0.00  0.00    +0.000 A 
ATOM     19  N   UNL     1      45.984   1.848   8.366  0.00  0.00    +0.000 NA
ATOM     20  C   UNL     1      45.139   2.452   9.239  0.00  0.00    +0.000 A 
ATOM     21  C   UNL     1      44.900   3.816   9.295  0.00  0.00    +0.000 A 
ATOM     22  C   UNL     1      45.680   4.539   8.405  0.00  0.00    +0.000 A 
ATOM     23  N   UNL     1      46.549   4.008   7.514  0.00  0.00    +0.000 NA
BRANCH  18  25
ATOM     24  N   UNL     1      48.319   1.579   5.847  0.00  0.00    +0.000 NA
ATOM     25  C   UNL     1      47.572   2.065   6.600  0.00  0.00    +0.000 C 
ENDBRANCH  18  25
ENDBRANCH  16  21
ENDBRANCH   1  16
TORSDOF 5
ENDMDL
MODEL 2
REMARK VINA RESULT:    -8.017      1.703      3.508
REMARK INTER + INTRA:         -10.918
REMARK INTER:                 -10.425
REMARK INTRA:                  -0.493
REMARK UNBOUND:                -0.558
REMARK  Name = 
REMARK  5 active torsions:
REMARK  status: ('A' for Active; 'I' for Inactive)
REMARK    1  A    between atoms: C_2  and  C_3
REMARK    2  A    between atoms: C_6  and  N_7
REMARK    3  A    between atoms: N_7  and  C_8
REMARK    4  A    between atoms: C_8  and  C_9
REMARK    5  A    between atoms: C_11  and  C_12
REMARK                            x       y       z     vdW  Elec       q    Type
REMARK                         _______ _______ _______ _____ _____    ______ ____
ROOT
ATOM      1  C   UNL     1      43.958   4.843  11.428  0.00  0.00    +0.000 C 
ATOM      2  C   UNL     1      43.303   3.712  12.205  0.00  0.00    +0.000 C 
ATOM      3  C   UNL     1      42.672   5.062  12.223  0.00  0.00    +0.000 C 
ENDROOT
BRANCH   1   4
ATOM      4  C   UNL     1      45.157   5.601  12.019  0.00  0.00    +0.000 A 
ATOM      5  C   UNL     1      45.695   5.177  13.244  0.00  0.00    +0.000 A 
ATOM      6  C   UNL     1      46.926   5.664  13.703  0.00  0.00    +0.000 A 
ATOM      7  C   UNL     1      47.543   6.641  12.918  0.00  0.00    +0.000 A 
ATOM      8  C   UNL     1      46.930   7.062  11.749  0.00  0.00    +0.000 A 
ATOM      9  N   UNL     1      45.766   6.563  11.285  0.00  0.00    +0.000 NA
BRANCH   6  10
ATOM     10  C   UNL     1      47.575   5.113  14.912  0.00  0.00    +0.000 A 
ATOM     11  C   UNL     1      47.232   3.850  15.423  0.00  0.00    +0.000 A 
ATOM     12  C   UNL     1      47.840   3.355  16.575  0.00  0.00    +0.000 A 
ATOM     13  C   UNL     1      48.784   4.142  17.209  0.00  0.00    +0.000 A 
ATOM     14  N   UNL     1      49.146   5.365  16.773  0.00  0.00    +0.000 NA
ATOM     15  C   UNL     1      48.538   5.813  15.643  0.00  0.00    +0.000 A 
ENDBRANCH   6  10
ENDBRANCH   1   4
BRANCH   1  16
ATOM     16  N   UNL     1      43.894   4.819   9.951  0.00  0.00    +0.000 N 
ATOM     17  H   UNL     1      43.026   5.099   9.505  0.00  0.00    +0.000 HD
BRANCH  16  21
ATOM     18  C   UNL     1      46.597   2.732   7.616  0.00  0.00    +0.000 A 
ATOM     19  N   UNL     1      45.794   1.999   8.407  0.00  0.00    +0.000 NA
ATOM     20  C   UNL     1      44.913   2.698   9.165  0.00  0.00    +0.000 A 
ATOM     21  C   UNL     1      44.765   4.075   9.140  0.00  0.00    +0.000 A 
ATOM     22  C   UNL     1      45.674   4.702   8.301  0.00  0.00    +0.000 A 
ATOM     23  N   UNL     1      46.586   4.074   7.524  0.00  0.00    +0.000 NA
BRANCH  18  25
ATOM     24  N   UNL     1      48.331   1.461   6.134  0.00  0.00    +0.000 NA
ATOM     25  C   UNL     1      47.556   2.026   6.799  0.00  0.00    +0.000 C 
ENDBRANCH  18  25
ENDBRANCH  16  21
ENDBRANCH   1  16
TORSDOF 5
ENDMDL
MODEL 3
REMARK VINA RESULT:    -7.622      1.547      2.096
REMARK INTER + INTRA:         -10.408
REMARK INTER:                  -9.774
REMARK INTRA:                  -0.634
REMARK UNBOUND:                -0.558
REMARK  Name = 
REMARK  5 active torsions:
REMARK  status: ('A' for Active; 'I' for Inactive)
REMARK    1  A    between atoms: C_2  and  C_3
REMARK    2  A    between atoms: C_6  and  N_7
REMARK    3  A    between atoms: N_7  and  C_8
REMARK    4  A    between atoms: C_8  and  C_9
REMARK    5  A    between atoms: C_11  and  C_12
REMARK                            x       y       z     vdW  Elec       q    Type
REMARK                         _______ _______ _______ _____ _____    ______ ____
ROOT
ATOM      1  C   UNL     1      44.411   4.356  11.630  0.00  0.00    +0.000 C 
ATOM      2  C   UNL     1      44.968   3.263  12.529  0.00  0.00    +0.000 C 
ATOM      3  C   UNL     1      43.611   3.811  12.813  0.00  0.00    +0.000 C 
ENDROOT
BRANCH   1   4
ATOM      4  C   UNL     1      44.838   5.818  11.826  0.00  0.00    +0.000 A 
ATOM      5  C   UNL     1      46.135   6.093  12.291  0.00  0.00    +0.000 A 
ATOM      6  C   UNL     1      46.658   7.392  12.251  0.00  0.00    +0.000 A 
ATOM      7  C   UNL     1      45.800   8.398  11.801  0.00  0.00    +0.000 A 
ATOM      8  C   UNL     1      44.511   8.070  11.414  0.00  0.00    +0.000 A 
ATOM      9  N   UNL     1      44.020   6.815  11.412  0.00  0.00    +0.000 NA
BRANCH   6  10
ATOM     10  C   UNL     1      48.070   7.668  12.592  0.00  0.00    +0.000 A 
ATOM     11  C   UNL     1      48.945   8.279  11.679  0.00  0.00    +0.000 A 
ATOM     12  C   UNL     1      50.278   8.513  12.010  0.00  0.00    +0.000 A 
ATOM     13  C   UNL     1      50.722   8.121  13.259  0.00  0.00    +0.000 A 
ATOM     14  N   UNL     1      49.934   7.520  14.174  0.00  0.00    +0.000 NA
ATOM     15  C   UNL     1      48.638   7.314  13.819  0.00  0.00    +0.000 A 
ENDBRANCH   6  10
ENDBRANCH   1   4
BRANCH   1  16
ATOM     16  N   UNL     1      43.994   4.000  10.257  0.00  0.00    +0.000 N 
ATOM     17  H   UNL     1      43.007   3.835  10.084  0.00  0.00    +0.000 HD
BRANCH  16  21
ATOM     18  C   UNL     1      46.676   2.598   7.436  0.00  0.00    +0.000 A 
ATOM     19  N   UNL     1      46.096   1.676   8.225  0.00  0.00    +0.000 NA
ATOM     20  C   UNL     1      45.219   2.151   9.144  0.00  0.00    +0.000 A 
ATOM     21  C   UNL     1      44.862   3.483   9.283  0.00  0.00    +0.000 A 
ATOM     22  C   UNL     1      45.556   4.322   8.424  0.00  0.00    +0.000 A 
ATOM     23  N   UNL     1      46.450   3.922   7.491  0.00  0.00    +0.000 NA
BRANCH  18  25
ATOM     24  N   UNL     1      48.394   1.760   5.658  0.00  0.00    +0.000 NA
ATOM     25  C   UNL     1      47.623   2.132   6.451  0.00  0.00    +0.000 C 
ENDBRANCH  18  25
ENDBRANCH  16  21
ENDBRANCH   1  16
TORSDOF 5
ENDMDL
MODEL 4
REMARK VINA RESULT:    -7.408      2.322      6.981
REMARK INTER + INTRA:         -10.131
REMARK INTER:                 -10.179
REMARK INTRA:                   0.048
REMARK UNBOUND:                -0.558
REMARK  Name = 
REMARK  5 active torsions:
REMARK  status: ('A' for Active; 'I' for Inactive)
REMARK    1  A    between atoms: C_2  and  C_3
REMARK    2  A    between atoms: C_6  and  N_7
REMARK    3  A    between atoms: N_7  and  C_8
REMARK    4  A    between atoms: C_8  and  C_9
REMARK    5  A    between atoms: C_11  and  C_12
REMARK                            x       y       z     vdW  Elec       q    Type
REMARK                         _______ _______ _______ _____ _____    ______ ____
ROOT
ATOM      1  C   UNL     1      45.409   6.213  11.696  0.00  0.00    +0.000 C 
ATOM      2  C   UNL     1      44.827   7.583  11.385  0.00  0.00    +0.000 C 
ATOM      3  C   UNL     1      44.351   6.853  12.594  0.00  0.00    +0.000 C 
ENDROOT
BRANCH   1   4
ATOM      4  C   UNL     1      44.891   4.964  10.967  0.00  0.00    +0.000 A 
ATOM      5  C   UNL     1      45.516   4.561   9.776  0.00  0.00    +0.000 A 
ATOM      6  C   UNL     1      45.254   3.307   9.208  0.00  0.00    +0.000 A 
ATOM      7  C   UNL     1      44.290   2.522   9.844  0.00  0.00    +0.000 A 
ATOM      8  C   UNL     1      43.664   3.003  10.983  0.00  0.00    +0.000 A 
ATOM      9  N   UNL     1      43.946   4.191  11.555  0.00  0.00    +0.000 NA
BRANCH   6  10
ATOM     10  C   UNL     1      46.017   2.811   8.043  0.00  0.00    +0.000 A 
ATOM     11  C   UNL     1      46.301   3.634   6.940  0.00  0.00    +0.000 A 
ATOM     12  C   UNL     1      47.005   3.143   5.843  0.00  0.00    +0.000 A 
ATOM     13  C   UNL     1      47.410   1.821   5.861  0.00  0.00    +0.000 A 
ATOM     14  N   UNL     1      47.158   0.980   6.884  0.00  0.00    +0.000 NA
ATOM     15  C   UNL     1      46.476   1.494   7.941  0.00  0.00    +0.000 A 
ENDBRANCH   6  10
ENDBRANCH   1   4
BRANCH   1  16
ATOM     16  N   UNL     1      46.803   6.128  12.179  0.00  0.00    +0.000 N 
ATOM     17  H   UNL     1      47.551   6.281  11.510  0.00  0.00    +0.000 HD
BRANCH  16  21
ATOM     18  C   UNL     1      47.872   4.335  15.751  0.00  0.00    +0.000 A 
ATOM     19  N   UNL     1      47.159   3.585  14.891  0.00  0.00    +0.000 NA
ATOM     20  C   UNL     1      46.817   4.188  13.725  0.00  0.00    +0.000 A 
ATOM     21  C   UNL     1      47.187   5.472  13.359  0.00  0.00    +0.000 A 
ATOM     22  C   UNL     1      47.894   6.135  14.350  0.00  0.00    +0.000 A 
ATOM     23  N   UNL     1      48.262   5.604  15.539  0.00  0.00    +0.000 NA
BRANCH  18  25
ATOM     24  N   UNL     1      48.548   3.252  18.028  0.00  0.00    +0.000 NA
ATOM     25  C   UNL     1      48.248   3.733  17.008  0.00  0.00    +0.000 C 
ENDBRANCH  18  25
ENDBRANCH  16  21
ENDBRANCH   1  16
TORSDOF 5
ENDMDL
MODEL 5
REMARK VINA RESULT:    -7.230      1.959      6.923
REMARK INTER + INTRA:          -9.902
REMARK INTER:                 -10.013
REMARK INTRA:                   0.111
REMARK UNBOUND:                -0.558
REMARK  Name = 
REMARK  5 active torsions:
REMARK  status: ('A' for Active; 'I' for Inactive)
REMARK    1  A    between atoms: C_2  and  C_3
REMARK    2  A    between atoms: C_6  and  N_7
REMARK    3  A    between atoms: N_7  and  C_8
REMARK    4  A    between atoms: C_8  and  C_9
REMARK    5  A    between atoms: C_11  and  C_12
REMARK                            x       y       z     vdW  Elec       q    Type
REMARK                         _______ _______ _______ _____ _____    ______ ____
ROOT
ATOM      1  C   UNL     1      46.296   7.494  12.059  0.00  0.00    +0.000 C 
ATOM      2  C   UNL     1      46.354   8.985  11.765  0.00  0.00    +0.000 C 
ATOM      3  C   UNL     1      45.566   8.509  12.937  0.00  0.00    +0.000 C 
ENDROOT
BRANCH   1   4
ATOM      4  C   UNL     1      45.334   6.585  11.279  0.00  0.00    +0.000 A 
ATOM      5  C   UNL     1      45.856   5.708  10.314  0.00  0.00    +0.000 A 
ATOM      6  C   UNL     1      45.069   4.691   9.757  0.00  0.00    +0.000 A 
ATOM      7  C   UNL     1      43.730   4.649  10.155  0.00  0.00    +0.000 A 
ATOM      8  C   UNL     1      43.261   5.582  11.065  0.00  0.00    +0.000 A 
ATOM      9  N   UNL     1      44.028   6.534  11.634  0.00  0.00    +0.000 NA
BRANCH   6  10
ATOM     10  C   UNL     1      45.647   3.670   8.859  0.00  0.00    +0.000 A 
ATOM     11  C   UNL     1      46.327   4.021   7.681  0.00  0.00    +0.000 A 
ATOM     12  C   UNL     1      46.847   3.044   6.836  0.00  0.00    +0.000 A 
ATOM     13  C   UNL     1      46.671   1.716   7.180  0.00  0.00    +0.000 A 
ATOM     14  N   UNL     1      46.019   1.317   8.290  0.00  0.00    +0.000 NA
ATOM     15  C   UNL     1      45.530   2.297   9.095  0.00  0.00    +0.000 A 
ENDBRANCH   6  10
ENDBRANCH   1   4
BRANCH   1  16
ATOM     16  N   UNL     1      47.506   6.828  12.586  0.00  0.00    +0.000 N 
ATOM     17  H   UNL     1      48.324   6.777  11.987  0.00  0.00    +0.000 HD
BRANCH  16  21
ATOM     18  C   UNL     1      47.457   4.300  15.861  0.00  0.00    +0.000 A 
ATOM     19  N   UNL     1      46.678   3.952  14.821  0.00  0.00    +0.000 NA
ATOM     20  C   UNL     1      46.706   4.790  13.755  0.00  0.00    +0.000 A 
ATOM     21  C   UNL     1      47.499   5.923  13.659  0.00  0.00    +0.000 A 
ATOM     22  C   UNL     1      48.227   6.173  14.813  0.00  0.00    +0.000 A 
ATOM     23  N   UNL     1      48.242   5.389  15.915  0.00  0.00    +0.000 NA
BRANCH  18  25
ATOM     24  N   UNL     1      47.446   2.736  17.951  0.00  0.00    +0.000 NA
ATOM     25  C   UNL     1      47.448   3.437  17.019  0.00  0.00    +0.000 C 
ENDBRANCH  18  25
ENDBRANCH  16  21
ENDBRANCH   1  16
TORSDOF 5
ENDMDL
MODEL 6
REMARK VINA RESULT:    -6.854      2.783      7.204
REMARK INTER + INTRA:          -9.415
REMARK INTER:                  -8.916
REMARK INTRA:                  -0.500
REMARK UNBOUND:                -0.558
REMARK  Name = 
REMARK  5 active torsions:
REMARK  status: ('A' for Active; 'I' for Inactive)
REMARK    1  A    between atoms: C_2  and  C_3
REMARK    2  A    between atoms: C_6  and  N_7
REMARK    3  A    between atoms: N_7  and  C_8
REMARK    4  A    between atoms: C_8  and  C_9
REMARK    5  A    between atoms: C_11  and  C_12
REMARK                            x       y       z     vdW  Elec       q    Type
REMARK                         _______ _______ _______ _____ _____    ______ ____
ROOT
ATOM      1  C   UNL     1      46.344   5.241  13.707  0.00  0.00    +0.000 C 
ATOM      2  C   UNL     1      47.614   5.890  13.181  0.00  0.00    +0.000 C 
ATOM      3  C   UNL     1      46.428   6.747  13.465  0.00  0.00    +0.000 C 
ENDROOT
BRANCH   1   4
ATOM      4  C   UNL     1      45.373   4.539  12.746  0.00  0.00    +0.000 A 
ATOM      5  C   UNL     1      45.743   4.376  11.401  0.00  0.00    +0.000 A 
ATOM      6  C   UNL     1      45.019   3.534  10.546  0.00  0.00    +0.000 A 
ATOM      7  C   UNL     1      43.876   2.934  11.081  0.00  0.00    +0.000 A 
ATOM      8  C   UNL     1      43.530   3.184  12.399  0.00  0.00    +0.000 A 
ATOM      9  N   UNL     1      44.250   3.960  13.235  0.00  0.00    +0.000 NA
BRANCH   6  10
ATOM     10  C   UNL     1      45.486   3.234   9.176  0.00  0.00    +0.000 A 
ATOM     11  C   UNL     1      45.741   1.919   8.753  0.00  0.00    +0.000 A 
ATOM     12  C   UNL     1      46.200   1.658   7.464  0.00  0.00    +0.000 A 
ATOM     13  C   UNL     1      46.408   2.727   6.612  0.00  0.00    +0.000 A 
ATOM     14  N   UNL     1      46.192   4.010   6.963  0.00  0.00    +0.000 NA
ATOM     15  C   UNL     1      45.738   4.228   8.226  0.00  0.00    +0.000 A 
ENDBRANCH   6  10
ENDBRANCH   1   4
BRANCH   1  16
ATOM     16  N   UNL     1      46.329   4.737  15.097  0.00  0.00    +0.000 N 
ATOM     17  H   UNL     1      45.637   5.115  15.736  0.00  0.00    +0.000 HD
BRANCH  16  21
ATOM     18  C   UNL     1      49.594   2.802  16.744  0.00  0.00    +0.000 A 
ATOM     19  N   UNL     1      49.376   4.066  17.149  0.00  0.00    +0.000 NA
ATOM     20  C   UNL     1      48.302   4.686  16.600  0.00  0.00    +0.000 A 
ATOM     21  C   UNL     1      47.417   4.097  15.711  0.00  0.00    +0.000 A 
ATOM     22  C   UNL     1      47.779   2.805  15.363  0.00  0.00    +0.000 A 
ATOM     23  N   UNL     1      48.839   2.127  15.860  0.00  0.00    +0.000 NA
BRANCH  18  25
ATOM     24  N   UNL     1      51.656   1.548  17.740  0.00  0.00    +0.000 NA
ATOM     25  C   UNL     1      50.734   2.110  17.299  0.00  0.00    +0.000 C 
ENDBRANCH  18  25
ENDBRANCH  16  21
ENDBRANCH   1  16
TORSDOF 5
ENDMDL
MODEL 7
REMARK VINA RESULT:    -6.612      2.079      6.848
REMARK INTER + INTRA:          -9.103
REMARK INTER:                  -8.537
REMARK INTRA:                  -0.566
REMARK UNBOUND:                -0.558
REMARK  Name = 
REMARK  5 active torsions:
REMARK  status: ('A' for Active; 'I' for Inactive)
REMARK    1  A    between atoms: C_2  and  C_3
REMARK    2  A    between atoms: C_6  and  N_7
REMARK    3  A    between atoms: N_7  and  C_8
REMARK    4  A    between atoms: C_8  and  C_9
REMARK    5  A    between atoms: C_11  and  C_12
REMARK                            x       y       z     vdW  Elec       q    Type
REMARK                         _______ _______ _______ _____ _____    ______ ____
ROOT
ATOM      1  C   UNL     1      44.657   6.472  11.766  0.00  0.00    +0.000 C 
ATOM      2  C   UNL     1      44.875   7.664  10.846  0.00  0.00    +0.000 C 
ATOM      3  C   UNL     1      43.551   7.495  11.511  0.00  0.00    +0.000 C 
ENDROOT
BRANCH   1   4
ATOM      4  C   UNL     1      44.332   5.089  11.182  0.00  0.00    +0.000 A 
ATOM      5  C   UNL     1      44.989   4.669  10.014  0.00  0.00    +0.000 A 
ATOM      6  C   UNL     1      44.920   3.338   9.582  0.00  0.00    +0.000 A 
ATOM      7  C   UNL     1      44.108   2.480  10.328  0.00  0.00    +0.000 A 
ATOM      8  C   UNL     1      43.438   2.971  11.436  0.00  0.00    +0.000 A 
ATOM      9  N   UNL     1      43.536   4.241  11.877  0.00  0.00    +0.000 NA
BRANCH   6  10
ATOM     10  C   UNL     1      45.729   2.851   8.445  0.00  0.00    +0.000 A 
ATOM     11  C   UNL     1      46.123   3.703   7.399  0.00  0.00    +0.000 A 
ATOM     12  C   UNL     1      46.868   3.222   6.325  0.00  0.00    +0.000 A 
ATOM     13  C   UNL     1      47.205   1.881   6.308  0.00  0.00    +0.000 A 
ATOM     14  N   UNL     1      46.848   1.013   7.275  0.00  0.00    +0.000 NA
ATOM     15  C   UNL     1      46.127   1.518   8.312  0.00  0.00    +0.000 A 
ENDBRANCH   6  10
ENDBRANCH   1   4
BRANCH   1  16
ATOM     16  N   UNL     1      45.333   6.459  13.080  0.00  0.00    +0.000 N 
ATOM     17  H   UNL     1      44.757   6.410  13.915  0.00  0.00    +0.000 HD
BRANCH  16  21
ATOM     18  C   UNL     1      49.249   7.714  13.541  0.00  0.00    +0.000 A 
ATOM     19  N   UNL     1      48.291   8.620  13.807  0.00  0.00    +0.000 NA
ATOM     20  C   UNL     1      47.013   8.193  13.652  0.00  0.00    +0.000 A 
ATOM     21  C   UNL     1      46.647   6.906  13.292  0.00  0.00    +0.000 A 
ATOM     22  C   UNL     1      47.735   6.089  13.024  0.00  0.00    +0.000 A 
ATOM     23  N   UNL     1      49.033   6.447  13.147  0.00  0.00    +0.000 NA
BRANCH  18  25
ATOM     24  N   UNL     1      51.731   8.478  13.805  0.00  0.00    +0.000 NA
ATOM     25  C   UNL     1      50.623   8.133  13.686  0.00  0.00    +0.000 C 
ENDBRANCH  18  25
ENDBRANCH  16  21
ENDBRANCH   1  16
TORSDOF 5
ENDMDL
MODEL 8
REMARK VINA RESULT:    -6.269      2.474      7.381
REMARK INTER + INTRA:          -8.660
REMARK INTER:                  -8.114
REMARK INTRA:                  -0.546
REMARK UNBOUND:                -0.558
REMARK  Name = 
REMARK  5 active torsions:
REMARK  status: ('A' for Active; 'I' for Inactive)
REMARK    1  A    between atoms: C_2  and  C_3
REMARK    2  A    between atoms: C_6  and  N_7
REMARK    3  A    between atoms: N_7  and  C_8
REMARK    4  A    between atoms: C_8  and  C_9
REMARK    5  A    between atoms: C_11  and  C_12
REMARK                            x       y       z     vdW  Elec       q    Type
REMARK                         _______ _______ _______ _____ _____    ______ ____
ROOT
ATOM      1  C   UNL     1      48.582   7.968  12.588  0.00  0.00    +0.000 C 
ATOM      2  C   UNL     1      49.762   7.448  11.782  0.00  0.00    +0.000 C 
ATOM      3  C   UNL     1      49.411   8.895  11.701  0.00  0.00    +0.000 C 
ENDROOT
BRANCH   1   4
ATOM      4  C   UNL     1      47.146   7.782  12.073  0.00  0.00    +0.000 A 
ATOM      5  C   UNL     1      46.841   6.652  11.297  0.00  0.00    +0.000 A 
ATOM      6  C   UNL     1      45.513   6.304  11.014  0.00  0.00    +0.000 A 
ATOM      7  C   UNL     1      44.526   7.178  11.476  0.00  0.00    +0.000 A 
ATOM      8  C   UNL     1      44.897   8.310  12.185  0.00  0.00    +0.000 A 
ATOM      9  N   UNL     1      46.171   8.623  12.494  0.00  0.00    +0.000 NA
BRANCH   6  10
ATOM     10  C   UNL     1      45.174   5.038  10.332  0.00  0.00    +0.000 A 
ATOM     11  C   UNL     1      45.583   4.776   9.013  0.00  0.00    +0.000 A 
ATOM     12  C   UNL     1      45.236   3.585   8.379  0.00  0.00    +0.000 A 
ATOM     13  C   UNL     1      44.472   2.668   9.077  0.00  0.00    +0.000 A 
ATOM     14  N   UNL     1      44.040   2.867  10.339  0.00  0.00    +0.000 NA
ATOM     15  C   UNL     1      44.403   4.037  10.929  0.00  0.00    +0.000 A 
ENDBRANCH   6  10
ENDBRANCH   1   4
BRANCH   1  16
ATOM     16  N   UNL     1      48.716   8.070  14.056  0.00  0.00    +0.000 N 
ATOM     17  H   UNL     1      49.167   8.894  14.440  0.00  0.00    +0.000 HD
BRANCH  16  21
ATOM     18  C   UNL     1      48.452   4.947  16.758  0.00  0.00    +0.000 A 
ATOM     19  N   UNL     1      47.851   4.766  15.568  0.00  0.00    +0.000 NA
ATOM     20  C   UNL     1      47.947   5.798  14.694  0.00  0.00    +0.000 A 
ATOM     21  C   UNL     1      48.645   6.972  14.929  0.00  0.00    +0.000 A 
ATOM     22  C   UNL     1      49.190   7.032  16.203  0.00  0.00    +0.000 A 
ATOM     23  N   UNL     1      49.126   6.049  17.130  0.00  0.00    +0.000 NA
BRANCH  18  25
ATOM     24  N   UNL     1      48.294   3.002  18.493  0.00  0.00    +0.000 NA
ATOM     25  C   UNL     1      48.364   3.874  17.721  0.00  0.00    +0.000 C 
ENDBRANCH  18  25
ENDBRANCH  16  21
ENDBRANCH   1  16
TORSDOF 5
ENDMDL
MODEL 9
REMARK VINA RESULT:    -6.131      3.552      7.604
REMARK INTER + INTRA:          -8.482
REMARK INTER:                  -8.065
REMARK INTRA:                  -0.417
REMARK UNBOUND:                -0.558
REMARK  Name = 
REMARK  5 active torsions:
REMARK  status: ('A' for Active; 'I' for Inactive)
REMARK    1  A    between atoms: C_2  and  C_3
REMARK    2  A    between atoms: C_6  and  N_7
REMARK    3  A    between atoms: N_7  and  C_8
REMARK    4  A    between atoms: C_8  and  C_9
REMARK    5  A    between atoms: C_11  and  C_12
REMARK                            x       y       z     vdW  Elec       q    Type
REMARK                         _______ _______ _______ _____ _____    ______ ____
ROOT
ATOM      1  C   UNL     1      48.643   7.719  15.557  0.00  0.00    +0.000 C 
ATOM      2  C   UNL     1      49.769   8.686  15.887  0.00  0.00    +0.000 C 
ATOM      3  C   UNL     1      48.371   9.198  15.824  0.00  0.00    +0.000 C 
ENDROOT
BRANCH   1   4
ATOM      4  C   UNL     1      48.364   7.317  14.101  0.00  0.00    +0.000 A 
ATOM      5  C   UNL     1      47.318   6.421  13.828  0.00  0.00    +0.000 A 
ATOM      6  C   UNL     1      46.862   6.216  12.519  0.00  0.00    +0.000 A 
ATOM      7  C   UNL     1      47.550   6.887  11.505  0.00  0.00    +0.000 A 
ATOM      8  C   UNL     1      48.614   7.710  11.835  0.00  0.00    +0.000 A 
ATOM      9  N   UNL     1      49.027   7.942  13.097  0.00  0.00    +0.000 NA
BRANCH   6  10
ATOM     10  C   UNL     1      45.664   5.396  12.237  0.00  0.00    +0.000 A 
ATOM     11  C   UNL     1      45.063   5.379  10.967  0.00  0.00    +0.000 A 
ATOM     12  C   UNL     1      43.923   4.615  10.725  0.00  0.00    +0.000 A 
ATOM     13  C   UNL     1      43.392   3.880  11.769  0.00  0.00    +0.000 A 
ATOM     14  N   UNL     1      43.917   3.865  13.010  0.00  0.00    +0.000 NA
ATOM     15  C   UNL     1      45.032   4.615  13.209  0.00  0.00    +0.000 A 
ENDBRANCH   6  10
ENDBRANCH   1   4
BRANCH   1  16
ATOM     16  N   UNL     1      48.245   6.721  16.573  0.00  0.00    +0.000 N 
ATOM     17  H   UNL     1      47.633   7.021  17.325  0.00  0.00    +0.000 HD
BRANCH  16  21
ATOM     18  C   UNL     1      50.232   3.137  17.141  0.00  0.00    +0.000 A 
ATOM     19  N   UNL     1      50.974   4.256  17.225  0.00  0.00    +0.000 NA
ATOM     20  C   UNL     1      50.308   5.422  17.037  0.00  0.00    +0.000 A 
ATOM     21  C   UNL     1      48.944   5.528  16.817  0.00  0.00    +0.000 A 
ATOM     22  C   UNL     1      48.313   4.296  16.728  0.00  0.00    +0.000 A 
ATOM     23  N   UNL     1      48.912   3.095  16.894  0.00  0.00    +0.000 NA
BRANCH  18  25
ATOM     24  N   UNL     1      51.457   0.855  17.471  0.00  0.00    +0.000 NA
ATOM     25  C   UNL     1      50.907   1.873  17.326  0.00  0.00    +0.000 C 
ENDBRANCH  18  25
ENDBRANCH  16  21
ENDBRANCH   1  16
TORSDOF 5
ENDMDL
