MODEL 1
REMARK VINA RESULT:    -8.466      0.000      0.000
REMARK INTER + INTRA:         -10.337
REMARK INTER:                  -9.951
REMARK INTRA:                  -0.386
REMARK UNBOUND:                -0.386
REMARK  Name = 
REMARK  3 active torsions:
REMARK  status: ('A' for Active; 'I' for Inactive)
REMARK    1  A    between atoms: C_2  and  C_4
REMARK    2  A    between atoms: N_8  and  C_9
REMARK    3  A    between atoms: C_9  and  C_10
REMARK                            x       y       z     vdW  Elec       q    Type
REMARK                         _______ _______ _______ _____ _____    ______ ____
ROOT
ATOM      1  C   UNL     1      46.519   2.738   7.480  0.00  0.00    +0.000 A 
ATOM      2  C   UNL     1      46.149   4.068   7.636  0.00  0.00    +0.000 A 
ATOM      3  C   UNL     1      45.292   4.421   8.678  0.00  0.00    +0.000 A 
ATOM      4  C   UNL     1      44.828   3.446   9.551  0.00  0.00    +0.000 A 
ATOM      5  N   UNL     1      43.901   3.710  10.562  0.00  0.00    +0.000 N 
ATOM      6  N   UNL     1      45.181   2.152   9.405  0.00  0.00    +0.000 NA
ATOM      7  C   UNL     1      46.004   1.813   8.375  0.00  0.00    +0.000 A 
ATOM      8  H   UNL     1      43.783   2.830  11.061  0.00  0.00    +0.000 HD
ENDROOT
BRANCH   1  10
ATOM      9  N   UNL     1      47.267   3.007   5.191  0.00  0.00    +0.000 N 
ATOM     10  C   UNL     1      47.369   2.296   6.354  0.00  0.00    +0.000 C 
ATOM     11  O   UNL     1      48.128   1.342   6.457  0.00  0.00    +0.000 OA
ATOM     12  H   UNL     1      47.867   2.735   4.424  0.00  0.00    +0.000 HD
ATOM     13  H   UNL     1      46.826   3.916   5.140  0.00  0.00    +0.000 HD
ENDBRANCH   1  10
BRANCH   5  14
ATOM     14  C   UNL     1      43.846   4.933  11.387  0.00  0.00    +0.000 C 
ATOM     15  C   UNL     1      42.687   4.932  12.381  0.00  0.00    +0.000 C 
ATOM     16  C   UNL     1      42.742   5.974  11.316  0.00  0.00    +0.000 C 
BRANCH  14  17
ATOM     17  C   UNL     1      45.216   5.410  11.846  0.00  0.00    +0.000 A 
ATOM     18  C   UNL     1      45.805   6.590  11.367  0.00  0.00    +0.000 A 
ATOM     19  C   UNL     1      47.008   7.050  11.899  0.00  0.00    +0.000 A 
ATOM     20  C   UNL     1      47.606   6.298  12.892  0.00  0.00    +0.000 A 
ATOM     21 CL   UNL     1      49.043   6.834  13.658  0.00  0.00    +0.000 Cl
ATOM     22  N   UNL     1      47.117   5.135  13.362  0.00  0.00    +0.000 NA
ATOM     23  C   UNL     1      45.939   4.729  12.830  0.00  0.00    +0.000 A 
ENDBRANCH  14  17
ENDBRANCH   5  14
TORSDOF 3
ENDMDL
MODEL 2
REMARK VINA RESULT:    -7.226      3.571      6.600
REMARK INTER + INTRA:          -8.878
REMARK INTER:                  -8.556
REMARK INTRA:                  -0.322
REMARK UNBOUND:                -0.386
REMARK  Name = 
REMARK  3 active torsions:
REMARK  status: ('A' for Active; 'I' for Inactive)
REMARK    1  A    between atoms: C_2  and  C_4
REMARK    2  A    between atoms: N_8  and  C_9
REMARK    3  A    between atoms: C_9  and  C_10
REMARK                            x       y       z     vdW  Elec       q    Type
REMARK                         _______ _______ _______ _____ _____    ______ ____
ROOT
ATOM      1  C   UNL     1      47.913   6.137  14.549  0.00  0.00    +0.000 A 
ATOM      2  C   UNL     1      47.089   5.027  14.685  0.00  0.00    +0.000 A 
ATOM      3  C   UNL     1      46.113   4.778  13.720  0.00  0.00    +0.000 A 
ATOM      4  C   UNL     1      45.982   5.633  12.634  0.00  0.00    +0.000 A 
ATOM      5  N   UNL     1      44.973   5.498  11.678  0.00  0.00    +0.000 N 
ATOM      6  N   UNL     1      46.776   6.715  12.496  0.00  0.00    +0.000 NA
ATOM      7  C   UNL     1      47.716   6.960  13.451  0.00  0.00    +0.000 A 
ATOM      8  H   UNL     1      45.149   6.228  10.990  0.00  0.00    +0.000 HD
ENDROOT
BRANCH   1  10
ATOM      9  N   UNL     1      48.460   6.667  16.850  0.00  0.00    +0.000 N 
ATOM     10  C   UNL     1      48.919   6.487  15.574  0.00  0.00    +0.000 C 
ATOM     11  O   UNL     1      50.104   6.610  15.298  0.00  0.00    +0.000 OA
ATOM     12  H   UNL     1      49.143   6.874  17.566  0.00  0.00    +0.000 HD
ATOM     13  H   UNL     1      47.543   6.362  17.151  0.00  0.00    +0.000 HD
ENDBRANCH   1  10
BRANCH   5  14
ATOM     14  C   UNL     1      44.448   4.223  11.150  0.00  0.00    +0.000 C 
ATOM     15  C   UNL     1      42.933   4.097  11.290  0.00  0.00    +0.000 C 
ATOM     16  C   UNL     1      43.821   3.130  11.996  0.00  0.00    +0.000 C 
BRANCH  14  17
ATOM     17  C   UNL     1      45.109   3.795   9.848  0.00  0.00    +0.000 A 
ATOM     18  C   UNL     1      45.223   2.450   9.466  0.00  0.00    +0.000 A 
ATOM     19  C   UNL     1      45.732   2.108   8.214  0.00  0.00    +0.000 A 
ATOM     20  C   UNL     1      46.136   3.132   7.378  0.00  0.00    +0.000 A 
ATOM     21 CL   UNL     1      46.696   2.804   5.791  0.00  0.00    +0.000 Cl
ATOM     22  N   UNL     1      46.097   4.438   7.703  0.00  0.00    +0.000 NA
ATOM     23  C   UNL     1      45.583   4.730   8.922  0.00  0.00    +0.000 A 
ENDBRANCH  14  17
ENDBRANCH   5  14
TORSDOF 3
ENDMDL
MODEL 3
REMARK VINA RESULT:    -6.771      3.500      6.308
REMARK INTER + INTRA:          -8.344
REMARK INTER:                  -8.613
REMARK INTRA:                   0.270
REMARK UNBOUND:                -0.386
REMARK  Name = 
REMARK  3 active torsions:
REMARK  status: ('A' for Active; 'I' for Inactive)
REMARK    1  A    between atoms: C_2  and  C_4
REMARK    2  A    between atoms: N_8  and  C_9
REMARK    3  A    between atoms: C_9  and  C_10
REMARK                            x       y       z     vdW  Elec       q    Type
REMARK                         _______ _______ _______ _____ _____    ______ ____
ROOT
ATOM      1  C   UNL     1      47.865   5.990  14.426  0.00  0.00    +0.000 A 
ATOM      2  C   UNL     1      47.445   6.240  13.126  0.00  0.00    +0.000 A 
ATOM      3  C   UNL     1      46.658   5.295  12.468  0.00  0.00    +0.000 A 
ATOM      4  C   UNL     1      46.296   4.123  13.121  0.00  0.00    +0.000 A 
ATOM      5  N   UNL     1      45.587   3.095  12.497  0.00  0.00    +0.000 N 
ATOM      6  N   UNL     1      46.702   3.872  14.382  0.00  0.00    +0.000 NA
ATOM      7  C   UNL     1      47.483   4.792  15.012  0.00  0.00    +0.000 A 
ATOM      8  H   UNL     1      45.430   2.394  13.220  0.00  0.00    +0.000 HD
ENDROOT
BRANCH   1  10
ATOM      9  N   UNL     1      48.204   8.112  15.547  0.00  0.00    +0.000 N 
ATOM     10  C   UNL     1      48.754   6.924  15.148  0.00  0.00    +0.000 C 
ATOM     11  O   UNL     1      49.924   6.651  15.379  0.00  0.00    +0.000 OA
ATOM     12  H   UNL     1      48.793   8.745  16.070  0.00  0.00    +0.000 HD
ATOM     13  H   UNL     1      47.206   8.274  15.569  0.00  0.00    +0.000 HD
ENDBRANCH   1  10
BRANCH   5  14
ATOM     14  C   UNL     1      44.496   3.267  11.517  0.00  0.00    +0.000 C 
ATOM     15  C   UNL     1      43.440   4.273  11.968  0.00  0.00    +0.000 C 
ATOM     16  C   UNL     1      43.054   2.850  11.745  0.00  0.00    +0.000 C 
BRANCH  14  17
ATOM     17  C   UNL     1      44.984   3.302  10.076  0.00  0.00    +0.000 A 
ATOM     18  C   UNL     1      45.263   4.500   9.402  0.00  0.00    +0.000 A 
ATOM     19  C   UNL     1      45.818   4.483   8.123  0.00  0.00    +0.000 A 
ATOM     20  C   UNL     1      46.062   3.254   7.539  0.00  0.00    +0.000 A 
ATOM     21 CL   UNL     1      46.817   3.142   6.005  0.00  0.00    +0.000 Cl
ATOM     22  N   UNL     1      45.773   2.071   8.114  0.00  0.00    +0.000 NA
ATOM     23  C   UNL     1      45.250   2.129   9.362  0.00  0.00    +0.000 A 
ENDBRANCH  14  17
ENDBRANCH   5  14
TORSDOF 3
ENDMDL
MODEL 4
REMARK VINA RESULT:    -6.430      3.530      6.319
REMARK INTER + INTRA:          -7.944
REMARK INTER:                  -7.681
REMARK INTRA:                  -0.263
REMARK UNBOUND:                -0.386
REMARK  Name = 
REMARK  3 active torsions:
REMARK  status: ('A' for Active; 'I' for Inactive)
REMARK    1  A    between atoms: C_2  and  C_4
REMARK    2  A    between atoms: N_8  and  C_9
REMARK    3  A    between atoms: C_9  and  C_10
REMARK                            x       y       z     vdW  Elec       q    Type
REMARK                         _______ _______ _______ _____ _____    ______ ____
ROOT
ATOM      1  C   UNL     1      47.537   7.508  13.243  0.00  0.00    +0.000 A 
ATOM      2  C   UNL     1      47.263   6.212  13.662  0.00  0.00    +0.000 A 
ATOM      3  C   UNL     1      46.274   5.477  13.008  0.00  0.00    +0.000 A 
ATOM      4  C   UNL     1      45.585   6.041  11.943  0.00  0.00    +0.000 A 
ATOM      5  N   UNL     1      44.525   5.400  11.299  0.00  0.00    +0.000 N 
ATOM      6  N   UNL     1      45.843   7.300  11.531  0.00  0.00    +0.000 NA
ATOM      7  C   UNL     1      46.798   8.017  12.186  0.00  0.00    +0.000 A 
ATOM      8  H   UNL     1      44.247   6.024  10.543  0.00  0.00    +0.000 HD
ENDROOT
BRANCH   1  10
ATOM      9  N   UNL     1      48.178   9.664  14.144  0.00  0.00    +0.000 N 
ATOM     10  C   UNL     1      48.526   8.357  13.940  0.00  0.00    +0.000 C 
ATOM     11  O   UNL     1      49.602   7.915  14.318  0.00  0.00    +0.000 OA
ATOM     12  H   UNL     1      48.832  10.246  14.649  0.00  0.00    +0.000 HD
ATOM     13  H   UNL     1      47.229  10.001  14.047  0.00  0.00    +0.000 HD
ENDBRANCH   1  10
BRANCH   5  14
ATOM     14  C   UNL     1      44.436   3.954  11.011  0.00  0.00    +0.000 C 
ATOM     15  C   UNL     1      43.087   3.351  11.394  0.00  0.00    +0.000 C 
ATOM     16  C   UNL     1      44.327   2.868  12.066  0.00  0.00    +0.000 C 
BRANCH  14  17
ATOM     17  C   UNL     1      45.071   3.566   9.684  0.00  0.00    +0.000 A 
ATOM     18  C   UNL     1      45.509   4.517   8.750  0.00  0.00    +0.000 A 
ATOM     19  C   UNL     1      46.189   4.121   7.599  0.00  0.00    +0.000 A 
ATOM     20  C   UNL     1      46.397   2.768   7.403  0.00  0.00    +0.000 A 
ATOM     21 CL   UNL     1      47.296   2.201   6.058  0.00  0.00    +0.000 Cl
ATOM     22  N   UNL     1      45.961   1.805   8.237  0.00  0.00    +0.000 NA
ATOM     23  C   UNL     1      45.318   2.231   9.350  0.00  0.00    +0.000 A 
ENDBRANCH  14  17
ENDBRANCH   5  14
TORSDOF 3
ENDMDL
MODEL 5
REMARK VINA RESULT:    -5.782      3.122      5.285
REMARK INTER + INTRA:          -7.181
REMARK INTER:                  -7.107
REMARK INTRA:                  -0.074
REMARK UNBOUND:                -0.386
REMARK  Name = 
REMARK  3 active torsions:
REMARK  status: ('A' for Active; 'I' for Inactive)
REMARK    1  A    between atoms: C_2  and  C_4
REMARK    2  A    between atoms: N_8  and  C_9
REMARK    3  A    between atoms: C_9  and  C_10
REMARK                            x       y       z     vdW  Elec       q    Type
REMARK                         _______ _______ _______ _____ _____    ______ ____
ROOT
ATOM      1  C   UNL     1      44.859   4.952  11.039  0.00  0.00    +0.000 A 
ATOM      2  C   UNL     1      45.856   5.785  10.549  0.00  0.00    +0.000 A 
ATOM      3  C   UNL     1      46.523   6.641  11.424  0.00  0.00    +0.000 A 
ATOM      4  C   UNL     1      46.192   6.646  12.772  0.00  0.00    +0.000 A 
ATOM      5  N   UNL     1      46.754   7.536  13.690  0.00  0.00    +0.000 N 
ATOM      6  N   UNL     1      45.223   5.842  13.257  0.00  0.00    +0.000 NA
ATOM      7  C   UNL     1      44.565   5.020  12.393  0.00  0.00    +0.000 A 
ATOM      8  H   UNL     1      46.360   7.281  14.594  0.00  0.00    +0.000 HD
ENDROOT
BRANCH   1  10
ATOM      9  N   UNL     1      44.113   4.359   8.811  0.00  0.00    +0.000 N 
ATOM     10  C   UNL     1      44.073   4.072  10.148  0.00  0.00    +0.000 C 
ATOM     11  O   UNL     1      43.420   3.133  10.582  0.00  0.00    +0.000 OA
ATOM     12  H   UNL     1      43.606   3.745   8.188  0.00  0.00    +0.000 HD
ATOM     13  H   UNL     1      44.803   4.976   8.402  0.00  0.00    +0.000 HD
ENDBRANCH   1  10
BRANCH   5  14
ATOM     14  C   UNL     1      48.157   7.995  13.701  0.00  0.00    +0.000 C 
ATOM     15  C   UNL     1      48.291   9.512  13.603  0.00  0.00    +0.000 C 
ATOM     16  C   UNL     1      48.861   8.652  12.527  0.00  0.00    +0.000 C 
BRANCH  14  17
ATOM     17  C   UNL     1      49.029   7.237  14.692  0.00  0.00    +0.000 A 
ATOM     18  C   UNL     1      50.369   7.574  14.931  0.00  0.00    +0.000 A 
ATOM     19  C   UNL     1      51.097   6.929  15.929  0.00  0.00    +0.000 A 
ATOM     20  C   UNL     1      50.462   5.939  16.656  0.00  0.00    +0.000 A 
ATOM     21 CL   UNL     1      51.257   5.153  17.956  0.00  0.00    +0.000 Cl
ATOM     22  N   UNL     1      49.195   5.538  16.445  0.00  0.00    +0.000 NA
ATOM     23  C   UNL     1      48.517   6.199  15.477  0.00  0.00    +0.000 A 
ENDBRANCH  14  17
ENDBRANCH   5  14
TORSDOF 3
ENDMDL
MODEL 6
REMARK VINA RESULT:    -5.690      2.168      2.667
REMARK INTER + INTRA:          -7.074
REMARK INTER:                  -7.348
REMARK INTRA:                   0.274
REMARK UNBOUND:                -0.386
REMARK  Name = 
REMARK  3 active torsions:
REMARK  status: ('A' for Active; 'I' for Inactive)
REMARK    1  A    between atoms: C_2  and  C_4
REMARK    2  A    between atoms: N_8  and  C_9
REMARK    3  A    between atoms: C_9  and  C_10
REMARK                            x       y       z     vdW  Elec       q    Type
REMARK                         _______ _______ _______ _____ _____    ______ ____
ROOT
ATOM      1  C   UNL     1      46.433   3.052   7.369  0.00  0.00    +0.000 A 
ATOM      2  C   UNL     1      46.428   4.249   8.073  0.00  0.00    +0.000 A 
ATOM      3  C   UNL     1      45.588   4.389   9.177  0.00  0.00    +0.000 A 
ATOM      4  C   UNL     1      44.776   3.332   9.565  0.00  0.00    +0.000 A 
ATOM      5  N   UNL     1      43.847   3.428  10.604  0.00  0.00    +0.000 N 
ATOM      6  N   UNL     1      44.773   2.167   8.886  0.00  0.00    +0.000 NA
ATOM      7  C   UNL     1      45.584   2.044   7.799  0.00  0.00    +0.000 A 
ATOM      8  H   UNL     1      43.435   2.501  10.689  0.00  0.00    +0.000 HD
ENDROOT
BRANCH   1  10
ATOM      9  N   UNL     1      48.566   2.540   6.340  0.00  0.00    +0.000 N 
ATOM     10  C   UNL     1      47.253   2.870   6.152  0.00  0.00    +0.000 C 
ATOM     11  O   UNL     1      46.781   3.007   5.032  0.00  0.00    +0.000 OA
ATOM     12  H   UNL     1      49.129   2.380   5.516  0.00  0.00    +0.000 HD
ATOM     13  H   UNL     1      48.928   2.208   7.225  0.00  0.00    +0.000 HD
ENDBRANCH   1  10
BRANCH   5  14
ATOM     14  C   UNL     1      44.036   4.170  11.867  0.00  0.00    +0.000 C 
ATOM     15  C   UNL     1      45.033   3.500  12.810  0.00  0.00    +0.000 C 
ATOM     16  C   UNL     1      43.614   3.667  13.236  0.00  0.00    +0.000 C 
BRANCH  14  17
ATOM     17  C   UNL     1      44.097   5.678  11.674  0.00  0.00    +0.000 A 
ATOM     18  C   UNL     1      45.266   6.421  11.895  0.00  0.00    +0.000 A 
ATOM     19  C   UNL     1      45.311   7.782  11.596  0.00  0.00    +0.000 A 
ATOM     20  C   UNL     1      44.164   8.372  11.097  0.00  0.00    +0.000 A 
ATOM     21 CL   UNL     1      44.156  10.021  10.626  0.00  0.00    +0.000 Cl
ATOM     22  N   UNL     1      42.999   7.726  10.908  0.00  0.00    +0.000 NA
ATOM     23  C   UNL     1      43.001   6.402  11.196  0.00  0.00    +0.000 A 
ENDBRANCH  14  17
ENDBRANCH   5  14
TORSDOF 3
ENDMDL
