MODEL 1
REMARK VINA RESULT:    -9.003      0.000      0.000
REMARK INTER + INTRA:         -12.446
REMARK INTER:                 -11.634
REMARK INTRA:                  -0.811
REMARK UNBOUND:                -0.811
REMARK  Name = 
REMARK  5 active torsions:
REMARK  status: ('A' for Active; 'I' for Inactive)
REMARK    1  A    between atoms: C_2  and  C_4
REMARK    2  A    between atoms: C_7  and  O_8
REMARK    3  A    between atoms: O_8  and  C_9
REMARK    4  A    between atoms: C_9  and  C_10
REMARK    5  A    between atoms: C_15  and  C_16
REMARK                            x       y       z     vdW  Elec       q    Type
REMARK                         _______ _______ _______ _____ _____    ______ ____
ROOT
ATOM      1  C   UNL     1      44.832   4.816  11.922  0.00  0.00    +0.000 A 
ATOM      2  C   UNL     1      45.451   3.924  12.802  0.00  0.00    +0.000 A 
ATOM      3  C   UNL     1      46.621   4.298  13.449  0.00  0.00    +0.000 A 
ATOM      4  F   UNL     1      47.209   3.439  14.292  0.00  0.00    +0.000 F 
ATOM      5  C   UNL     1      47.197   5.549  13.241  0.00  0.00    +0.000 A 
ATOM      6  C   UNL     1      46.618   6.466  12.348  0.00  0.00    +0.000 A 
ATOM      7  C   UNL     1      45.440   6.062  11.686  0.00  0.00    +0.000 A 
ENDROOT
BRANCH   6   8
ATOM      8  C   UNL     1      47.210   7.803  12.111  0.00  0.00    +0.000 A 
ATOM      9  C   UNL     1      46.471   8.982  12.283  0.00  0.00    +0.000 A 
ATOM     10  C   UNL     1      47.075  10.210  12.049  0.00  0.00    +0.000 A 
ATOM     11  N   UNL     1      48.357  10.356  11.666  0.00  0.00    +0.000 NA
ATOM     12  C   UNL     1      49.059   9.220  11.504  0.00  0.00    +0.000 A 
ATOM     13  F   UNL     1      50.342   9.331  11.130  0.00  0.00    +0.000 F 
ATOM     14  C   UNL     1      48.543   7.951  11.704  0.00  0.00    +0.000 A 
ENDBRANCH   6   8
BRANCH   1  15
ATOM     15  C   UNL     1      43.573   4.399  11.190  0.00  0.00    +0.000 C 
BRANCH  15  16
ATOM     16  O   UNL     1      43.668   4.737   9.802  0.00  0.00    +0.000 OA
BRANCH  16  20
ATOM     17  C   UNL     1      46.288   2.252   7.825  0.00  0.00    +0.000 A 
ATOM     18  C   UNL     1      45.372   1.711   8.729  0.00  0.00    +0.000 A 
ATOM     19  C   UNL     1      44.487   2.564   9.392  0.00  0.00    +0.000 A 
ATOM     20  C   UNL     1      44.551   3.924   9.123  0.00  0.00    +0.000 A 
ATOM     21  N   UNL     1      45.427   4.475   8.256  0.00  0.00    +0.000 NA
ATOM     22  C   UNL     1      46.283   3.628   7.635  0.00  0.00    +0.000 A 
BRANCH  17  24
ATOM     23  N   UNL     1      48.377   2.097   6.587  0.00  0.00    +0.000 N 
ATOM     24  C   UNL     1      47.283   1.448   7.084  0.00  0.00    +0.000 C 
ATOM     25  O   UNL     1      47.151   0.239   6.953  0.00  0.00    +0.000 OA
ATOM     26  H   UNL     1      49.095   1.510   6.179  0.00  0.00    +0.000 HD
ATOM     27  H   UNL     1      48.641   3.030   6.868  0.00  0.00    +0.000 HD
ENDBRANCH  17  24
ENDBRANCH  16  20
ENDBRANCH  15  16
ENDBRANCH   1  15
TORSDOF 5
ENDMDL
MODEL 2
REMARK VINA RESULT:    -8.771      2.616      4.312
REMARK INTER + INTRA:         -12.146
REMARK INTER:                 -11.523
REMARK INTRA:                  -0.623
REMARK UNBOUND:                -0.811
REMARK  Name = 
REMARK  5 active torsions:
REMARK  status: ('A' for Active; 'I' for Inactive)
REMARK    1  A    between atoms: C_2  and  C_4
REMARK    2  A    between atoms: C_7  and  O_8
REMARK    3  A    between atoms: O_8  and  C_9
REMARK    4  A    between atoms: C_9  and  C_10
REMARK    5  A    between atoms: C_15  and  C_16
REMARK                            x       y       z     vdW  Elec       q    Type
REMARK                         _______ _______ _______ _____ _____    ______ ____
ROOT
ATOM      1  C   UNL     1      45.462   5.061  12.230  0.00  0.00    +0.000 A 
ATOM      2  C   UNL     1      46.060   6.160  11.610  0.00  0.00    +0.000 A 
ATOM      3  C   UNL     1      47.107   6.820  12.240  0.00  0.00    +0.000 A 
ATOM      4  F   UNL     1      47.678   7.872  11.639  0.00  0.00    +0.000 F 
ATOM      5  C   UNL     1      47.577   6.409  13.485  0.00  0.00    +0.000 A 
ATOM      6  C   UNL     1      46.989   5.322  14.152  0.00  0.00    +0.000 A 
ATOM      7  C   UNL     1      45.915   4.676  13.505  0.00  0.00    +0.000 A 
ENDROOT
BRANCH   6   8
ATOM      8  C   UNL     1      47.473   4.865  15.476  0.00  0.00    +0.000 A 
ATOM      9  C   UNL     1      48.453   5.568  16.190  0.00  0.00    +0.000 A 
ATOM     10  C   UNL     1      48.870   5.096  17.427  0.00  0.00    +0.000 A 
ATOM     11  N   UNL     1      48.383   3.985  18.011  0.00  0.00    +0.000 NA
ATOM     12  C   UNL     1      47.442   3.317  17.319  0.00  0.00    +0.000 A 
ATOM     13  F   UNL     1      46.930   2.211  17.877  0.00  0.00    +0.000 F 
ATOM     14  C   UNL     1      46.969   3.703  16.077  0.00  0.00    +0.000 A 
ENDBRANCH   6   8
BRANCH   1  15
ATOM     15  C   UNL     1      44.299   4.359  11.559  0.00  0.00    +0.000 C 
BRANCH  15  16
ATOM     16  O   UNL     1      44.176   4.786  10.198  0.00  0.00    +0.000 OA
BRANCH  16  20
ATOM     17  C   UNL     1      46.457   2.464   7.679  0.00  0.00    +0.000 A 
ATOM     18  C   UNL     1      45.661   1.853   8.650  0.00  0.00    +0.000 A 
ATOM     19  C   UNL     1      44.890   2.651   9.496  0.00  0.00    +0.000 A 
ATOM     20  C   UNL     1      44.944   4.029   9.339  0.00  0.00    +0.000 A 
ATOM     21  N   UNL     1      45.705   4.647   8.411  0.00  0.00    +0.000 NA
ATOM     22  C   UNL     1      46.453   3.851   7.609  0.00  0.00    +0.000 A 
BRANCH  17  24
ATOM     23  N   UNL     1      48.349   2.405   6.149  0.00  0.00    +0.000 N 
ATOM     24  C   UNL     1      47.327   1.720   6.744  0.00  0.00    +0.000 C 
ATOM     25  O   UNL     1      47.164   0.525   6.537  0.00  0.00    +0.000 OA
ATOM     26  H   UNL     1      48.994   1.851   5.598  0.00  0.00    +0.000 HD
ATOM     27  H   UNL     1      48.662   3.312   6.463  0.00  0.00    +0.000 HD
ENDBRANCH  17  24
ENDBRANCH  16  20
ENDBRANCH  15  16
ENDBRANCH   1  15
TORSDOF 5
ENDMDL
MODEL 3
REMARK VINA RESULT:    -8.383      2.693      3.494
REMARK INTER + INTRA:         -11.645
REMARK INTER:                 -10.975
REMARK INTRA:                  -0.670
REMARK UNBOUND:                -0.811
REMARK  Name = 
REMARK  5 active torsions:
REMARK  status: ('A' for Active; 'I' for Inactive)
REMARK    1  A    between atoms: C_2  and  C_4
REMARK    2  A    between atoms: C_7  and  O_8
REMARK    3  A    between atoms: O_8  and  C_9
REMARK    4  A    between atoms: C_9  and  C_10
REMARK    5  A    between atoms: C_15  and  C_16
REMARK                            x       y       z     vdW  Elec       q    Type
REMARK                         _______ _______ _______ _____ _____    ______ ____
ROOT
ATOM      1  C   UNL     1      44.625   4.140  11.885  0.00  0.00    +0.000 A 
ATOM      2  C   UNL     1      44.113   5.343  11.392  0.00  0.00    +0.000 A 
ATOM      3  C   UNL     1      44.587   6.548  11.891  0.00  0.00    +0.000 A 
ATOM      4  F   UNL     1      44.093   7.698  11.413  0.00  0.00    +0.000 F 
ATOM      5  C   UNL     1      45.567   6.587  12.880  0.00  0.00    +0.000 A 
ATOM      6  C   UNL     1      46.093   5.401  13.418  0.00  0.00    +0.000 A 
ATOM      7  C   UNL     1      45.586   4.186  12.911  0.00  0.00    +0.000 A 
ENDROOT
BRANCH   6   8
ATOM      8  C   UNL     1      47.138   5.417  14.468  0.00  0.00    +0.000 A 
ATOM      9  C   UNL     1      47.177   4.457  15.489  0.00  0.00    +0.000 A 
ATOM     10  C   UNL     1      48.180   4.517  16.448  0.00  0.00    +0.000 A 
ATOM     11  N   UNL     1      49.149   5.451  16.465  0.00  0.00    +0.000 NA
ATOM     12  C   UNL     1      49.104   6.368  15.481  0.00  0.00    +0.000 A 
ATOM     13  F   UNL     1      50.060   7.308  15.465  0.00  0.00    +0.000 F 
ATOM     14  C   UNL     1      48.140   6.396  14.487  0.00  0.00    +0.000 A 
ENDBRANCH   6   8
BRANCH   1  15
ATOM     15  C   UNL     1      44.087   2.823  11.364  0.00  0.00    +0.000 C 
BRANCH  15  16
ATOM     16  O   UNL     1      43.625   2.971  10.017  0.00  0.00    +0.000 OA
BRANCH  16  20
ATOM     17  C   UNL     1      46.620   2.539   7.225  0.00  0.00    +0.000 A 
ATOM     18  C   UNL     1      45.943   3.755   7.330  0.00  0.00    +0.000 A 
ATOM     19  C   UNL     1      44.931   3.891   8.282  0.00  0.00    +0.000 A 
ATOM     20  C   UNL     1      44.636   2.804   9.094  0.00  0.00    +0.000 A 
ATOM     21  N   UNL     1      45.272   1.616   9.014  0.00  0.00    +0.000 NA
ATOM     22  C   UNL     1      46.242   1.507   8.074  0.00  0.00    +0.000 A 
BRANCH  17  24
ATOM     23  N   UNL     1      47.765   3.100   5.153  0.00  0.00    +0.000 N 
ATOM     24  C   UNL     1      47.691   2.277   6.241  0.00  0.00    +0.000 C 
ATOM     25  O   UNL     1      48.506   1.381   6.412  0.00  0.00    +0.000 OA
ATOM     26  H   UNL     1      48.570   2.969   4.551  0.00  0.00    +0.000 HD
ATOM     27  H   UNL     1      47.273   3.979   5.090  0.00  0.00    +0.000 HD
ENDBRANCH  17  24
ENDBRANCH  16  20
ENDBRANCH  15  16
ENDBRANCH   1  15
TORSDOF 5
ENDMDL
MODEL 4
REMARK VINA RESULT:    -7.959      2.179      2.959
REMARK INTER + INTRA:         -11.097
REMARK INTER:                 -10.331
REMARK INTRA:                  -0.766
REMARK UNBOUND:                -0.811
REMARK  Name = 
REMARK  5 active torsions:
REMARK  status: ('A' for Active; 'I' for Inactive)
REMARK    1  A    between atoms: C_2  and  C_4
REMARK    2  A    between atoms: C_7  and  O_8
REMARK    3  A    between atoms: O_8  and  C_9
REMARK    4  A    between atoms: C_9  and  C_10
REMARK    5  A    between atoms: C_15  and  C_16
REMARK                            x       y       z     vdW  Elec       q    Type
REMARK                         _______ _______ _______ _____ _____    ______ ____
ROOT
ATOM      1  C   UNL     1      45.132   5.988  11.686  0.00  0.00    +0.000 A 
ATOM      2  C   UNL     1      44.392   7.120  11.337  0.00  0.00    +0.000 A 
ATOM      3  C   UNL     1      44.905   8.384  11.595  0.00  0.00    +0.000 A 
ATOM      4  F   UNL     1      44.190   9.465  11.257  0.00  0.00    +0.000 F 
ATOM      5  C   UNL     1      46.148   8.551  12.200  0.00  0.00    +0.000 A 
ATOM      6  C   UNL     1      46.915   7.439  12.586  0.00  0.00    +0.000 A 
ATOM      7  C   UNL     1      46.370   6.164  12.332  0.00  0.00    +0.000 A 
ENDROOT
BRANCH   6   8
ATOM      8  C   UNL     1      48.242   7.592  13.228  0.00  0.00    +0.000 A 
ATOM      9  C   UNL     1      49.233   8.426  12.692  0.00  0.00    +0.000 A 
ATOM     10  C   UNL     1      50.459   8.534  13.335  0.00  0.00    +0.000 A 
ATOM     11  N   UNL     1      50.772   7.883  14.471  0.00  0.00    +0.000 NA
ATOM     12  C   UNL     1      49.815   7.085  14.978  0.00  0.00    +0.000 A 
ATOM     13  F   UNL     1      50.092   6.428  16.113  0.00  0.00    +0.000 F 
ATOM     14  C   UNL     1      48.567   6.906  14.406  0.00  0.00    +0.000 A 
ENDBRANCH   6   8
BRANCH   1  15
ATOM     15  C   UNL     1      44.562   4.608  11.434  0.00  0.00    +0.000 C 
BRANCH  15  16
ATOM     16  O   UNL     1      44.021   4.526  10.111  0.00  0.00    +0.000 OA
BRANCH  16  20
ATOM     17  C   UNL     1      46.623   2.691   7.501  0.00  0.00    +0.000 A 
ATOM     18  C   UNL     1      45.905   1.920   8.416  0.00  0.00    +0.000 A 
ATOM     19  C   UNL     1      45.023   2.553   9.295  0.00  0.00    +0.000 A 
ATOM     20  C   UNL     1      44.893   3.933   9.222  0.00  0.00    +0.000 A 
ATOM     21  N   UNL     1      45.576   4.705   8.349  0.00  0.00    +0.000 NA
ATOM     22  C   UNL     1      46.433   4.067   7.515  0.00  0.00    +0.000 A 
BRANCH  17  24
ATOM     23  N   UNL     1      47.940   2.901   5.465  0.00  0.00    +0.000 N 
ATOM     24  C   UNL     1      47.596   2.131   6.540  0.00  0.00    +0.000 C 
ATOM     25  O   UNL     1      48.104   1.032   6.719  0.00  0.00    +0.000 OA
ATOM     26  H   UNL     1      48.686   2.542   4.882  0.00  0.00    +0.000 HD
ATOM     27  H   UNL     1      47.732   3.887   5.404  0.00  0.00    +0.000 HD
ENDBRANCH  17  24
ENDBRANCH  16  20
ENDBRANCH  15  16
ENDBRANCH   1  15
TORSDOF 5
ENDMDL
MODEL 5
REMARK VINA RESULT:    -7.918      2.019      2.751
REMARK INTER + INTRA:         -11.044
REMARK INTER:                 -10.295
REMARK INTRA:                  -0.749
REMARK UNBOUND:                -0.811
REMARK  Name = 
REMARK  5 active torsions:
REMARK  status: ('A' for Active; 'I' for Inactive)
REMARK    1  A    between atoms: C_2  and  C_4
REMARK    2  A    between atoms: C_7  and  O_8
REMARK    3  A    between atoms: O_8  and  C_9
REMARK    4  A    between atoms: C_9  and  C_10
REMARK    5  A    between atoms: C_15  and  C_16
REMARK                            x       y       z     vdW  Elec       q    Type
REMARK                         _______ _______ _______ _____ _____    ______ ____
ROOT
ATOM      1  C   UNL     1      45.692   6.456  11.701  0.00  0.00    +0.000 A 
ATOM      2  C   UNL     1      44.856   7.557  11.902  0.00  0.00    +0.000 A 
ATOM      3  C   UNL     1      45.409   8.797  12.193  0.00  0.00    +0.000 A 
ATOM      4  F   UNL     1      44.602   9.848  12.384  0.00  0.00    +0.000 F 
ATOM      5  C   UNL     1      46.788   8.970  12.291  0.00  0.00    +0.000 A 
ATOM      6  C   UNL     1      47.662   7.885  12.117  0.00  0.00    +0.000 A 
ATOM      7  C   UNL     1      47.082   6.630  11.839  0.00  0.00    +0.000 A 
ENDROOT
BRANCH   6   8
ATOM      8  C   UNL     1      49.132   8.044  12.213  0.00  0.00    +0.000 A 
ATOM      9  C   UNL     1      49.760   8.429  13.406  0.00  0.00    +0.000 A 
ATOM     10  C   UNL     1      51.141   8.562  13.441  0.00  0.00    +0.000 A 
ATOM     11  N   UNL     1      51.946   8.336  12.386  0.00  0.00    +0.000 NA
ATOM     12  C   UNL     1      51.335   7.967  11.245  0.00  0.00    +0.000 A 
ATOM     13  F   UNL     1      52.109   7.726  10.177  0.00  0.00    +0.000 F 
ATOM     14  C   UNL     1      49.966   7.816  11.109  0.00  0.00    +0.000 A 
ENDBRANCH   6   8
BRANCH   1  15
ATOM     15  C   UNL     1      45.091   5.097  11.414  0.00  0.00    +0.000 C 
BRANCH  15  16
ATOM     16  O   UNL     1      44.513   5.073  10.104  0.00  0.00    +0.000 OA
BRANCH  16  20
ATOM     17  C   UNL     1      46.558   2.549   7.574  0.00  0.00    +0.000 A 
ATOM     18  C   UNL     1      45.723   2.015   8.557  0.00  0.00    +0.000 A 
ATOM     19  C   UNL     1      45.033   2.881   9.407  0.00  0.00    +0.000 A 
ATOM     20  C   UNL     1      45.203   4.248   9.240  0.00  0.00    +0.000 A 
ATOM     21  N   UNL     1      46.004   4.793   8.300  0.00  0.00    +0.000 NA
ATOM     22  C   UNL     1      46.672   3.931   7.496  0.00  0.00    +0.000 A 
BRANCH  17  24
ATOM     23  N   UNL     1      48.306   2.362   5.891  0.00  0.00    +0.000 N 
ATOM     24  C   UNL     1      47.350   1.728   6.635  0.00  0.00    +0.000 C 
ATOM     25  O   UNL     1      47.183   0.519   6.551  0.00  0.00    +0.000 OA
ATOM     26  H   UNL     1      48.906   1.764   5.336  0.00  0.00    +0.000 HD
ATOM     27  H   UNL     1      48.634   3.295   6.094  0.00  0.00    +0.000 HD
ENDBRANCH  17  24
ENDBRANCH  16  20
ENDBRANCH  15  16
ENDBRANCH   1  15
TORSDOF 5
ENDMDL
MODEL 6
REMARK VINA RESULT:    -7.746      3.176      6.950
REMARK INTER + INTRA:         -10.822
REMARK INTER:                  -9.996
REMARK INTRA:                  -0.825
REMARK UNBOUND:                -0.811
REMARK  Name = 
REMARK  5 active torsions:
REMARK  status: ('A' for Active; 'I' for Inactive)
REMARK    1  A    between atoms: C_2  and  C_4
REMARK    2  A    between atoms: C_7  and  O_8
REMARK    3  A    between atoms: O_8  and  C_9
REMARK    4  A    between atoms: C_9  and  C_10
REMARK    5  A    between atoms: C_15  and  C_16
REMARK                            x       y       z     vdW  Elec       q    Type
REMARK                         _______ _______ _______ _____ _____    ______ ____
ROOT
ATOM      1  C   UNL     1      44.494   5.255  10.786  0.00  0.00    +0.000 A 
ATOM      2  C   UNL     1      43.708   4.440  11.604  0.00  0.00    +0.000 A 
ATOM      3  C   UNL     1      43.617   3.080  11.337  0.00  0.00    +0.000 A 
ATOM      4  F   UNL     1      42.862   2.304  12.126  0.00  0.00    +0.000 F 
ATOM      5  C   UNL     1      44.295   2.506  10.264  0.00  0.00    +0.000 A 
ATOM      6  C   UNL     1      45.078   3.294   9.405  0.00  0.00    +0.000 A 
ATOM      7  C   UNL     1      45.144   4.675   9.681  0.00  0.00    +0.000 A 
ENDROOT
BRANCH   6   8
ATOM      8  C   UNL     1      45.811   2.706   8.259  0.00  0.00    +0.000 A 
ATOM      9  C   UNL     1      46.266   1.380   8.272  0.00  0.00    +0.000 A 
ATOM     10  C   UNL     1      46.946   0.878   7.171  0.00  0.00    +0.000 A 
ATOM     11  N   UNL     1      47.203   1.590   6.057  0.00  0.00    +0.000 NA
ATOM     12  C   UNL     1      46.762   2.861   6.053  0.00  0.00    +0.000 A 
ATOM     13  F   UNL     1      46.993   3.594   4.955  0.00  0.00    +0.000 F 
ATOM     14  C   UNL     1      46.083   3.452   7.105  0.00  0.00    +0.000 A 
ENDBRANCH   6   8
BRANCH   1  15
ATOM     15  C   UNL     1      44.570   6.743  11.057  0.00  0.00    +0.000 C 
BRANCH  15  16
ATOM     16  O   UNL     1      45.035   6.985  12.389  0.00  0.00    +0.000 OA
BRANCH  16  20
ATOM     17  C   UNL     1      49.060   7.834  12.546  0.00  0.00    +0.000 A 
ATOM     18  C   UNL     1      48.615   6.540  12.826  0.00  0.00    +0.000 A 
ATOM     19  C   UNL     1      47.248   6.264  12.767  0.00  0.00    +0.000 A 
ATOM     20  C   UNL     1      46.379   7.292  12.429  0.00  0.00    +0.000 A 
ATOM     21  N   UNL     1      46.780   8.552  12.156  0.00  0.00    +0.000 NA
ATOM     22  C   UNL     1      48.110   8.797  12.231  0.00  0.00    +0.000 A 
BRANCH  17  24
ATOM     23  N   UNL     1      51.188   7.928  13.724  0.00  0.00    +0.000 N 
ATOM     24  C   UNL     1      50.479   8.243  12.598  0.00  0.00    +0.000 C 
ATOM     25  O   UNL     1      51.012   8.810  11.655  0.00  0.00    +0.000 OA
ATOM     26  H   UNL     1      52.182   8.123  13.692  0.00  0.00    +0.000 HD
ATOM     27  H   UNL     1      50.863   7.267  14.414  0.00  0.00    +0.000 HD
ENDBRANCH  17  24
ENDBRANCH  16  20
ENDBRANCH  15  16
ENDBRANCH   1  15
TORSDOF 5
ENDMDL
MODEL 7
REMARK VINA RESULT:    -7.436      1.804      2.195
REMARK INTER + INTRA:         -10.421
REMARK INTER:                  -9.611
REMARK INTRA:                  -0.810
REMARK UNBOUND:                -0.811
REMARK  Name = 
REMARK  5 active torsions:
REMARK  status: ('A' for Active; 'I' for Inactive)
REMARK    1  A    between atoms: C_2  and  C_4
REMARK    2  A    between atoms: C_7  and  O_8
REMARK    3  A    between atoms: O_8  and  C_9
REMARK    4  A    between atoms: C_9  and  C_10
REMARK    5  A    between atoms: C_15  and  C_16
REMARK                            x       y       z     vdW  Elec       q    Type
REMARK                         _______ _______ _______ _____ _____    ______ ____
ROOT
ATOM      1  C   UNL     1      45.610   5.606  12.228  0.00  0.00    +0.000 A 
ATOM      2  C   UNL     1      45.523   4.786  13.356  0.00  0.00    +0.000 A 
ATOM      3  C   UNL     1      46.556   4.780  14.283  0.00  0.00    +0.000 A 
ATOM      4  F   UNL     1      46.466   3.991  15.362  0.00  0.00    +0.000 F 
ATOM      5  C   UNL     1      47.685   5.577  14.114  0.00  0.00    +0.000 A 
ATOM      6  C   UNL     1      47.822   6.400  12.984  0.00  0.00    +0.000 A 
ATOM      7  C   UNL     1      46.771   6.380  12.044  0.00  0.00    +0.000 A 
ENDROOT
BRANCH   6   8
ATOM      8  C   UNL     1      49.012   7.259  12.784  0.00  0.00    +0.000 A 
ATOM      9  C   UNL     1      49.378   7.735  11.517  0.00  0.00    +0.000 A 
ATOM     10  C   UNL     1      50.503   8.539  11.386  0.00  0.00    +0.000 A 
ATOM     11  N   UNL     1      51.286   8.910  12.416  0.00  0.00    +0.000 NA
ATOM     12  C   UNL     1      50.927   8.449  13.628  0.00  0.00    +0.000 A 
ATOM     13  F   UNL     1      51.681   8.808  14.677  0.00  0.00    +0.000 F 
ATOM     14  C   UNL     1      49.830   7.637  13.858  0.00  0.00    +0.000 A 
ENDBRANCH   6   8
BRANCH   1  15
ATOM     15  C   UNL     1      44.498   5.592  11.199  0.00  0.00    +0.000 C 
BRANCH  15  16
ATOM     16  O   UNL     1      44.180   4.247  10.827  0.00  0.00    +0.000 OA
BRANCH  16  20
ATOM     17  C   UNL     1      46.394   3.015   7.582  0.00  0.00    +0.000 A 
ATOM     18  C   UNL     1      46.211   4.379   7.816  0.00  0.00    +0.000 A 
ATOM     19  C   UNL     1      45.461   4.784   8.921  0.00  0.00    +0.000 A 
ATOM     20  C   UNL     1      44.923   3.810   9.750  0.00  0.00    +0.000 A 
ATOM     21  N   UNL     1      45.081   2.484   9.548  0.00  0.00    +0.000 NA
ATOM     22  C   UNL     1      45.804   2.117   8.462  0.00  0.00    +0.000 A 
BRANCH  17  24
ATOM     23  N   UNL     1      48.149   1.579   6.700  0.00  0.00    +0.000 N 
ATOM     24  C   UNL     1      47.151   2.473   6.434  0.00  0.00    +0.000 C 
ATOM     25  O   UNL     1      46.871   2.784   5.285  0.00  0.00    +0.000 OA
ATOM     26  H   UNL     1      48.580   1.141   5.894  0.00  0.00    +0.000 HD
ATOM     27  H   UNL     1      48.258   1.121   7.593  0.00  0.00    +0.000 HD
ENDBRANCH  17  24
ENDBRANCH  16  20
ENDBRANCH  15  16
ENDBRANCH   1  15
TORSDOF 5
ENDMDL
MODEL 8
REMARK VINA RESULT:    -7.291      5.290      7.828
REMARK INTER + INTRA:         -10.234
REMARK INTER:                  -9.447
REMARK INTRA:                  -0.786
REMARK UNBOUND:                -0.811
REMARK  Name = 
REMARK  5 active torsions:
REMARK  status: ('A' for Active; 'I' for Inactive)
REMARK    1  A    between atoms: C_2  and  C_4
REMARK    2  A    between atoms: C_7  and  O_8
REMARK    3  A    between atoms: O_8  and  C_9
REMARK    4  A    between atoms: C_9  and  C_10
REMARK    5  A    between atoms: C_15  and  C_16
REMARK                            x       y       z     vdW  Elec       q    Type
REMARK                         _______ _______ _______ _____ _____    ______ ____
ROOT
ATOM      1  C   UNL     1      48.210   6.589  14.412  0.00  0.00    +0.000 A 
ATOM      2  C   UNL     1      48.939   7.373  13.515  0.00  0.00    +0.000 A 
ATOM      3  C   UNL     1      48.550   7.436  12.183  0.00  0.00    +0.000 A 
ATOM      4  F   UNL     1      49.253   8.191  11.328  0.00  0.00    +0.000 F 
ATOM      5  C   UNL     1      47.444   6.731  11.718  0.00  0.00    +0.000 A 
ATOM      6  C   UNL     1      46.696   5.914  12.582  0.00  0.00    +0.000 A 
ATOM      7  C   UNL     1      47.117   5.848  13.927  0.00  0.00    +0.000 A 
ENDROOT
BRANCH   6   8
ATOM      8  C   UNL     1      45.513   5.156  12.111  0.00  0.00    +0.000 A 
ATOM      9  C   UNL     1      44.698   4.431  12.993  0.00  0.00    +0.000 A 
ATOM     10  C   UNL     1      43.601   3.740  12.498  0.00  0.00    +0.000 A 
ATOM     11  N   UNL     1      43.248   3.718  11.200  0.00  0.00    +0.000 NA
ATOM     12  C   UNL     1      44.035   4.417  10.361  0.00  0.00    +0.000 A 
ATOM     13  F   UNL     1      43.706   4.423   9.062  0.00  0.00    +0.000 F 
ATOM     14  C   UNL     1      45.154   5.129  10.757  0.00  0.00    +0.000 A 
ENDBRANCH   6   8
BRANCH   1  15
ATOM     15  C   UNL     1      48.650   6.494  15.858  0.00  0.00    +0.000 C 
BRANCH  15  16
ATOM     16  O   UNL     1      48.092   5.328  16.474  0.00  0.00    +0.000 OA
BRANCH  16  20
ATOM     17  C   UNL     1      50.896   2.451  17.371  0.00  0.00    +0.000 A 
ATOM     18  C   UNL     1      49.603   2.067  17.012  0.00  0.00    +0.000 A 
ATOM     19  C   UNL     1      48.661   3.052  16.707  0.00  0.00    +0.000 A 
ATOM     20  C   UNL     1      49.050   4.382  16.772  0.00  0.00    +0.000 A 
ATOM     21  N   UNL     1      50.292   4.783  17.118  0.00  0.00    +0.000 NA
ATOM     22  C   UNL     1      51.184   3.808  17.420  0.00  0.00    +0.000 A 
BRANCH  17  24
ATOM     23  N   UNL     1      51.589   0.242  18.122  0.00  0.00    +0.000 N 
ATOM     24  C   UNL     1      51.965   1.496  17.732  0.00  0.00    +0.000 C 
ATOM     25  O   UNL     1      53.146   1.804  17.651  0.00  0.00    +0.000 OA
ATOM     26  H   UNL     1      52.339  -0.424  18.260  0.00  0.00    +0.000 HD
ATOM     27  H   UNL     1      50.659  -0.124  17.980  0.00  0.00    +0.000 HD
ENDBRANCH  17  24
ENDBRANCH  16  20
ENDBRANCH  15  16
ENDBRANCH   1  15
TORSDOF 5
ENDMDL
MODEL 9
REMARK VINA RESULT:    -7.007      4.867      8.215
REMARK INTER + INTRA:          -9.866
REMARK INTER:                  -9.147
REMARK INTRA:                  -0.719
REMARK UNBOUND:                -0.811
REMARK  Name = 
REMARK  5 active torsions:
REMARK  status: ('A' for Active; 'I' for Inactive)
REMARK    1  A    between atoms: C_2  and  C_4
REMARK    2  A    between atoms: C_7  and  O_8
REMARK    3  A    between atoms: O_8  and  C_9
REMARK    4  A    between atoms: C_9  and  C_10
REMARK    5  A    between atoms: C_15  and  C_16
REMARK                            x       y       z     vdW  Elec       q    Type
REMARK                         _______ _______ _______ _____ _____    ______ ____
ROOT
ATOM      1  C   UNL     1      47.117   7.369  13.063  0.00  0.00    +0.000 A 
ATOM      2  C   UNL     1      46.352   8.536  12.994  0.00  0.00    +0.000 A 
ATOM      3  C   UNL     1      45.240   8.582  12.164  0.00  0.00    +0.000 A 
ATOM      4  F   UNL     1      44.511   9.703  12.103  0.00  0.00    +0.000 F 
ATOM      5  C   UNL     1      44.867   7.484  11.392  0.00  0.00    +0.000 A 
ATOM      6  C   UNL     1      45.620   6.299  11.417  0.00  0.00    +0.000 A 
ATOM      7  C   UNL     1      46.756   6.277  12.251  0.00  0.00    +0.000 A 
ENDROOT
BRANCH   6   8
ATOM      8  C   UNL     1      45.241   5.117  10.607  0.00  0.00    +0.000 A 
ATOM      9  C   UNL     1      44.480   4.067  11.140  0.00  0.00    +0.000 A 
ATOM     10  C   UNL     1      44.151   2.983  10.337  0.00  0.00    +0.000 A 
ATOM     11  N   UNL     1      44.514   2.866   9.046  0.00  0.00    +0.000 NA
ATOM     12  C   UNL     1      45.244   3.878   8.543  0.00  0.00    +0.000 A 
ATOM     13  F   UNL     1      45.615   3.796   7.257  0.00  0.00    +0.000 F 
ATOM     14  C   UNL     1      45.628   4.995   9.266  0.00  0.00    +0.000 A 
ENDBRANCH   6   8
BRANCH   1  15
ATOM     15  C   UNL     1      48.348   7.327  13.943  0.00  0.00    +0.000 C 
BRANCH  15  16
ATOM     16  O   UNL     1      48.638   5.979  14.332  0.00  0.00    +0.000 OA
BRANCH  16  20
ATOM     17  C   UNL     1      48.208   5.433  18.390  0.00  0.00    +0.000 A 
ATOM     18  C   UNL     1      48.832   6.587  17.910  0.00  0.00    +0.000 A 
ATOM     19  C   UNL     1      48.970   6.762  16.532  0.00  0.00    +0.000 A 
ATOM     20  C   UNL     1      48.476   5.777  15.687  0.00  0.00    +0.000 A 
ATOM     21  N   UNL     1      47.871   4.652  16.122  0.00  0.00    +0.000 NA
ATOM     22  C   UNL     1      47.760   4.500  17.464  0.00  0.00    +0.000 A 
BRANCH  17  24
ATOM     23  N   UNL     1      48.620   4.006  20.318  0.00  0.00    +0.000 N 
ATOM     24  C   UNL     1      48.027   5.135  19.826  0.00  0.00    +0.000 C 
ATOM     25  O   UNL     1      47.401   5.889  20.558  0.00  0.00    +0.000 OA
ATOM     26  H   UNL     1      48.572   3.881  21.322  0.00  0.00    +0.000 HD
ATOM     27  H   UNL     1      49.328   3.491  19.816  0.00  0.00    +0.000 HD
ENDBRANCH  17  24
ENDBRANCH  16  20
ENDBRANCH  15  16
ENDBRANCH   1  15
TORSDOF 5
ENDMDL
