MODEL 1
REMARK VINA RESULT:    -7.020      0.000      0.000
REMARK INTER + INTRA:          -9.726
REMARK INTER:                  -8.867
REMARK INTRA:                  -0.859
REMARK UNBOUND:                -0.859
REMARK  Name = 
REMARK  7 active torsions:
REMARK  status: ('A' for Active; 'I' for Inactive)
REMARK    1  A    between atoms: C_1  and  C_2
REMARK    2  A    between atoms: C_2  and  C_3
REMARK    3  A    between atoms: C_2  and  N_4
REMARK    4  A    between atoms: C_2  and  C_5
REMARK    5  A    between atoms: C_5  and  C_6
REMARK    6  A    between atoms: C_9  and  C_10
REMARK    7  A    between atoms: C_10  and  N_11
REMARK                            x       y       z     vdW  Elec       q    Type
REMARK                         _______ _______ _______ _____ _____    ______ ____
ROOT
ATOM      1  C   UNL     1      45.189   3.691   8.683  0.00  0.00    +0.000 A 
ATOM      2  C   UNL     1      44.774   2.845   9.706  0.00  0.00    +0.000 A 
ATOM      3  C   UNL     1      44.727   3.336  11.008  0.00  0.00    +0.000 A 
ATOM      4  C   UNL     1      45.087   4.663  11.267  0.00  0.00    +0.000 A 
ATOM      5  C   UNL     1      45.460   5.440  10.178  0.00  0.00    +0.000 A 
ATOM      6  N   UNL     1      45.532   4.983   8.908  0.00  0.00    +0.000 NA
ENDROOT
BRANCH   1   7
ATOM      7  C   UNL     1      45.270   3.197   7.259  0.00  0.00    +0.000 C 
BRANCH   7   9
ATOM      8  C   UNL     1      46.764   2.752   5.229  0.00  0.00    +0.000 C 
ATOM      9  C   UNL     1      46.697   2.842   6.757  0.00  0.00    +0.000 C 
ATOM     10  C   UNL     1      47.217   1.537   7.380  0.00  0.00    +0.000 C 
BRANCH   9  11
ATOM     11  N   UNL     1      47.606   3.939   7.164  0.00  0.00    +0.000 NA
ATOM     12  H   UNL     1      47.434   4.179   8.141  0.00  0.00    +0.000 HD
ATOM     13  H   UNL     1      47.387   4.781   6.633  0.00  0.00    +0.000 HD
ENDBRANCH   9  11
ENDBRANCH   7   9
ENDBRANCH   1   7
BRANCH   4  14
ATOM     14  C   UNL     1      44.962   5.257  12.647  0.00  0.00    +0.000 C 
BRANCH  14  15
ATOM     15  N   UNL     1      46.207   5.050  13.376  0.00  0.00    +0.000 N 
ATOM     16  N   UNL     1      46.266   4.062  14.302  0.00  0.00    +0.000 NA
ATOM     17  C   UNL     1      47.184   4.511  15.166  0.00  0.00    +0.000 A 
ATOM     18  C   UNL     1      47.783   5.713  14.739  0.00  0.00    +0.000 A 
ATOM     19  C   UNL     1      48.712   6.610  15.266  0.00  0.00    +0.000 A 
ATOM     20  N   UNL     1      49.121   7.672  14.530  0.00  0.00    +0.000 NA
ATOM     21  C   UNL     1      48.615   7.843  13.287  0.00  0.00    +0.000 A 
ATOM     22  C   UNL     1      47.654   7.033  12.698  0.00  0.00    +0.000 A 
ATOM     23  C   UNL     1      47.228   5.970  13.492  0.00  0.00    +0.000 A 
ENDBRANCH  14  15
ENDBRANCH   4  14
TORSDOF 5
ENDMDL
MODEL 2
REMARK VINA RESULT:    -6.481      1.543      2.383
REMARK INTER + INTRA:          -9.046
REMARK INTER:                  -8.419
REMARK INTRA:                  -0.627
REMARK UNBOUND:                -0.859
REMARK  Name = 
REMARK  7 active torsions:
REMARK  status: ('A' for Active; 'I' for Inactive)
REMARK    1  A    between atoms: C_1  and  C_2
REMARK    2  A    between atoms: C_2  and  C_3
REMARK    3  A    between atoms: C_2  and  N_4
REMARK    4  A    between atoms: C_2  and  C_5
REMARK    5  A    between atoms: C_5  and  C_6
REMARK    6  A    between atoms: C_9  and  C_10
REMARK    7  A    between atoms: C_10  and  N_11
REMARK                            x       y       z     vdW  Elec       q    Type
REMARK                         _______ _______ _______ _____ _____    ______ ____
ROOT
ATOM      1  C   UNL     1      45.134   2.870   8.355  0.00  0.00    +0.000 A 
ATOM      2  C   UNL     1      44.997   2.241   9.588  0.00  0.00    +0.000 A 
ATOM      3  C   UNL     1      44.423   2.944  10.643  0.00  0.00    +0.000 A 
ATOM      4  C   UNL     1      43.988   4.259  10.451  0.00  0.00    +0.000 A 
ATOM      5  C   UNL     1      44.139   4.794   9.177  0.00  0.00    +0.000 A 
ATOM      6  N   UNL     1      44.709   4.139   8.141  0.00  0.00    +0.000 NA
ENDROOT
BRANCH   1   7
ATOM      7  C   UNL     1      45.764   2.151   7.188  0.00  0.00    +0.000 C 
BRANCH   7   9
ATOM      8  C   UNL     1      46.823   3.107   5.063  0.00  0.00    +0.000 C 
ATOM      9  C   UNL     1      47.002   2.852   6.564  0.00  0.00    +0.000 C 
ATOM     10  C   UNL     1      48.295   2.058   6.808  0.00  0.00    +0.000 C 
BRANCH   9  11
ATOM     11  N   UNL     1      47.147   4.177   7.211  0.00  0.00    +0.000 NA
ATOM     12  H   UNL     1      47.655   4.806   6.590  0.00  0.00    +0.000 HD
ATOM     13  H   UNL     1      47.727   4.089   8.046  0.00  0.00    +0.000 HD
ENDBRANCH   9  11
ENDBRANCH   7   9
ENDBRANCH   1   7
BRANCH   4  14
ATOM     14  C   UNL     1      43.279   5.021  11.541  0.00  0.00    +0.000 C 
BRANCH  14  15
ATOM     15  N   UNL     1      44.177   6.033  12.085  0.00  0.00    +0.000 N 
ATOM     16  N   UNL     1      44.161   7.277  11.547  0.00  0.00    +0.000 NA
ATOM     17  C   UNL     1      45.406   7.717  11.764  0.00  0.00    +0.000 A 
ATOM     18  C   UNL     1      46.171   6.811  12.528  0.00  0.00    +0.000 A 
ATOM     19  C   UNL     1      47.493   6.743  12.969  0.00  0.00    +0.000 A 
ATOM     20  N   UNL     1      47.888   5.719  13.765  0.00  0.00    +0.000 NA
ATOM     21  C   UNL     1      46.985   4.777  14.121  0.00  0.00    +0.000 A 
ATOM     22  C   UNL     1      45.665   4.736  13.693  0.00  0.00    +0.000 A 
ATOM     23  C   UNL     1      45.297   5.780  12.848  0.00  0.00    +0.000 A 
ENDBRANCH  14  15
ENDBRANCH   4  14
TORSDOF 5
ENDMDL
MODEL 3
REMARK VINA RESULT:    -6.275      1.740      6.770
REMARK INTER + INTRA:          -8.785
REMARK INTER:                  -7.851
REMARK INTRA:                  -0.934
REMARK UNBOUND:                -0.859
REMARK  Name = 
REMARK  7 active torsions:
REMARK  status: ('A' for Active; 'I' for Inactive)
REMARK    1  A    between atoms: C_1  and  C_2
REMARK    2  A    between atoms: C_2  and  C_3
REMARK    3  A    between atoms: C_2  and  N_4
REMARK    4  A    between atoms: C_2  and  C_5
REMARK    5  A    between atoms: C_5  and  C_6
REMARK    6  A    between atoms: C_9  and  C_10
REMARK    7  A    between atoms: C_10  and  N_11
REMARK                            x       y       z     vdW  Elec       q    Type
REMARK                         _______ _______ _______ _____ _____    ______ ____
ROOT
ATOM      1  C   UNL     1      47.591   6.381  12.872  0.00  0.00    +0.000 A 
ATOM      2  C   UNL     1      47.177   7.108  11.761  0.00  0.00    +0.000 A 
ATOM      3  C   UNL     1      45.912   6.865  11.231  0.00  0.00    +0.000 A 
ATOM      4  C   UNL     1      45.080   5.909  11.821  0.00  0.00    +0.000 A 
ATOM      5  C   UNL     1      45.569   5.253  12.944  0.00  0.00    +0.000 A 
ATOM      6  N   UNL     1      46.798   5.457  13.468  0.00  0.00    +0.000 NA
ENDROOT
BRANCH   1   7
ATOM      7  C   UNL     1      48.960   6.600  13.470  0.00  0.00    +0.000 C 
BRANCH   7   9
ATOM      8  C   UNL     1      48.235   8.605  14.884  0.00  0.00    +0.000 C 
ATOM      9  C   UNL     1      48.975   7.264  14.875  0.00  0.00    +0.000 C 
ATOM     10  C   UNL     1      50.404   7.451  15.406  0.00  0.00    +0.000 C 
BRANCH   9  11
ATOM     11  N   UNL     1      48.252   6.367  15.807  0.00  0.00    +0.000 NA
ATOM     12  H   UNL     1      47.246   6.482  15.680  0.00  0.00    +0.000 HD
ATOM     13  H   UNL     1      48.441   6.648  16.769  0.00  0.00    +0.000 HD
ENDBRANCH   9  11
ENDBRANCH   7   9
ENDBRANCH   1   7
BRANCH   4  14
ATOM     14  C   UNL     1      43.672   5.682  11.333  0.00  0.00    +0.000 C 
BRANCH  14  15
ATOM     15  N   UNL     1      43.571   4.350  10.750  0.00  0.00    +0.000 N 
ATOM     16  N   UNL     1      43.024   3.354  11.488  0.00  0.00    +0.000 NA
ATOM     17  C   UNL     1      43.622   2.258  11.007  0.00  0.00    +0.000 A 
ATOM     18  C   UNL     1      44.454   2.538   9.904  0.00  0.00    +0.000 A 
ATOM     19  C   UNL     1      45.326   1.807   9.097  0.00  0.00    +0.000 A 
ATOM     20  N   UNL     1      45.940   2.406   8.047  0.00  0.00    +0.000 NA
ATOM     21  C   UNL     1      45.692   3.713   7.800  0.00  0.00    +0.000 A 
ATOM     22  C   UNL     1      44.880   4.531   8.573  0.00  0.00    +0.000 A 
ATOM     23  C   UNL     1      44.290   3.897   9.664  0.00  0.00    +0.000 A 
ENDBRANCH  14  15
ENDBRANCH   4  14
TORSDOF 5
ENDMDL
MODEL 4
REMARK VINA RESULT:    -6.009      1.767      6.920
REMARK INTER + INTRA:          -8.449
REMARK INTER:                  -8.361
REMARK INTRA:                  -0.088
REMARK UNBOUND:                -0.859
REMARK  Name = 
REMARK  7 active torsions:
REMARK  status: ('A' for Active; 'I' for Inactive)
REMARK    1  A    between atoms: C_1  and  C_2
REMARK    2  A    between atoms: C_2  and  C_3
REMARK    3  A    between atoms: C_2  and  N_4
REMARK    4  A    between atoms: C_2  and  C_5
REMARK    5  A    between atoms: C_5  and  C_6
REMARK    6  A    between atoms: C_9  and  C_10
REMARK    7  A    between atoms: C_10  and  N_11
REMARK                            x       y       z     vdW  Elec       q    Type
REMARK                         _______ _______ _______ _____ _____    ______ ____
ROOT
ATOM      1  C   UNL     1      45.415   4.777  12.921  0.00  0.00    +0.000 A 
ATOM      2  C   UNL     1      45.811   5.793  12.057  0.00  0.00    +0.000 A 
ATOM      3  C   UNL     1      45.541   5.664  10.698  0.00  0.00    +0.000 A 
ATOM      4  C   UNL     1      44.873   4.531  10.223  0.00  0.00    +0.000 A 
ATOM      5  C   UNL     1      44.491   3.583  11.164  0.00  0.00    +0.000 A 
ATOM      6  N   UNL     1      44.757   3.674  12.486  0.00  0.00    +0.000 NA
ENDROOT
BRANCH   1   7
ATOM      7  C   UNL     1      45.701   4.866  14.400  0.00  0.00    +0.000 C 
BRANCH   7   9
ATOM      8  C   UNL     1      47.192   4.006  16.294  0.00  0.00    +0.000 C 
ATOM      9  C   UNL     1      47.135   4.446  14.827  0.00  0.00    +0.000 C 
ATOM     10  C   UNL     1      48.159   5.564  14.577  0.00  0.00    +0.000 C 
BRANCH   9  11
ATOM     11  N   UNL     1      47.526   3.274  14.011  0.00  0.00    +0.000 NA
ATOM     12  H   UNL     1      46.855   3.148  13.252  0.00  0.00    +0.000 HD
ATOM     13  H   UNL     1      47.463   2.426  14.575  0.00  0.00    +0.000 HD
ENDBRANCH   9  11
ENDBRANCH   7   9
ENDBRANCH   1   7
BRANCH   4  14
ATOM     14  C   UNL     1      44.482   4.398   8.773  0.00  0.00    +0.000 C 
BRANCH  14  15
ATOM     15  N   UNL     1      44.854   3.074   8.291  0.00  0.00    +0.000 N 
ATOM     16  N   UNL     1      44.371   1.985   8.936  0.00  0.00    +0.000 NA
ATOM     17  C   UNL     1      45.314   1.060   8.718  0.00  0.00    +0.000 A 
ATOM     18  C   UNL     1      46.328   1.520   7.853  0.00  0.00    +0.000 A 
ATOM     19  C   UNL     1      47.532   1.012   7.365  0.00  0.00    +0.000 A 
ATOM     20  N   UNL     1      48.255   1.728   6.469  0.00  0.00    +0.000 NA
ATOM     21  C   UNL     1      47.790   2.931   6.062  0.00  0.00    +0.000 A 
ATOM     22  C   UNL     1      46.631   3.538   6.528  0.00  0.00    +0.000 A 
ATOM     23  C   UNL     1      45.928   2.794   7.472  0.00  0.00    +0.000 A 
ENDBRANCH  14  15
ENDBRANCH   4  14
TORSDOF 5
ENDMDL
MODEL 5
REMARK VINA RESULT:    -5.932      2.469      7.688
REMARK INTER + INTRA:          -8.352
REMARK INTER:                  -7.923
REMARK INTRA:                  -0.429
REMARK UNBOUND:                -0.859
REMARK  Name = 
REMARK  7 active torsions:
REMARK  status: ('A' for Active; 'I' for Inactive)
REMARK    1  A    between atoms: C_1  and  C_2
REMARK    2  A    between atoms: C_2  and  C_3
REMARK    3  A    between atoms: C_2  and  N_4
REMARK    4  A    between atoms: C_2  and  C_5
REMARK    5  A    between atoms: C_5  and  C_6
REMARK    6  A    between atoms: C_9  and  C_10
REMARK    7  A    between atoms: C_10  and  N_11
REMARK                            x       y       z     vdW  Elec       q    Type
REMARK                         _______ _______ _______ _____ _____    ______ ____
ROOT
ATOM      1  C   UNL     1      48.411   5.501  15.833  0.00  0.00    +0.000 A 
ATOM      2  C   UNL     1      48.628   6.775  15.318  0.00  0.00    +0.000 A 
ATOM      3  C   UNL     1      48.082   7.103  14.080  0.00  0.00    +0.000 A 
ATOM      4  C   UNL     1      47.323   6.159  13.380  0.00  0.00    +0.000 A 
ATOM      5  C   UNL     1      47.137   4.924  13.987  0.00  0.00    +0.000 A 
ATOM      6  N   UNL     1      47.671   4.574  15.178  0.00  0.00    +0.000 NA
ENDROOT
BRANCH   1   7
ATOM      7  C   UNL     1      48.998   5.098  17.164  0.00  0.00    +0.000 C 
BRANCH   7   9
ATOM      8  C   UNL     1      47.900   6.802  18.726  0.00  0.00    +0.000 C 
ATOM      9  C   UNL     1      48.073   5.317  18.393  0.00  0.00    +0.000 C 
ATOM     10  C   UNL     1      48.575   4.558  19.631  0.00  0.00    +0.000 C 
BRANCH   9  11
ATOM     11  N   UNL     1      46.730   4.794  18.048  0.00  0.00    +0.000 NA
ATOM     12  H   UNL     1      46.825   3.892  17.580  0.00  0.00    +0.000 HD
ATOM     13  H   UNL     1      46.286   5.410  17.366  0.00  0.00    +0.000 HD
ENDBRANCH   9  11
ENDBRANCH   7   9
ENDBRANCH   1   7
BRANCH   4  14
ATOM     14  C   UNL     1      46.640   6.506  12.081  0.00  0.00    +0.000 C 
BRANCH  14  15
ATOM     15  N   UNL     1      45.285   5.968  12.090  0.00  0.00    +0.000 N 
ATOM     16  N   UNL     1      44.504   6.183  13.176  0.00  0.00    +0.000 NA
ATOM     17  C   UNL     1      43.683   5.126  13.173  0.00  0.00    +0.000 A 
ATOM     18  C   UNL     1      43.864   4.308  12.039  0.00  0.00    +0.000 A 
ATOM     19  C   UNL     1      43.340   3.096  11.586  0.00  0.00    +0.000 A 
ATOM     20  N   UNL     1      43.709   2.611  10.375  0.00  0.00    +0.000 NA
ATOM     21  C   UNL     1      44.583   3.317   9.623  0.00  0.00    +0.000 A 
ATOM     22  C   UNL     1      45.192   4.503  10.009  0.00  0.00    +0.000 A 
ATOM     23  C   UNL     1      44.821   4.960  11.272  0.00  0.00    +0.000 A 
ENDBRANCH  14  15
ENDBRANCH   4  14
TORSDOF 5
ENDMDL
MODEL 6
REMARK VINA RESULT:    -5.642      2.607      7.090
REMARK INTER + INTRA:          -7.985
REMARK INTER:                  -7.084
REMARK INTRA:                  -0.901
REMARK UNBOUND:                -0.859
REMARK  Name = 
REMARK  7 active torsions:
REMARK  status: ('A' for Active; 'I' for Inactive)
REMARK    1  A    between atoms: C_1  and  C_2
REMARK    2  A    between atoms: C_2  and  C_3
REMARK    3  A    between atoms: C_2  and  N_4
REMARK    4  A    between atoms: C_2  and  C_5
REMARK    5  A    between atoms: C_5  and  C_6
REMARK    6  A    between atoms: C_9  and  C_10
REMARK    7  A    between atoms: C_10  and  N_11
REMARK                            x       y       z     vdW  Elec       q    Type
REMARK                         _______ _______ _______ _____ _____    ______ ____
ROOT
ATOM      1  C   UNL     1      48.208   7.111  13.926  0.00  0.00    +0.000 A 
ATOM      2  C   UNL     1      47.932   6.025  13.100  0.00  0.00    +0.000 A 
ATOM      3  C   UNL     1      46.800   6.064  12.292  0.00  0.00    +0.000 A 
ATOM      4  C   UNL     1      45.966   7.186  12.313  0.00  0.00    +0.000 A 
ATOM      5  C   UNL     1      46.337   8.233  13.147  0.00  0.00    +0.000 A 
ATOM      6  N   UNL     1      47.420   8.214  13.955  0.00  0.00    +0.000 NA
ENDROOT
BRANCH   1   7
ATOM      7  C   UNL     1      49.416   7.105  14.830  0.00  0.00    +0.000 C 
BRANCH   7   9
ATOM      8  C   UNL     1      50.408   6.776  17.166  0.00  0.00    +0.000 C 
ATOM      9  C   UNL     1      49.131   6.769  16.320  0.00  0.00    +0.000 C 
ATOM     10  C   UNL     1      48.407   5.423  16.476  0.00  0.00    +0.000 C 
BRANCH   9  11
ATOM     11  N   UNL     1      48.250   7.830  16.863  0.00  0.00    +0.000 NA
ATOM     12  H   UNL     1      47.405   7.895  16.295  0.00  0.00    +0.000 HD
ATOM     13  H   UNL     1      48.709   8.736  16.774  0.00  0.00    +0.000 HD
ENDBRANCH   9  11
ENDBRANCH   7   9
ENDBRANCH   1   7
BRANCH   4  14
ATOM     14  C   UNL     1      44.782   7.304  11.386  0.00  0.00    +0.000 C 
BRANCH  14  15
ATOM     15  N   UNL     1      43.887   6.174  11.600  0.00  0.00    +0.000 N 
ATOM     16  N   UNL     1      43.238   6.069  12.784  0.00  0.00    +0.000 NA
ATOM     17  C   UNL     1      43.059   4.749  12.916  0.00  0.00    +0.000 A 
ATOM     18  C   UNL     1      43.486   4.032  11.780  0.00  0.00    +0.000 A 
ATOM     19  C   UNL     1      43.585   2.687  11.425  0.00  0.00    +0.000 A 
ATOM     20  N   UNL     1      43.999   2.344  10.181  0.00  0.00    +0.000 NA
ATOM     21  C   UNL     1      44.309   3.322   9.299  0.00  0.00    +0.000 A 
ATOM     22  C   UNL     1      44.287   4.682   9.575  0.00  0.00    +0.000 A 
ATOM     23  C   UNL     1      43.892   5.003  10.872  0.00  0.00    +0.000 A 
ENDBRANCH  14  15
ENDBRANCH   4  14
TORSDOF 5
ENDMDL
MODEL 7
REMARK VINA RESULT:    -5.530      2.320      7.404
REMARK INTER + INTRA:          -7.844
REMARK INTER:                  -7.115
REMARK INTRA:                  -0.729
REMARK UNBOUND:                -0.859
REMARK  Name = 
REMARK  7 active torsions:
REMARK  status: ('A' for Active; 'I' for Inactive)
REMARK    1  A    between atoms: C_1  and  C_2
REMARK    2  A    between atoms: C_2  and  C_3
REMARK    3  A    between atoms: C_2  and  N_4
REMARK    4  A    between atoms: C_2  and  C_5
REMARK    5  A    between atoms: C_5  and  C_6
REMARK    6  A    between atoms: C_9  and  C_10
REMARK    7  A    between atoms: C_10  and  N_11
REMARK                            x       y       z     vdW  Elec       q    Type
REMARK                         _______ _______ _______ _____ _____    ______ ____
ROOT
ATOM      1  C   UNL     1      48.759   7.309  14.402  0.00  0.00    +0.000 A 
ATOM      2  C   UNL     1      47.837   8.351  14.376  0.00  0.00    +0.000 A 
ATOM      3  C   UNL     1      46.816   8.323  13.431  0.00  0.00    +0.000 A 
ATOM      4  C   UNL     1      46.724   7.255  12.533  0.00  0.00    +0.000 A 
ATOM      5  C   UNL     1      47.672   6.246  12.654  0.00  0.00    +0.000 A 
ATOM      6  N   UNL     1      48.684   6.258  13.549  0.00  0.00    +0.000 NA
ENDROOT
BRANCH   1   7
ATOM      7  C   UNL     1      49.891   7.306  15.399  0.00  0.00    +0.000 C 
BRANCH   7   9
ATOM      8  C   UNL     1      48.906   7.205  17.759  0.00  0.00    +0.000 C 
ATOM      9  C   UNL     1      49.660   6.438  16.667  0.00  0.00    +0.000 C 
ATOM     10  C   UNL     1      50.977   5.885  17.232  0.00  0.00    +0.000 C 
BRANCH   9  11
ATOM     11  N   UNL     1      48.807   5.290  16.281  0.00  0.00    +0.000 NA
ATOM     12  H   UNL     1      49.305   4.419  16.462  0.00  0.00    +0.000 HD
ATOM     13  H   UNL     1      48.644   5.307  15.274  0.00  0.00    +0.000 HD
ENDBRANCH   9  11
ENDBRANCH   7   9
ENDBRANCH   1   7
BRANCH   4  14
ATOM     14  C   UNL     1      45.581   7.143  11.556  0.00  0.00    +0.000 C 
BRANCH  14  15
ATOM     15  N   UNL     1      45.609   5.828  10.928  0.00  0.00    +0.000 N 
ATOM     16  N   UNL     1      46.026   5.726   9.643  0.00  0.00    +0.000 NA
ATOM     17  C   UNL     1      45.372   4.648   9.196  0.00  0.00    +0.000 A 
ATOM     18  C   UNL     1      44.635   4.006  10.213  0.00  0.00    +0.000 A 
ATOM     19  C   UNL     1      43.758   2.924  10.280  0.00  0.00    +0.000 A 
ATOM     20  N   UNL     1      43.261   2.530  11.479  0.00  0.00    +0.000 NA
ATOM     21  C   UNL     1      43.629   3.199  12.595  0.00  0.00    +0.000 A 
ATOM     22  C   UNL     1      44.456   4.314  12.620  0.00  0.00    +0.000 A 
ATOM     23  C   UNL     1      44.924   4.717  11.371  0.00  0.00    +0.000 A 
ENDBRANCH  14  15
ENDBRANCH   4  14
TORSDOF 5
ENDMDL
MODEL 8
REMARK VINA RESULT:    -5.360      2.319      7.505
REMARK INTER + INTRA:          -7.630
REMARK INTER:                  -6.975
REMARK INTRA:                  -0.655
REMARK UNBOUND:                -0.859
REMARK  Name = 
REMARK  7 active torsions:
REMARK  status: ('A' for Active; 'I' for Inactive)
REMARK    1  A    between atoms: C_1  and  C_2
REMARK    2  A    between atoms: C_2  and  C_3
REMARK    3  A    between atoms: C_2  and  N_4
REMARK    4  A    between atoms: C_2  and  C_5
REMARK    5  A    between atoms: C_5  and  C_6
REMARK    6  A    between atoms: C_9  and  C_10
REMARK    7  A    between atoms: C_10  and  N_11
REMARK                            x       y       z     vdW  Elec       q    Type
REMARK                         _______ _______ _______ _____ _____    ______ ____
ROOT
ATOM      1  C   UNL     1      48.295   5.480  16.244  0.00  0.00    +0.000 A 
ATOM      2  C   UNL     1      47.520   4.588  15.510  0.00  0.00    +0.000 A 
ATOM      3  C   UNL     1      47.141   4.932  14.216  0.00  0.00    +0.000 A 
ATOM      4  C   UNL     1      47.546   6.155  13.672  0.00  0.00    +0.000 A 
ATOM      5  C   UNL     1      48.342   6.967  14.469  0.00  0.00    +0.000 A 
ATOM      6  N   UNL     1      48.709   6.666  15.734  0.00  0.00    +0.000 NA
ENDROOT
BRANCH   1   7
ATOM      7  C   UNL     1      48.716   5.155  17.656  0.00  0.00    +0.000 C 
BRANCH   7   9
ATOM      8  C   UNL     1      50.167   3.060  17.423  0.00  0.00    +0.000 C 
ATOM      9  C   UNL     1      50.137   4.543  17.804  0.00  0.00    +0.000 C 
ATOM     10  C   UNL     1      50.698   4.730  19.222  0.00  0.00    +0.000 C 
BRANCH   9  11
ATOM     11  N   UNL     1      51.034   5.249  16.858  0.00  0.00    +0.000 NA
ATOM     12  H   UNL     1      50.896   6.256  16.945  0.00  0.00    +0.000 HD
ATOM     13  H   UNL     1      50.772   5.018  15.900  0.00  0.00    +0.000 HD
ENDBRANCH   9  11
ENDBRANCH   7   9
ENDBRANCH   1   7
BRANCH   4  14
ATOM     14  C   UNL     1      47.232   6.523  12.244  0.00  0.00    +0.000 C 
BRANCH  14  15
ATOM     15  N   UNL     1      45.801   6.372  12.009  0.00  0.00    +0.000 N 
ATOM     16  N   UNL     1      44.936   6.754  12.978  0.00  0.00    +0.000 NA
ATOM     17  C   UNL     1      43.880   5.958  12.772  0.00  0.00    +0.000 A 
ATOM     18  C   UNL     1      44.024   5.160  11.620  0.00  0.00    +0.000 A 
ATOM     19  C   UNL     1      43.284   4.151  11.004  0.00  0.00    +0.000 A 
ATOM     20  N   UNL     1      43.706   3.624   9.828  0.00  0.00    +0.000 NA
ATOM     21  C   UNL     1      44.846   4.092   9.270  0.00  0.00    +0.000 A 
ATOM     22  C   UNL     1      45.672   5.056   9.832  0.00  0.00    +0.000 A 
ATOM     23  C   UNL     1      45.231   5.554  11.056  0.00  0.00    +0.000 A 
ENDBRANCH  14  15
ENDBRANCH   4  14
TORSDOF 5
ENDMDL
MODEL 9
REMARK VINA RESULT:    -5.256      3.552      6.098
REMARK INTER + INTRA:          -7.498
REMARK INTER:                  -6.625
REMARK INTRA:                  -0.873
REMARK UNBOUND:                -0.859
REMARK  Name = 
REMARK  7 active torsions:
REMARK  status: ('A' for Active; 'I' for Inactive)
REMARK    1  A    between atoms: C_1  and  C_2
REMARK    2  A    between atoms: C_2  and  C_3
REMARK    3  A    between atoms: C_2  and  N_4
REMARK    4  A    between atoms: C_2  and  C_5
REMARK    5  A    between atoms: C_5  and  C_6
REMARK    6  A    between atoms: C_9  and  C_10
REMARK    7  A    between atoms: C_10  and  N_11
REMARK                            x       y       z     vdW  Elec       q    Type
REMARK                         _______ _______ _______ _____ _____    ______ ____
ROOT
ATOM      1  C   UNL     1      47.093   5.616  13.424  0.00  0.00    +0.000 A 
ATOM      2  C   UNL     1      47.920   6.378  14.243  0.00  0.00    +0.000 A 
ATOM      3  C   UNL     1      48.292   5.870  15.484  0.00  0.00    +0.000 A 
ATOM      4  C   UNL     1      47.841   4.609  15.885  0.00  0.00    +0.000 A 
ATOM      5  C   UNL     1      47.043   3.909  14.989  0.00  0.00    +0.000 A 
ATOM      6  N   UNL     1      46.653   4.387  13.787  0.00  0.00    +0.000 NA
ENDROOT
BRANCH   1   7
ATOM      7  C   UNL     1      46.652   6.135  12.077  0.00  0.00    +0.000 C 
BRANCH   7   9
ATOM      8  C   UNL     1      44.414   5.455  11.039  0.00  0.00    +0.000 C 
ATOM      9  C   UNL     1      45.136   6.453  11.950  0.00  0.00    +0.000 C 
ATOM     10  C   UNL     1      44.891   7.886  11.453  0.00  0.00    +0.000 C 
BRANCH   9  11
ATOM     11  N   UNL     1      44.532   6.324  13.296  0.00  0.00    +0.000 NA
ATOM     12  H   UNL     1      44.111   7.213  13.568  0.00  0.00    +0.000 HD
ATOM     13  H   UNL     1      45.263   6.145  13.985  0.00  0.00    +0.000 HD
ENDBRANCH   9  11
ENDBRANCH   7   9
ENDBRANCH   1   7
BRANCH   4  14
ATOM     14  C   UNL     1      48.296   3.986  17.181  0.00  0.00    +0.000 C 
BRANCH  14  15
ATOM     15  N   UNL     1      49.613   3.390  16.995  0.00  0.00    +0.000 N 
ATOM     16  N   UNL     1      49.696   2.082  16.654  0.00  0.00    +0.000 NA
ATOM     17  C   UNL     1      50.875   1.709  17.165  0.00  0.00    +0.000 A 
ATOM     18  C   UNL     1      51.585   2.791  17.725  0.00  0.00    +0.000 A 
ATOM     19  C   UNL     1      52.784   2.947  18.420  0.00  0.00    +0.000 A 
ATOM     20  N   UNL     1      53.206   4.187  18.771  0.00  0.00    +0.000 NA
ATOM     21  C   UNL     1      52.450   5.257  18.435  0.00  0.00    +0.000 A 
ATOM     22  C   UNL     1      51.223   5.196  17.788  0.00  0.00    +0.000 A 
ATOM     23  C   UNL     1      50.799   3.908  17.472  0.00  0.00    +0.000 A 
ENDBRANCH  14  15
ENDBRANCH   4  14
TORSDOF 5
ENDMDL
