MODEL 1
REMARK VINA RESULT:    -6.146      0.000      0.000
REMARK INTER + INTRA:          -8.459
REMARK INTER:                  -7.584
REMARK INTRA:                  -0.875
REMARK UNBOUND:                -0.875
REMARK  Name = 
REMARK  7 active torsions:
REMARK  status: ('A' for Active; 'I' for Inactive)
REMARK    1  A    between atoms: C_1  and  C_2
REMARK    2  A    between atoms: C_4  and  C_5
REMARK    3  A    between atoms: C_4  and  C_6
REMARK    4  A    between atoms: C_11  and  C_12
REMARK    5  A    between atoms: C_17  and  C_18
REMARK    6  A    between atoms: C_19  and  C_20
REMARK    7  A    between atoms: C_23  and  C_24
REMARK                            x       y       z     vdW  Elec       q    Type
REMARK                         _______ _______ _______ _____ _____    ______ ____
ROOT
ATOM      1  C   UNL     1      50.464   8.245  11.492  0.00  0.00    +0.000 C 
ATOM      2  C   UNL     1      50.241   8.764  12.908  0.00  0.00    +0.000 C 
ATOM      3  C   UNL     1      50.642   7.730  13.967  0.00  0.00    +0.000 C 
ATOM      4  C   UNL     1      49.852   8.063  15.273  0.00  0.00    +0.000 C 
ATOM      5  C   UNL     1      50.863   8.290  16.420  0.00  0.00    +0.000 C 
ATOM      6  C   UNL     1      49.005   9.335  14.882  0.00  0.00    +0.000 C 
ATOM      7  C   UNL     1      49.671  10.666  15.286  0.00  0.00    +0.000 C 
ATOM      8  C   UNL     1      48.830   9.260  13.324  0.00  0.00    +0.000 C 
ENDROOT
BRANCH   4   9
ATOM      9  C   UNL     1      48.959   6.896  15.745  0.00  0.00    +0.000 A 
ATOM     10  C   UNL     1      48.814   6.602  17.104  0.00  0.00    +0.000 A 
ATOM     11  C   UNL     1      48.045   5.506  17.490  0.00  0.00    +0.000 A 
ATOM     12  C   UNL     1      47.445   4.717  16.520  0.00  0.00    +0.000 A 
ATOM     13  F   UNL     1      46.727   3.654  16.904  0.00  0.00    +0.000 F 
ATOM     14  C   UNL     1      47.621   5.035  15.186  0.00  0.00    +0.000 A 
ATOM     15  N   UNL     1      48.369   6.121  14.805  0.00  0.00    +0.000 NA
BRANCH  14  16
ATOM     16  C   UNL     1      47.009   4.163  14.109  0.00  0.00    +0.000 C 
ATOM     17  F   UNL     1      47.209   2.823  14.277  0.00  0.00    +0.000 F 
ATOM     18  F   UNL     1      45.658   4.316  14.003  0.00  0.00    +0.000 F 
ATOM     19  F   UNL     1      47.510   4.441  12.868  0.00  0.00    +0.000 F 
ENDBRANCH  14  16
ENDBRANCH   4   9
BRANCH   8  20
ATOM     20  C   UNL     1      47.639   8.463  12.793  0.00  0.00    +0.000 A 
ATOM     21  C   UNL     1      47.801   7.570  11.722  0.00  0.00    +0.000 A 
ATOM     22  C   UNL     1      46.750   6.765  11.288  0.00  0.00    +0.000 A 
ATOM     23  C   UNL     1      45.516   6.925  11.891  0.00  0.00    +0.000 A 
ATOM     24  N   UNL     1      45.270   7.852  12.852  0.00  0.00    +0.000 NA
ATOM     25  C   UNL     1      46.331   8.591  13.258  0.00  0.00    +0.000 A 
BRANCH  23  26
ATOM     26  C   UNL     1      44.364   6.064  11.484  0.00  0.00    +0.000 C 
ATOM     27  N   UNL     1      43.165   6.708  11.370  0.00  0.00    +0.000 N 
ATOM     28  O   UNL     1      44.477   4.862  11.264  0.00  0.00    +0.000 OA
ATOM     29  H   UNL     1      43.112   7.701  11.577  0.00  0.00    +0.000 HD
ATOM     30  H   UNL     1      42.337   6.186  11.118  0.00  0.00    +0.000 HD
ENDBRANCH  23  26
ENDBRANCH   8  20
TORSDOF 4
ENDMDL
MODEL 2
REMARK VINA RESULT:    -6.116      2.221      2.799
REMARK INTER + INTRA:          -8.421
REMARK INTER:                  -7.403
REMARK INTRA:                  -1.018
REMARK UNBOUND:                -0.875
REMARK  Name = 
REMARK  7 active torsions:
REMARK  status: ('A' for Active; 'I' for Inactive)
REMARK    1  A    between atoms: C_1  and  C_2
REMARK    2  A    between atoms: C_4  and  C_5
REMARK    3  A    between atoms: C_4  and  C_6
REMARK    4  A    between atoms: C_11  and  C_12
REMARK    5  A    between atoms: C_17  and  C_18
REMARK    6  A    between atoms: C_19  and  C_20
REMARK    7  A    between atoms: C_23  and  C_24
REMARK                            x       y       z     vdW  Elec       q    Type
REMARK                         _______ _______ _______ _____ _____    ______ ____
ROOT
ATOM      1  C   UNL     1      50.145   7.582  12.437  0.00  0.00    +0.000 C 
ATOM      2  C   UNL     1      49.806   8.151  13.810  0.00  0.00    +0.000 C 
ATOM      3  C   UNL     1      50.465   7.350  14.940  0.00  0.00    +0.000 C 
ATOM      4  C   UNL     1      49.626   7.587  16.236  0.00  0.00    +0.000 C 
ATOM      5  C   UNL     1      50.553   8.162  17.329  0.00  0.00    +0.000 C 
ATOM      6  C   UNL     1      48.480   8.563  15.765  0.00  0.00    +0.000 C 
ATOM      7  C   UNL     1      48.787  10.050  16.035  0.00  0.00    +0.000 C 
ATOM      8  C   UNL     1      48.318   8.308  14.224  0.00  0.00    +0.000 C 
ENDROOT
BRANCH   4   9
ATOM      9  C   UNL     1      49.062   6.278  16.830  0.00  0.00    +0.000 A 
ATOM     10  C   UNL     1      47.842   6.262  17.513  0.00  0.00    +0.000 A 
ATOM     11  C   UNL     1      47.393   5.073  18.086  0.00  0.00    +0.000 A 
ATOM     12  C   UNL     1      48.168   3.929  17.979  0.00  0.00    +0.000 A 
ATOM     13  F   UNL     1      47.735   2.799  18.552  0.00  0.00    +0.000 F 
ATOM     14  C   UNL     1      49.373   3.988  17.303  0.00  0.00    +0.000 A 
ATOM     15  N   UNL     1      49.812   5.155  16.730  0.00  0.00    +0.000 NA
BRANCH  14  16
ATOM     16  C   UNL     1      50.254   2.760  17.211  0.00  0.00    +0.000 C 
ATOM     17  F   UNL     1      49.912   1.883  16.223  0.00  0.00    +0.000 F 
ATOM     18  F   UNL     1      51.566   3.061  16.988  0.00  0.00    +0.000 F 
ATOM     19  F   UNL     1      50.237   2.019  18.360  0.00  0.00    +0.000 F 
ENDBRANCH  14  16
ENDBRANCH   4   9
BRANCH   8  20
ATOM     20  C   UNL     1      47.366   7.192  13.797  0.00  0.00    +0.000 A 
ATOM     21  C   UNL     1      47.719   5.846  13.982  0.00  0.00    +0.000 A 
ATOM     22  C   UNL     1      46.826   4.818  13.688  0.00  0.00    +0.000 A 
ATOM     23  C   UNL     1      45.605   5.157  13.133  0.00  0.00    +0.000 A 
ATOM     24  N   UNL     1      45.254   6.432  12.824  0.00  0.00    +0.000 NA
ATOM     25  C   UNL     1      46.146   7.397  13.154  0.00  0.00    +0.000 A 
BRANCH  23  26
ATOM     26  C   UNL     1      44.598   4.095  12.827  0.00  0.00    +0.000 C 
ATOM     27  N   UNL     1      45.116   2.872  12.512  0.00  0.00    +0.000 N 
ATOM     28  O   UNL     1      43.388   4.298  12.856  0.00  0.00    +0.000 OA
ATOM     29  H   UNL     1      46.124   2.751  12.485  0.00  0.00    +0.000 HD
ATOM     30  H   UNL     1      44.496   2.110  12.274  0.00  0.00    +0.000 HD
ENDBRANCH  23  26
ENDBRANCH   8  20
TORSDOF 4
ENDMDL
MODEL 3
REMARK VINA RESULT:    -5.934      2.451      3.178
REMARK INTER + INTRA:          -8.196
REMARK INTER:                  -7.140
REMARK INTRA:                  -1.056
REMARK UNBOUND:                -0.875
REMARK  Name = 
REMARK  7 active torsions:
REMARK  status: ('A' for Active; 'I' for Inactive)
REMARK    1  A    between atoms: C_1  and  C_2
REMARK    2  A    between atoms: C_4  and  C_5
REMARK    3  A    between atoms: C_4  and  C_6
REMARK    4  A    between atoms: C_11  and  C_12
REMARK    5  A    between atoms: C_17  and  C_18
REMARK    6  A    between atoms: C_19  and  C_20
REMARK    7  A    between atoms: C_23  and  C_24
REMARK                            x       y       z     vdW  Elec       q    Type
REMARK                         _______ _______ _______ _____ _____    ______ ____
ROOT
ATOM      1  C   UNL     1      50.302   8.001  11.761  0.00  0.00    +0.000 C 
ATOM      2  C   UNL     1      50.078   8.819  13.027  0.00  0.00    +0.000 C 
ATOM      3  C   UNL     1      50.972   8.347  14.180  0.00  0.00    +0.000 C 
ATOM      4  C   UNL     1      50.287   8.780  15.515  0.00  0.00    +0.000 C 
ATOM      5  C   UNL     1      51.271   9.663  16.315  0.00  0.00    +0.000 C 
ATOM      6  C   UNL     1      48.977   9.520  15.039  0.00  0.00    +0.000 C 
ATOM      7  C   UNL     1      49.132  11.052  14.955  0.00  0.00    +0.000 C 
ATOM      8  C   UNL     1      48.649   8.924  13.625  0.00  0.00    +0.000 C 
ENDROOT
BRANCH   4   9
ATOM      9  C   UNL     1      49.971   7.585  16.440  0.00  0.00    +0.000 A 
ATOM     10  C   UNL     1      50.690   6.390  16.346  0.00  0.00    +0.000 A 
ATOM     11  C   UNL     1      50.339   5.313  17.158  0.00  0.00    +0.000 A 
ATOM     12  C   UNL     1      49.275   5.439  18.038  0.00  0.00    +0.000 A 
ATOM     13  F   UNL     1      48.935   4.390  18.796  0.00  0.00    +0.000 F 
ATOM     14  C   UNL     1      48.582   6.635  18.094  0.00  0.00    +0.000 A 
ATOM     15  N   UNL     1      48.933   7.700  17.302  0.00  0.00    +0.000 NA
BRANCH  14  16
ATOM     16  C   UNL     1      47.390   6.780  19.017  0.00  0.00    +0.000 C 
ATOM     17  F   UNL     1      46.761   7.990  18.953  0.00  0.00    +0.000 F 
ATOM     18  F   UNL     1      46.417   5.854  18.781  0.00  0.00    +0.000 F 
ATOM     19  F   UNL     1      47.730   6.630  20.333  0.00  0.00    +0.000 F 
ENDBRANCH  14  16
ENDBRANCH   4   9
BRANCH   8  20
ATOM     20  C   UNL     1      47.794   7.658  13.582  0.00  0.00    +0.000 A 
ATOM     21  C   UNL     1      46.479   7.704  13.092  0.00  0.00    +0.000 A 
ATOM     22  C   UNL     1      45.719   6.545  12.955  0.00  0.00    +0.000 A 
ATOM     23  C   UNL     1      46.268   5.352  13.390  0.00  0.00    +0.000 A 
ATOM     24  N   UNL     1      47.489   5.263  13.978  0.00  0.00    +0.000 NA
ATOM     25  C   UNL     1      48.199   6.414  14.062  0.00  0.00    +0.000 A 
BRANCH  23  26
ATOM     26  C   UNL     1      45.506   4.075  13.238  0.00  0.00    +0.000 C 
ATOM     27  N   UNL     1      44.148   4.192  13.311  0.00  0.00    +0.000 N 
ATOM     28  O   UNL     1      46.055   2.991  13.058  0.00  0.00    +0.000 OA
ATOM     29  H   UNL     1      43.736   5.105  13.476  0.00  0.00    +0.000 HD
ATOM     30  H   UNL     1      43.568   3.368  13.236  0.00  0.00    +0.000 HD
ENDBRANCH  23  26
ENDBRANCH   8  20
TORSDOF 4
ENDMDL
MODEL 4
REMARK VINA RESULT:    -5.918      2.734      5.347
REMARK INTER + INTRA:          -8.177
REMARK INTER:                  -7.302
REMARK INTRA:                  -0.875
REMARK UNBOUND:                -0.875
REMARK  Name = 
REMARK  7 active torsions:
REMARK  status: ('A' for Active; 'I' for Inactive)
REMARK    1  A    between atoms: C_1  and  C_2
REMARK    2  A    between atoms: C_4  and  C_5
REMARK    3  A    between atoms: C_4  and  C_6
REMARK    4  A    between atoms: C_11  and  C_12
REMARK    5  A    between atoms: C_17  and  C_18
REMARK    6  A    between atoms: C_19  and  C_20
REMARK    7  A    between atoms: C_23  and  C_24
REMARK                            x       y       z     vdW  Elec       q    Type
REMARK                         _______ _______ _______ _____ _____    ______ ____
ROOT
ATOM      1  C   UNL     1      47.495   9.019  19.159  0.00  0.00    +0.000 C 
ATOM      2  C   UNL     1      48.614   9.456  18.220  0.00  0.00    +0.000 C 
ATOM      3  C   UNL     1      48.072   9.952  16.874  0.00  0.00    +0.000 C 
ATOM      4  C   UNL     1      49.214   9.795  15.820  0.00  0.00    +0.000 C 
ATOM      5  C   UNL     1      49.496  11.175  15.185  0.00  0.00    +0.000 C 
ATOM      6  C   UNL     1      50.412   9.198  16.654  0.00  0.00    +0.000 C 
ATOM      7  C   UNL     1      51.408  10.264  17.152  0.00  0.00    +0.000 C 
ATOM      8  C   UNL     1      49.749   8.457  17.869  0.00  0.00    +0.000 C 
ENDROOT
BRANCH   4   9
ATOM      9  C   UNL     1      48.817   8.880  14.641  0.00  0.00    +0.000 A 
ATOM     10  C   UNL     1      49.780   8.146  13.942  0.00  0.00    +0.000 A 
ATOM     11  C   UNL     1      49.392   7.375  12.847  0.00  0.00    +0.000 A 
ATOM     12  C   UNL     1      48.060   7.358  12.462  0.00  0.00    +0.000 A 
ATOM     13  F   UNL     1      47.705   6.631  11.395  0.00  0.00    +0.000 F 
ATOM     14  C   UNL     1      47.140   8.106  13.173  0.00  0.00    +0.000 A 
ATOM     15  N   UNL     1      47.519   8.857  14.258  0.00  0.00    +0.000 NA
BRANCH  14  16
ATOM     16  C   UNL     1      45.688   8.134  12.744  0.00  0.00    +0.000 C 
ATOM     17  F   UNL     1      44.960   7.041  13.114  0.00  0.00    +0.000 F 
ATOM     18  F   UNL     1      45.007   9.207  13.240  0.00  0.00    +0.000 F 
ATOM     19  F   UNL     1      45.549   8.206  11.385  0.00  0.00    +0.000 F 
ENDBRANCH  14  16
ENDBRANCH   4   9
BRANCH   8  20
ATOM     20  C   UNL     1      49.338   7.000  17.659  0.00  0.00    +0.000 A 
ATOM     21  C   UNL     1      48.189   6.488  18.281  0.00  0.00    +0.000 A 
ATOM     22  C   UNL     1      47.745   5.192  18.026  0.00  0.00    +0.000 A 
ATOM     23  C   UNL     1      48.515   4.394  17.199  0.00  0.00    +0.000 A 
ATOM     24  N   UNL     1      49.694   4.795  16.660  0.00  0.00    +0.000 NA
ATOM     25  C   UNL     1      50.067   6.072  16.917  0.00  0.00    +0.000 A 
BRANCH  23  26
ATOM     26  C   UNL     1      48.067   3.006  16.867  0.00  0.00    +0.000 C 
ATOM     27  N   UNL     1      47.002   2.548  17.587  0.00  0.00    +0.000 N 
ATOM     28  O   UNL     1      48.613   2.319  16.009  0.00  0.00    +0.000 OA
ATOM     29  H   UNL     1      46.590   3.143  18.299  0.00  0.00    +0.000 HD
ATOM     30  H   UNL     1      46.656   1.610  17.432  0.00  0.00    +0.000 HD
ENDBRANCH  23  26
ENDBRANCH   8  20
TORSDOF 4
ENDMDL
MODEL 5
REMARK VINA RESULT:    -5.882      2.591      3.455
REMARK INTER + INTRA:          -8.132
REMARK INTER:                  -7.021
REMARK INTRA:                  -1.111
REMARK UNBOUND:                -0.875
REMARK  Name = 
REMARK  7 active torsions:
REMARK  status: ('A' for Active; 'I' for Inactive)
REMARK    1  A    between atoms: C_1  and  C_2
REMARK    2  A    between atoms: C_4  and  C_5
REMARK    3  A    between atoms: C_4  and  C_6
REMARK    4  A    between atoms: C_11  and  C_12
REMARK    5  A    between atoms: C_17  and  C_18
REMARK    6  A    between atoms: C_19  and  C_20
REMARK    7  A    between atoms: C_23  and  C_24
REMARK                            x       y       z     vdW  Elec       q    Type
REMARK                         _______ _______ _______ _____ _____    ______ ____
ROOT
ATOM      1  C   UNL     1      50.765   7.676  10.987  0.00  0.00    +0.000 C 
ATOM      2  C   UNL     1      50.197   8.891  11.711  0.00  0.00    +0.000 C 
ATOM      3  C   UNL     1      50.866   9.110  13.074  0.00  0.00    +0.000 C 
ATOM      4  C   UNL     1      49.872   9.926  13.961  0.00  0.00    +0.000 C 
ATOM      5  C   UNL     1      50.571  11.223  14.425  0.00  0.00    +0.000 C 
ATOM      6  C   UNL     1      48.628  10.151  13.017  0.00  0.00    +0.000 C 
ATOM      7  C   UNL     1      48.646  11.510  12.289  0.00  0.00    +0.000 C 
ATOM      8  C   UNL     1      48.670   8.973  11.980  0.00  0.00    +0.000 C 
ENDROOT
BRANCH   4   9
ATOM      9  C   UNL     1      49.485   9.186  15.260  0.00  0.00    +0.000 A 
ATOM     10  C   UNL     1      48.457   9.659  16.080  0.00  0.00    +0.000 A 
ATOM     11  C   UNL     1      48.174   8.998  17.275  0.00  0.00    +0.000 A 
ATOM     12  C   UNL     1      48.924   7.889  17.635  0.00  0.00    +0.000 A 
ATOM     13  F   UNL     1      48.656   7.276  18.795  0.00  0.00    +0.000 F 
ATOM     14  C   UNL     1      49.939   7.458  16.800  0.00  0.00    +0.000 A 
ATOM     15  N   UNL     1      50.212   8.102  15.620  0.00  0.00    +0.000 NA
BRANCH  14  16
ATOM     16  C   UNL     1      50.798   6.275  17.195  0.00  0.00    +0.000 C 
ATOM     17  F   UNL     1      51.410   6.392  18.410  0.00  0.00    +0.000 F 
ATOM     18  F   UNL     1      50.098   5.105  17.255  0.00  0.00    +0.000 F 
ATOM     19  F   UNL     1      51.815   6.051  16.309  0.00  0.00    +0.000 F 
ENDBRANCH  14  16
ENDBRANCH   4   9
BRANCH   8  20
ATOM     20  C   UNL     1      47.972   7.671  12.374  0.00  0.00    +0.000 A 
ATOM     21  C   UNL     1      46.618   7.468  12.066  0.00  0.00    +0.000 A 
ATOM     22  C   UNL     1      45.991   6.253  12.330  0.00  0.00    +0.000 A 
ATOM     23  C   UNL     1      46.721   5.273  12.978  0.00  0.00    +0.000 A 
ATOM     24  N   UNL     1      47.998   5.452  13.404  0.00  0.00    +0.000 NA
ATOM     25  C   UNL     1      48.571   6.641  13.098  0.00  0.00    +0.000 A 
BRANCH  23  26
ATOM     26  C   UNL     1      46.106   3.939  13.258  0.00  0.00    +0.000 C 
ATOM     27  N   UNL     1      44.749   3.880  13.116  0.00  0.00    +0.000 N 
ATOM     28  O   UNL     1      46.766   2.959  13.591  0.00  0.00    +0.000 OA
ATOM     29  H   UNL     1      44.240   4.718  12.853  0.00  0.00    +0.000 HD
ATOM     30  H   UNL     1      44.261   3.016  13.307  0.00  0.00    +0.000 HD
ENDBRANCH  23  26
ENDBRANCH   8  20
TORSDOF 4
ENDMDL
MODEL 6
REMARK VINA RESULT:    -5.790      3.093      6.001
REMARK INTER + INTRA:          -8.019
REMARK INTER:                  -6.866
REMARK INTRA:                  -1.153
REMARK UNBOUND:                -0.875
REMARK  Name = 
REMARK  7 active torsions:
REMARK  status: ('A' for Active; 'I' for Inactive)
REMARK    1  A    between atoms: C_1  and  C_2
REMARK    2  A    between atoms: C_4  and  C_5
REMARK    3  A    between atoms: C_4  and  C_6
REMARK    4  A    between atoms: C_11  and  C_12
REMARK    5  A    between atoms: C_17  and  C_18
REMARK    6  A    between atoms: C_19  and  C_20
REMARK    7  A    between atoms: C_23  and  C_24
REMARK                            x       y       z     vdW  Elec       q    Type
REMARK                         _______ _______ _______ _____ _____    ______ ____
ROOT
ATOM      1  C   UNL     1      47.507   7.106  19.951  0.00  0.00    +0.000 C 
ATOM      2  C   UNL     1      48.485   8.081  19.307  0.00  0.00    +0.000 C 
ATOM      3  C   UNL     1      47.901   8.728  18.044  0.00  0.00    +0.000 C 
ATOM      4  C   UNL     1      49.099   9.194  17.157  0.00  0.00    +0.000 C 
ATOM      5  C   UNL     1      48.964  10.711  16.899  0.00  0.00    +0.000 C 
ATOM      6  C   UNL     1      50.368   8.779  17.996  0.00  0.00    +0.000 C 
ATOM      7  C   UNL     1      50.935   9.923  18.860  0.00  0.00    +0.000 C 
ATOM      8  C   UNL     1      49.900   7.587  18.904  0.00  0.00    +0.000 C 
ENDROOT
BRANCH   4   9
ATOM      9  C   UNL     1      49.093   8.542  15.757  0.00  0.00    +0.000 A 
ATOM     10  C   UNL     1      50.260   8.002  15.208  0.00  0.00    +0.000 A 
ATOM     11  C   UNL     1      50.230   7.474  13.918  0.00  0.00    +0.000 A 
ATOM     12  C   UNL     1      49.046   7.503  13.196  0.00  0.00    +0.000 A 
ATOM     13  F   UNL     1      49.037   7.012  11.951  0.00  0.00    +0.000 F 
ATOM     14  C   UNL     1      47.916   8.055  13.771  0.00  0.00    +0.000 A 
ATOM     15  N   UNL     1      47.942   8.566  15.045  0.00  0.00    +0.000 NA
BRANCH  14  16
ATOM     16  C   UNL     1      46.625   8.135  12.985  0.00  0.00    +0.000 C 
ATOM     17  F   UNL     1      45.618   8.818  13.604  0.00  0.00    +0.000 F 
ATOM     18  F   UNL     1      46.776   8.738  11.770  0.00  0.00    +0.000 F 
ATOM     19  F   UNL     1      46.100   6.900  12.719  0.00  0.00    +0.000 F 
ENDBRANCH  14  16
ENDBRANCH   4   9
BRANCH   8  20
ATOM     20  C   UNL     1      49.992   6.181  18.312  0.00  0.00    +0.000 A 
ATOM     21  C   UNL     1      51.189   5.452  18.392  0.00  0.00    +0.000 A 
ATOM     22  C   UNL     1      51.264   4.135  17.945  0.00  0.00    +0.000 A 
ATOM     23  C   UNL     1      50.144   3.587  17.346  0.00  0.00    +0.000 A 
ATOM     24  N   UNL     1      48.995   4.280  17.137  0.00  0.00    +0.000 NA
ATOM     25  C   UNL     1      48.964   5.548  17.614  0.00  0.00    +0.000 A 
BRANCH  23  26
ATOM     26  C   UNL     1      50.161   2.168  16.877  0.00  0.00    +0.000 C 
ATOM     27  N   UNL     1      50.991   1.334  17.569  0.00  0.00    +0.000 N 
ATOM     28  O   UNL     1      49.479   1.769  15.937  0.00  0.00    +0.000 OA
ATOM     29  H   UNL     1      51.549   1.707  18.331  0.00  0.00    +0.000 HD
ATOM     30  H   UNL     1      51.070   0.363  17.296  0.00  0.00    +0.000 HD
ENDBRANCH  23  26
ENDBRANCH   8  20
TORSDOF 4
ENDMDL
MODEL 7
REMARK VINA RESULT:    -5.603      2.973      4.911
REMARK INTER + INTRA:          -7.788
REMARK INTER:                  -6.627
REMARK INTRA:                  -1.161
REMARK UNBOUND:                -0.875
REMARK  Name = 
REMARK  7 active torsions:
REMARK  status: ('A' for Active; 'I' for Inactive)
REMARK    1  A    between atoms: C_1  and  C_2
REMARK    2  A    between atoms: C_4  and  C_5
REMARK    3  A    between atoms: C_4  and  C_6
REMARK    4  A    between atoms: C_11  and  C_12
REMARK    5  A    between atoms: C_17  and  C_18
REMARK    6  A    between atoms: C_19  and  C_20
REMARK    7  A    between atoms: C_23  and  C_24
REMARK                            x       y       z     vdW  Elec       q    Type
REMARK                         _______ _______ _______ _____ _____    ______ ____
ROOT
ATOM      1  C   UNL     1      53.365   8.339  17.664  0.00  0.00    +0.000 C 
ATOM      2  C   UNL     1      52.342   7.845  18.680  0.00  0.00    +0.000 C 
ATOM      3  C   UNL     1      52.568   6.373  19.050  0.00  0.00    +0.000 C 
ATOM      4  C   UNL     1      51.208   5.804  19.567  0.00  0.00    +0.000 C 
ATOM      5  C   UNL     1      51.412   5.253  20.996  0.00  0.00    +0.000 C 
ATOM      6  C   UNL     1      50.227   7.036  19.471  0.00  0.00    +0.000 C 
ATOM      7  C   UNL     1      50.080   7.811  20.796  0.00  0.00    +0.000 C 
ATOM      8  C   UNL     1      50.828   7.965  18.357  0.00  0.00    +0.000 C 
ENDROOT
BRANCH   4   9
ATOM      9  C   UNL     1      50.709   4.602  18.737  0.00  0.00    +0.000 A 
ATOM     10  C   UNL     1      51.601   3.648  18.240  0.00  0.00    +0.000 A 
ATOM     11  C   UNL     1      51.121   2.608  17.445  0.00  0.00    +0.000 A 
ATOM     12  C   UNL     1      49.767   2.543  17.152  0.00  0.00    +0.000 A 
ATOM     13  F   UNL     1      49.322   1.551  16.371  0.00  0.00    +0.000 F 
ATOM     14  C   UNL     1      48.918   3.511  17.655  0.00  0.00    +0.000 A 
ATOM     15  N   UNL     1      49.388   4.530  18.445  0.00  0.00    +0.000 NA
BRANCH  14  16
ATOM     16  C   UNL     1      47.443   3.482  17.312  0.00  0.00    +0.000 C 
ATOM     17  F   UNL     1      46.768   2.393  17.782  0.00  0.00    +0.000 F 
ATOM     18  F   UNL     1      46.763   4.564  17.791  0.00  0.00    +0.000 F 
ATOM     19  F   UNL     1      47.223   3.478  15.963  0.00  0.00    +0.000 F 
ENDBRANCH  14  16
ENDBRANCH   4   9
BRANCH   8  20
ATOM     20  C   UNL     1      50.411   7.685  16.914  0.00  0.00    +0.000 A 
ATOM     21  C   UNL     1      49.126   7.198  16.627  0.00  0.00    +0.000 A 
ATOM     22  C   UNL     1      48.694   7.028  15.313  0.00  0.00    +0.000 A 
ATOM     23  C   UNL     1      49.597   7.279  14.296  0.00  0.00    +0.000 A 
ATOM     24  N   UNL     1      50.887   7.640  14.515  0.00  0.00    +0.000 NA
ATOM     25  C   UNL     1      51.249   7.818  15.808  0.00  0.00    +0.000 A 
BRANCH  23  26
ATOM     26  C   UNL     1      49.176   7.142  12.868  0.00  0.00    +0.000 C 
ATOM     27  N   UNL     1      50.167   7.323  11.946  0.00  0.00    +0.000 N 
ATOM     28  O   UNL     1      48.022   6.885  12.536  0.00  0.00    +0.000 OA
ATOM     29  H   UNL     1      51.105   7.549  12.262  0.00  0.00    +0.000 HD
ATOM     30  H   UNL     1      49.953   7.265  10.960  0.00  0.00    +0.000 HD
ENDBRANCH  23  26
ENDBRANCH   8  20
TORSDOF 4
ENDMDL
MODEL 8
REMARK VINA RESULT:    -5.366      3.144      4.957
REMARK INTER + INTRA:          -7.496
REMARK INTER:                  -6.847
REMARK INTRA:                  -0.649
REMARK UNBOUND:                -0.875
REMARK  Name = 
REMARK  7 active torsions:
REMARK  status: ('A' for Active; 'I' for Inactive)
REMARK    1  A    between atoms: C_1  and  C_2
REMARK    2  A    between atoms: C_4  and  C_5
REMARK    3  A    between atoms: C_4  and  C_6
REMARK    4  A    between atoms: C_11  and  C_12
REMARK    5  A    between atoms: C_17  and  C_18
REMARK    6  A    between atoms: C_19  and  C_20
REMARK    7  A    between atoms: C_23  and  C_24
REMARK                            x       y       z     vdW  Elec       q    Type
REMARK                         _______ _______ _______ _____ _____    ______ ____
ROOT
ATOM      1  C   UNL     1      47.575   6.598  18.620  0.00  0.00    +0.000 C 
ATOM      2  C   UNL     1      48.964   6.800  18.025  0.00  0.00    +0.000 C 
ATOM      3  C   UNL     1      49.161   8.228  17.502  0.00  0.00    +0.000 C 
ATOM      4  C   UNL     1      50.287   8.182  16.421  0.00  0.00    +0.000 C 
ATOM      5  C   UNL     1      51.416   9.151  16.839  0.00  0.00    +0.000 C 
ATOM      6  C   UNL     1      50.705   6.662  16.382  0.00  0.00    +0.000 C 
ATOM      7  C   UNL     1      51.930   6.338  17.260  0.00  0.00    +0.000 C 
ATOM      8  C   UNL     1      49.447   5.868  16.882  0.00  0.00    +0.000 C 
ENDROOT
BRANCH   4   9
ATOM      9  C   UNL     1      49.811   8.686  15.041  0.00  0.00    +0.000 A 
ATOM     10  C   UNL     1      48.598   9.367  14.900  0.00  0.00    +0.000 A 
ATOM     11  C   UNL     1      48.174   9.756  13.630  0.00  0.00    +0.000 A 
ATOM     12  C   UNL     1      48.957   9.453  12.526  0.00  0.00    +0.000 A 
ATOM     13  F   UNL     1      48.527   9.813  11.311  0.00  0.00    +0.000 F 
ATOM     14  C   UNL     1      50.145   8.769  12.707  0.00  0.00    +0.000 A 
ATOM     15  N   UNL     1      50.569   8.395  13.957  0.00  0.00    +0.000 NA
BRANCH  14  16
ATOM     16  C   UNL     1      50.994   8.391  11.511  0.00  0.00    +0.000 C 
ATOM     17  F   UNL     1      50.486   7.381  10.745  0.00  0.00    +0.000 F 
ATOM     18  F   UNL     1      51.195   9.430  10.650  0.00  0.00    +0.000 F 
ATOM     19  F   UNL     1      52.242   7.965  11.872  0.00  0.00    +0.000 F 
ENDBRANCH  14  16
ENDBRANCH   4   9
BRANCH   8  20
ATOM     20  C   UNL     1      48.407   5.475  15.833  0.00  0.00    +0.000 A 
ATOM     21  C   UNL     1      48.245   6.243  14.669  0.00  0.00    +0.000 A 
ATOM     22  C   UNL     1      47.371   5.847  13.658  0.00  0.00    +0.000 A 
ATOM     23  C   UNL     1      46.606   4.714  13.868  0.00  0.00    +0.000 A 
ATOM     24  N   UNL     1      46.635   3.997  15.020  0.00  0.00    +0.000 NA
ATOM     25  C   UNL     1      47.520   4.406  15.960  0.00  0.00    +0.000 A 
BRANCH  23  26
ATOM     26  C   UNL     1      45.676   4.229  12.802  0.00  0.00    +0.000 C 
ATOM     27  N   UNL     1      45.479   2.879  12.769  0.00  0.00    +0.000 N 
ATOM     28  O   UNL     1      45.123   4.985  12.008  0.00  0.00    +0.000 OA
ATOM     29  H   UNL     1      45.968   2.288  13.435  0.00  0.00    +0.000 HD
ATOM     30  H   UNL     1      44.878   2.476  12.063  0.00  0.00    +0.000 HD
ENDBRANCH  23  26
ENDBRANCH   8  20
TORSDOF 4
ENDMDL
MODEL 9
REMARK VINA RESULT:    -5.061     10.758     12.946
REMARK INTER + INTRA:          -7.119
REMARK INTER:                  -6.459
REMARK INTRA:                  -0.660
REMARK UNBOUND:                -0.875
REMARK  Name = 
REMARK  7 active torsions:
REMARK  status: ('A' for Active; 'I' for Inactive)
REMARK    1  A    between atoms: C_1  and  C_2
REMARK    2  A    between atoms: C_4  and  C_5
REMARK    3  A    between atoms: C_4  and  C_6
REMARK    4  A    between atoms: C_11  and  C_12
REMARK    5  A    between atoms: C_17  and  C_18
REMARK    6  A    between atoms: C_19  and  C_20
REMARK    7  A    between atoms: C_23  and  C_24
REMARK                            x       y       z     vdW  Elec       q    Type
REMARK                         _______ _______ _______ _____ _____    ______ ____
ROOT
ATOM      1  C   UNL     1      38.918  -4.961  18.810  0.00  0.00    +0.000 C 
ATOM      2  C   UNL     1      39.260  -3.626  19.460  0.00  0.00    +0.000 C 
ATOM      3  C   UNL     1      38.055  -2.677  19.489  0.00  0.00    +0.000 C 
ATOM      4  C   UNL     1      38.607  -1.219  19.584  0.00  0.00    +0.000 C 
ATOM      5  C   UNL     1      38.016  -0.546  20.843  0.00  0.00    +0.000 C 
ATOM      6  C   UNL     1      40.172  -1.413  19.613  0.00  0.00    +0.000 C 
ATOM      7  C   UNL     1      40.764  -1.423  21.037  0.00  0.00    +0.000 C 
ATOM      8  C   UNL     1      40.438  -2.784  18.899  0.00  0.00    +0.000 C 
ENDROOT
BRANCH   4   9
ATOM      9  C   UNL     1      38.156  -0.332  18.402  0.00  0.00    +0.000 A 
ATOM     10  C   UNL     1      37.468  -0.876  17.313  0.00  0.00    +0.000 A 
ATOM     11  C   UNL     1      37.129  -0.056  16.238  0.00  0.00    +0.000 A 
ATOM     12  C   UNL     1      37.488   1.283  16.261  0.00  0.00    +0.000 A 
ATOM     13  F   UNL     1      37.175   2.054  15.213  0.00  0.00    +0.000 F 
ATOM     14  C   UNL     1      38.177   1.780  17.352  0.00  0.00    +0.000 A 
ATOM     15  N   UNL     1      38.503   0.976  18.416  0.00  0.00    +0.000 NA
BRANCH  14  16
ATOM     16  C   UNL     1      38.617   3.229  17.378  0.00  0.00    +0.000 C 
ATOM     17  F   UNL     1      39.857   3.461  16.857  0.00  0.00    +0.000 F 
ATOM     18  F   UNL     1      37.776   4.054  16.689  0.00  0.00    +0.000 F 
ATOM     19  F   UNL     1      38.669   3.735  18.648  0.00  0.00    +0.000 F 
ENDBRANCH  14  16
ENDBRANCH   4   9
BRANCH   8  20
ATOM     20  C   UNL     1      40.600  -2.760  17.379  0.00  0.00    +0.000 A 
ATOM     21  C   UNL     1      40.965  -3.924  16.684  0.00  0.00    +0.000 A 
ATOM     22  C   UNL     1      41.023  -3.946  15.292  0.00  0.00    +0.000 A 
ATOM     23  C   UNL     1      40.787  -2.764  14.614  0.00  0.00    +0.000 A 
ATOM     24  N   UNL     1      40.543  -1.582  15.236  0.00  0.00    +0.000 NA
ATOM     25  C   UNL     1      40.470  -1.620  16.588  0.00  0.00    +0.000 A 
BRANCH  23  26
ATOM     26  C   UNL     1      40.806  -2.740  13.119  0.00  0.00    +0.000 C 
ATOM     27  N   UNL     1      39.584  -2.832  12.517  0.00  0.00    +0.000 N 
ATOM     28  O   UNL     1      41.843  -2.643  12.469  0.00  0.00    +0.000 OA
ATOM     29  H   UNL     1      38.753  -2.926  13.092  0.00  0.00    +0.000 HD
ATOM     30  H   UNL     1      39.521  -2.842  11.508  0.00  0.00    +0.000 HD
ENDBRANCH  23  26
ENDBRANCH   8  20
TORSDOF 4
ENDMDL
