MODEL 1
REMARK VINA RESULT:    -8.177      0.000      0.000
REMARK INTER + INTRA:         -11.501
REMARK INTER:                 -10.568
REMARK INTRA:                  -0.933
REMARK UNBOUND:                -0.933
REMARK  Name = 
REMARK  5 active torsions:
REMARK  status: ('A' for Active; 'I' for Inactive)
REMARK    1  A    between atoms: C_2  and  C_19
REMARK    2  A    between atoms: N_3  and  C_4
REMARK    3  A    between atoms: C_4  and  C_5
REMARK    4  A    between atoms: C_8  and  C_9
REMARK    5  A    between atoms: C_9  and  N_10
REMARK                            x       y       z     vdW  Elec       q    Type
REMARK                         _______ _______ _______ _____ _____    ______ ____
ROOT
ATOM      1  C   UNL     1      47.969   7.079  13.571  0.00  0.00    +0.000 C 
ENDROOT
BRANCH   1   2
ATOM      2  C   UNL     1      46.916   6.292  12.846  0.00  0.00    +0.000 A 
ATOM      3  C   UNL     1      46.510   5.038  13.302  0.00  0.00    +0.000 A 
ATOM      4  C   UNL     1      45.530   4.334  12.609  0.00  0.00    +0.000 A 
ATOM      5  C   UNL     1      44.970   4.902  11.466  0.00  0.00    +0.000 A 
ATOM      6  N   UNL     1      45.302   6.148  11.037  0.00  0.00    +0.000 NA
ATOM      7  C   UNL     1      46.258   6.807  11.733  0.00  0.00    +0.000 A 
BRANCH   5   8
ATOM      8  C   UNL     1      43.991   4.101  10.627  0.00  0.00    +0.000 C 
BRANCH   8   9
ATOM      9  N   UNL     1      44.144   4.391   9.211  0.00  0.00    +0.000 N 
ATOM     10  C   UNL     1      45.049   3.529   8.602  0.00  0.00    +0.000 A 
ATOM     11  N   UNL     1      45.123   2.247   9.001  0.00  0.00    +0.000 NA
ATOM     12  C   UNL     1      46.025   1.460   8.389  0.00  0.00    +0.000 A 
ATOM     13  C   UNL     1      46.857   1.896   7.389  0.00  0.00    +0.000 A 
ATOM     14  C   UNL     1      46.705   3.220   7.047  0.00  0.00    +0.000 A 
ATOM     15  N   UNL     1      45.822   4.050   7.639  0.00  0.00    +0.000 NA
ATOM     16  H   UNL     1      44.473   5.332   9.019  0.00  0.00    +0.000 HD
ENDBRANCH   8   9
ENDBRANCH   5   8
ENDBRANCH   1   2
BRANCH   1  19
ATOM     17  O   UNL     1      48.387   8.198  16.184  0.00  0.00    +0.000 OA
ATOM     18  C   UNL     1      48.650   7.027  15.947  0.00  0.00    +0.000 C 
ATOM     19  N   UNL     1      48.356   6.380  14.765  0.00  0.00    +0.000 N 
ATOM     20  H   UNL     1      48.781   5.479  14.613  0.00  0.00    +0.000 HD
BRANCH  18  21
ATOM     21  C   UNL     1      49.502   6.204  16.797  0.00  0.00    +0.000 A 
ATOM     22  C   UNL     1      50.689   6.667  17.338  0.00  0.00    +0.000 A 
ATOM     23  S   UNL     1      51.723   5.374  17.789  0.00  0.00    +0.000 S 
ATOM     24  C   UNL     1      50.541   4.212  17.389  0.00  0.00    +0.000 A 
ATOM     25  N   UNL     1      50.799   2.878  17.376  0.00  0.00    +0.000 NA
ATOM     26  C   UNL     1      49.772   2.142  17.099  0.00  0.00    +0.000 A 
ATOM     27  N   UNL     1      48.501   2.611  16.888  0.00  0.00    +0.000 N 
ATOM     28  C   UNL     1      48.189   3.950  16.884  0.00  0.00    +0.000 A 
ATOM     29  O   UNL     1      47.044   4.352  16.721  0.00  0.00    +0.000 OA
ATOM     30  C   UNL     1      49.342   4.809  17.071  0.00  0.00    +0.000 A 
ATOM     31  H   UNL     1      47.725   1.979  16.752  0.00  0.00    +0.000 HD
ENDBRANCH  18  21
ENDBRANCH   1  19
TORSDOF 5
ENDMDL
MODEL 2
REMARK VINA RESULT:    -7.990      2.063      2.619
REMARK INTER + INTRA:         -11.258
REMARK INTER:                 -10.352
REMARK INTRA:                  -0.906
REMARK UNBOUND:                -0.933
REMARK  Name = 
REMARK  5 active torsions:
REMARK  status: ('A' for Active; 'I' for Inactive)
REMARK    1  A    between atoms: C_2  and  C_19
REMARK    2  A    between atoms: N_3  and  C_4
REMARK    3  A    between atoms: C_4  and  C_5
REMARK    4  A    between atoms: C_8  and  C_9
REMARK    5  A    between atoms: C_9  and  N_10
REMARK                            x       y       z     vdW  Elec       q    Type
REMARK                         _______ _______ _______ _____ _____    ______ ____
ROOT
ATOM      1  C   UNL     1      47.495   7.413  13.238  0.00  0.00    +0.000 C 
ENDROOT
BRANCH   1   2
ATOM      2  C   UNL     1      46.573   6.480  12.509  0.00  0.00    +0.000 A 
ATOM      3  C   UNL     1      46.324   5.193  12.986  0.00  0.00    +0.000 A 
ATOM      4  C   UNL     1      45.462   4.351  12.288  0.00  0.00    +0.000 A 
ATOM      5  C   UNL     1      44.862   4.816  11.120  0.00  0.00    +0.000 A 
ATOM      6  N   UNL     1      45.038   6.086  10.669  0.00  0.00    +0.000 NA
ATOM      7  C   UNL     1      45.881   6.880  11.369  0.00  0.00    +0.000 A 
BRANCH   5   8
ATOM      8  C   UNL     1      44.017   3.876  10.279  0.00  0.00    +0.000 C 
BRANCH   8   9
ATOM      9  N   UNL     1      44.162   4.159   8.860  0.00  0.00    +0.000 N 
ATOM     10  C   UNL     1      45.157   3.382   8.278  0.00  0.00    +0.000 A 
ATOM     11  N   UNL     1      45.353   2.120   8.699  0.00  0.00    +0.000 NA
ATOM     12  C   UNL     1      46.339   1.419   8.112  0.00  0.00    +0.000 A 
ATOM     13  C   UNL     1      47.137   1.920   7.116  0.00  0.00    +0.000 A 
ATOM     14  C   UNL     1      46.859   3.218   6.749  0.00  0.00    +0.000 A 
ATOM     15  N   UNL     1      45.888   3.964   7.316  0.00  0.00    +0.000 NA
ATOM     16  H   UNL     1      44.398   5.124   8.657  0.00  0.00    +0.000 HD
ENDBRANCH   8   9
ENDBRANCH   5   8
ENDBRANCH   1   2
BRANCH   1  19
ATOM     17  O   UNL     1      49.884   6.869  14.739  0.00  0.00    +0.000 OA
ATOM     18  C   UNL     1      48.776   6.664  15.216  0.00  0.00    +0.000 C 
ATOM     19  N   UNL     1      47.586   7.021  14.618  0.00  0.00    +0.000 N 
ATOM     20  H   UNL     1      46.739   6.640  15.009  0.00  0.00    +0.000 HD
BRANCH  18  21
ATOM     21  C   UNL     1      48.544   5.823  16.384  0.00  0.00    +0.000 A 
ATOM     22  C   UNL     1      48.026   4.544  16.293  0.00  0.00    +0.000 A 
ATOM     23  S   UNL     1      47.344   4.032  17.784  0.00  0.00    +0.000 S 
ATOM     24  C   UNL     1      47.858   5.454  18.573  0.00  0.00    +0.000 A 
ATOM     25  N   UNL     1      47.481   5.766  19.840  0.00  0.00    +0.000 NA
ATOM     26  C   UNL     1      48.005   6.856  20.297  0.00  0.00    +0.000 A 
ATOM     27  N   UNL     1      48.914   7.633  19.626  0.00  0.00    +0.000 N 
ATOM     28  C   UNL     1      49.323   7.365  18.341  0.00  0.00    +0.000 A 
ATOM     29  O   UNL     1      50.156   8.054  17.764  0.00  0.00    +0.000 OA
ATOM     30  C   UNL     1      48.660   6.217  17.755  0.00  0.00    +0.000 A 
ATOM     31  H   UNL     1      49.347   8.433  20.067  0.00  0.00    +0.000 HD
ENDBRANCH  18  21
ENDBRANCH   1  19
TORSDOF 5
ENDMDL
MODEL 3
REMARK VINA RESULT:    -7.559      3.109      8.296
REMARK INTER + INTRA:         -10.701
REMARK INTER:                  -9.786
REMARK INTRA:                  -0.915
REMARK UNBOUND:                -0.933
REMARK  Name = 
REMARK  5 active torsions:
REMARK  status: ('A' for Active; 'I' for Inactive)
REMARK    1  A    between atoms: C_2  and  C_19
REMARK    2  A    between atoms: N_3  and  C_4
REMARK    3  A    between atoms: C_4  and  C_5
REMARK    4  A    between atoms: C_8  and  C_9
REMARK    5  A    between atoms: C_9  and  N_10
REMARK                            x       y       z     vdW  Elec       q    Type
REMARK                         _______ _______ _______ _____ _____    ______ ____
ROOT
ATOM      1  C   UNL     1      47.544   6.825  12.241  0.00  0.00    +0.000 C 
ENDROOT
BRANCH   1   2
ATOM      2  C   UNL     1      47.737   6.225  13.604  0.00  0.00    +0.000 A 
ATOM      3  C   UNL     1      47.003   5.111  14.012  0.00  0.00    +0.000 A 
ATOM      4  C   UNL     1      47.205   4.577  15.281  0.00  0.00    +0.000 A 
ATOM      5  C   UNL     1      48.145   5.170  16.123  0.00  0.00    +0.000 A 
ATOM      6  N   UNL     1      48.917   6.215  15.726  0.00  0.00    +0.000 NA
ATOM      7  C   UNL     1      48.697   6.712  14.487  0.00  0.00    +0.000 A 
BRANCH   5   8
ATOM      8  C   UNL     1      48.294   4.680  17.552  0.00  0.00    +0.000 C 
BRANCH   8   9
ATOM      9  N   UNL     1      48.499   3.242  17.602  0.00  0.00    +0.000 N 
ATOM     10  C   UNL     1      49.847   2.916  17.695  0.00  0.00    +0.000 A 
ATOM     11  N   UNL     1      50.679   3.703  18.401  0.00  0.00    +0.000 NA
ATOM     12  C   UNL     1      51.976   3.349  18.445  0.00  0.00    +0.000 A 
ATOM     13  C   UNL     1      52.480   2.238  17.819  0.00  0.00    +0.000 A 
ATOM     14  C   UNL     1      51.553   1.493  17.125  0.00  0.00    +0.000 A 
ATOM     15  N   UNL     1      50.245   1.814  17.044  0.00  0.00    +0.000 NA
ATOM     16  H   UNL     1      48.142   2.749  16.791  0.00  0.00    +0.000 HD
ENDBRANCH   8   9
ENDBRANCH   5   8
ENDBRANCH   1   2
BRANCH   1  19
ATOM     17  O   UNL     1      44.809   7.382  11.562  0.00  0.00    +0.000 OA
ATOM     18  C   UNL     1      45.318   6.300  11.303  0.00  0.00    +0.000 C 
ATOM     19  N   UNL     1      46.654   6.000  11.473  0.00  0.00    +0.000 N 
ATOM     20  H   UNL     1      46.923   5.032  11.404  0.00  0.00    +0.000 HD
BRANCH  18  21
ATOM     21  C   UNL     1      44.550   5.104  10.979  0.00  0.00    +0.000 A 
ATOM     22  C   UNL     1      43.515   4.642  11.774  0.00  0.00    +0.000 A 
ATOM     23  S   UNL     1      43.191   2.982  11.484  0.00  0.00    +0.000 S 
ATOM     24  C   UNL     1      44.330   2.920  10.217  0.00  0.00    +0.000 A 
ATOM     25  N   UNL     1      44.693   1.759   9.612  0.00  0.00    +0.000 NA
ATOM     26  C   UNL     1      45.530   1.907   8.638  0.00  0.00    +0.000 A 
ATOM     27  N   UNL     1      45.996   3.111   8.177  0.00  0.00    +0.000 N 
ATOM     28  C   UNL     1      45.665   4.313   8.756  0.00  0.00    +0.000 A 
ATOM     29  O   UNL     1      46.067   5.382   8.315  0.00  0.00    +0.000 OA
ATOM     30  C   UNL     1      44.823   4.173   9.928  0.00  0.00    +0.000 A 
ATOM     31  H   UNL     1      46.589   3.165   7.361  0.00  0.00    +0.000 HD
ENDBRANCH  18  21
ENDBRANCH   1  19
TORSDOF 5
ENDMDL
MODEL 4
REMARK VINA RESULT:    -7.316      3.107      8.111
REMARK INTER + INTRA:         -10.387
REMARK INTER:                  -9.537
REMARK INTRA:                  -0.850
REMARK UNBOUND:                -0.933
REMARK  Name = 
REMARK  5 active torsions:
REMARK  status: ('A' for Active; 'I' for Inactive)
REMARK    1  A    between atoms: C_2  and  C_19
REMARK    2  A    between atoms: N_3  and  C_4
REMARK    3  A    between atoms: C_4  and  C_5
REMARK    4  A    between atoms: C_8  and  C_9
REMARK    5  A    between atoms: C_9  and  N_10
REMARK                            x       y       z     vdW  Elec       q    Type
REMARK                         _______ _______ _______ _____ _____    ______ ____
ROOT
ATOM      1  C   UNL     1      47.100   8.258  13.004  0.00  0.00    +0.000 C 
ENDROOT
BRANCH   1   2
ATOM      2  C   UNL     1      47.868   7.625  14.128  0.00  0.00    +0.000 A 
ATOM      3  C   UNL     1      48.503   8.404  15.096  0.00  0.00    +0.000 A 
ATOM      4  C   UNL     1      49.206   7.787  16.127  0.00  0.00    +0.000 A 
ATOM      5  C   UNL     1      49.259   6.395  16.171  0.00  0.00    +0.000 A 
ATOM      6  N   UNL     1      48.597   5.615  15.278  0.00  0.00    +0.000 NA
ATOM      7  C   UNL     1      47.922   6.244  14.288  0.00  0.00    +0.000 A 
BRANCH   5   8
ATOM      8  C   UNL     1      50.120   5.705  17.214  0.00  0.00    +0.000 C 
BRANCH   8   9
ATOM      9  N   UNL     1      49.667   4.347  17.462  0.00  0.00    +0.000 N 
ATOM     10  C   UNL     1      50.733   3.472  17.639  0.00  0.00    +0.000 A 
ATOM     11  N   UNL     1      51.849   3.894  18.259  0.00  0.00    +0.000 NA
ATOM     12  C   UNL     1      52.855   3.011  18.391  0.00  0.00    +0.000 A 
ATOM     13  C   UNL     1      52.794   1.719  17.934  0.00  0.00    +0.000 A 
ATOM     14  C   UNL     1      51.611   1.378  17.318  0.00  0.00    +0.000 A 
ATOM     15  N   UNL     1      50.580   2.231  17.154  0.00  0.00    +0.000 NA
ATOM     16  H   UNL     1      49.103   3.960  16.713  0.00  0.00    +0.000 HD
ENDBRANCH   8   9
ENDBRANCH   5   8
ENDBRANCH   1   2
BRANCH   1  19
ATOM     17  O   UNL     1      44.734   7.911  11.412  0.00  0.00    +0.000 OA
ATOM     18  C   UNL     1      45.669   7.126  11.336  0.00  0.00    +0.000 C 
ATOM     19  N   UNL     1      46.887   7.293  11.961  0.00  0.00    +0.000 N 
ATOM     20  H   UNL     1      47.510   6.502  11.980  0.00  0.00    +0.000 HD
BRANCH  18  21
ATOM     21  C   UNL     1      45.560   5.796  10.748  0.00  0.00    +0.000 A 
ATOM     22  C   UNL     1      45.869   5.537   9.424  0.00  0.00    +0.000 A 
ATOM     23  S   UNL     1      45.128   4.089   8.876  0.00  0.00    +0.000 S 
ATOM     24  C   UNL     1      44.514   3.746  10.429  0.00  0.00    +0.000 A 
ATOM     25  N   UNL     1      43.643   2.731  10.666  0.00  0.00    +0.000 NA
ATOM     26  C   UNL     1      43.322   2.586  11.911  0.00  0.00    +0.000 A 
ATOM     27  N   UNL     1      43.833   3.326  12.946  0.00  0.00    +0.000 N 
ATOM     28  C   UNL     1      44.711   4.367  12.760  0.00  0.00    +0.000 A 
ATOM     29  O   UNL     1      45.180   5.000  13.697  0.00  0.00    +0.000 OA
ATOM     30  C   UNL     1      44.997   4.634  11.364  0.00  0.00    +0.000 A 
ATOM     31  H   UNL     1      43.601   3.113  13.906  0.00  0.00    +0.000 HD
ENDBRANCH  18  21
ENDBRANCH   1  19
TORSDOF 5
ENDMDL
MODEL 5
REMARK VINA RESULT:    -7.096      3.183      8.823
REMARK INTER + INTRA:         -10.104
REMARK INTER:                  -9.363
REMARK INTRA:                  -0.741
REMARK UNBOUND:                -0.933
REMARK  Name = 
REMARK  5 active torsions:
REMARK  status: ('A' for Active; 'I' for Inactive)
REMARK    1  A    between atoms: C_2  and  C_19
REMARK    2  A    between atoms: N_3  and  C_4
REMARK    3  A    between atoms: C_4  and  C_5
REMARK    4  A    between atoms: C_8  and  C_9
REMARK    5  A    between atoms: C_9  and  N_10
REMARK                            x       y       z     vdW  Elec       q    Type
REMARK                         _______ _______ _______ _____ _____    ______ ____
ROOT
ATOM      1  C   UNL     1      47.013   3.618  16.779  0.00  0.00    +0.000 C 
ENDROOT
BRANCH   1   2
ATOM      2  C   UNL     1      48.481   3.593  17.097  0.00  0.00    +0.000 A 
ATOM      3  C   UNL     1      49.207   2.402  17.057  0.00  0.00    +0.000 A 
ATOM      4  C   UNL     1      50.566   2.410  17.355  0.00  0.00    +0.000 A 
ATOM      5  C   UNL     1      51.178   3.617  17.688  0.00  0.00    +0.000 A 
ATOM      6  N   UNL     1      50.508   4.799  17.671  0.00  0.00    +0.000 NA
ATOM      7  C   UNL     1      49.187   4.758  17.378  0.00  0.00    +0.000 A 
BRANCH   5   8
ATOM      8  C   UNL     1      52.629   3.631  18.134  0.00  0.00    +0.000 C 
BRANCH   8   9
ATOM      9  N   UNL     1      52.942   2.474  18.955  0.00  0.00    +0.000 N 
ATOM     10  C   UNL     1      53.717   1.547  18.266  0.00  0.00    +0.000 A 
ATOM     11  N   UNL     1      54.639   1.971  17.384  0.00  0.00    +0.000 NA
ATOM     12  C   UNL     1      55.350   1.032  16.735  0.00  0.00    +0.000 A 
ATOM     13  C   UNL     1      55.185  -0.315  16.931  0.00  0.00    +0.000 A 
ATOM     14  C   UNL     1      54.222  -0.652  17.856  0.00  0.00    +0.000 A 
ATOM     15  N   UNL     1      53.478   0.253  18.524  0.00  0.00    +0.000 NA
ATOM     16  H   UNL     1      52.124   1.972  19.285  0.00  0.00    +0.000 HD
ENDBRANCH   8   9
ENDBRANCH   5   8
ENDBRANCH   1   2
BRANCH   1  19
ATOM     17  O   UNL     1      47.225   3.208  13.944  0.00  0.00    +0.000 OA
ATOM     18  C   UNL     1      47.009   4.319  14.409  0.00  0.00    +0.000 C 
ATOM     19  N   UNL     1      46.762   4.578  15.740  0.00  0.00    +0.000 N 
ATOM     20  H   UNL     1      46.782   5.541  16.036  0.00  0.00    +0.000 HD
BRANCH  18  21
ATOM     21  C   UNL     1      47.192   5.556  13.659  0.00  0.00    +0.000 A 
ATOM     22  C   UNL     1      48.179   6.477  13.965  0.00  0.00    +0.000 A 
ATOM     23  S   UNL     1      47.812   8.028  13.329  0.00  0.00    +0.000 S 
ATOM     24  C   UNL     1      46.419   7.441  12.542  0.00  0.00    +0.000 A 
ATOM     25  N   UNL     1      45.523   8.258  11.930  0.00  0.00    +0.000 NA
ATOM     26  C   UNL     1      44.553   7.636  11.341  0.00  0.00    +0.000 A 
ATOM     27  N   UNL     1      44.427   6.273  11.260  0.00  0.00    +0.000 N 
ATOM     28  C   UNL     1      45.302   5.403  11.866  0.00  0.00    +0.000 A 
ATOM     29  O   UNL     1      45.190   4.188  11.762  0.00  0.00    +0.000 OA
ATOM     30  C   UNL     1      46.332   6.070  12.638  0.00  0.00    +0.000 A 
ATOM     31  H   UNL     1      43.688   5.847  10.719  0.00  0.00    +0.000 HD
ENDBRANCH  18  21
ENDBRANCH   1  19
TORSDOF 5
ENDMDL
MODEL 6
REMARK VINA RESULT:    -7.039      2.896      4.278
REMARK INTER + INTRA:         -10.030
REMARK INTER:                  -9.343
REMARK INTRA:                  -0.687
REMARK UNBOUND:                -0.933
REMARK  Name = 
REMARK  5 active torsions:
REMARK  status: ('A' for Active; 'I' for Inactive)
REMARK    1  A    between atoms: C_2  and  C_19
REMARK    2  A    between atoms: N_3  and  C_4
REMARK    3  A    between atoms: C_4  and  C_5
REMARK    4  A    between atoms: C_8  and  C_9
REMARK    5  A    between atoms: C_9  and  N_10
REMARK                            x       y       z     vdW  Elec       q    Type
REMARK                         _______ _______ _______ _____ _____    ______ ____
ROOT
ATOM      1  C   UNL     1      46.378   7.618  13.429  0.00  0.00    +0.000 C 
ENDROOT
BRANCH   1   2
ATOM      2  C   UNL     1      45.891   6.493  12.562  0.00  0.00    +0.000 A 
ATOM      3  C   UNL     1      45.975   6.566  11.171  0.00  0.00    +0.000 A 
ATOM      4  C   UNL     1      45.516   5.506  10.394  0.00  0.00    +0.000 A 
ATOM      5  C   UNL     1      44.981   4.385  11.027  0.00  0.00    +0.000 A 
ATOM      6  N   UNL     1      44.947   4.263  12.380  0.00  0.00    +0.000 NA
ATOM      7  C   UNL     1      45.400   5.310  13.108  0.00  0.00    +0.000 A 
BRANCH   5   8
ATOM      8  C   UNL     1      44.364   3.273  10.199  0.00  0.00    +0.000 C 
BRANCH   8   9
ATOM      9  N   UNL     1      44.350   3.609   8.785  0.00  0.00    +0.000 N 
ATOM     10  C   UNL     1      45.377   2.975   8.094  0.00  0.00    +0.000 A 
ATOM     11  N   UNL     1      45.758   1.736   8.450  0.00  0.00    +0.000 NA
ATOM     12  C   UNL     1      46.766   1.176   7.758  0.00  0.00    +0.000 A 
ATOM     13  C   UNL     1      47.409   1.798   6.719  0.00  0.00    +0.000 A 
ATOM     14  C   UNL     1      46.947   3.061   6.425  0.00  0.00    +0.000 A 
ATOM     15  N   UNL     1      45.947   3.667   7.097  0.00  0.00    +0.000 NA
ATOM     16  H   UNL     1      44.451   4.601   8.599  0.00  0.00    +0.000 HD
ENDBRANCH   8   9
ENDBRANCH   5   8
ENDBRANCH   1   2
BRANCH   1  19
ATOM     17  O   UNL     1      48.351   5.959  14.696  0.00  0.00    +0.000 OA
ATOM     18  C   UNL     1      48.673   6.957  14.066  0.00  0.00    +0.000 C 
ATOM     19  N   UNL     1      47.806   7.727  13.320  0.00  0.00    +0.000 N 
ATOM     20  H   UNL     1      48.142   8.621  12.998  0.00  0.00    +0.000 HD
BRANCH  18  21
ATOM     21  C   UNL     1      49.977   7.598  14.183  0.00  0.00    +0.000 A 
ATOM     22  C   UNL     1      50.639   7.731  15.390  0.00  0.00    +0.000 A 
ATOM     23  S   UNL     1      51.817   8.978  15.330  0.00  0.00    +0.000 S 
ATOM     24  C   UNL     1      51.535   9.244  13.669  0.00  0.00    +0.000 A 
ATOM     25  N   UNL     1      52.087  10.282  12.988  0.00  0.00    +0.000 NA
ATOM     26  C   UNL     1      51.805  10.299  11.726  0.00  0.00    +0.000 A 
ATOM     27  N   UNL     1      51.069   9.345  11.072  0.00  0.00    +0.000 N 
ATOM     28  C   UNL     1      50.484   8.279  11.715  0.00  0.00    +0.000 A 
ATOM     29  O   UNL     1      49.852   7.421  11.112  0.00  0.00    +0.000 OA
ATOM     30  C   UNL     1      50.680   8.298  13.151  0.00  0.00    +0.000 A 
ATOM     31  H   UNL     1      50.948   9.373  10.069  0.00  0.00    +0.000 HD
ENDBRANCH  18  21
ENDBRANCH   1  19
TORSDOF 5
ENDMDL
MODEL 7
REMARK VINA RESULT:    -6.853      3.236      3.952
REMARK INTER + INTRA:          -9.789
REMARK INTER:                  -9.050
REMARK INTRA:                  -0.739
REMARK UNBOUND:                -0.933
REMARK  Name = 
REMARK  5 active torsions:
REMARK  status: ('A' for Active; 'I' for Inactive)
REMARK    1  A    between atoms: C_2  and  C_19
REMARK    2  A    between atoms: N_3  and  C_4
REMARK    3  A    between atoms: C_4  and  C_5
REMARK    4  A    between atoms: C_8  and  C_9
REMARK    5  A    between atoms: C_9  and  N_10
REMARK                            x       y       z     vdW  Elec       q    Type
REMARK                         _______ _______ _______ _____ _____    ______ ____
ROOT
ATOM      1  C   UNL     1      46.470   7.518  13.232  0.00  0.00    +0.000 C 
ENDROOT
BRANCH   1   2
ATOM      2  C   UNL     1      45.963   6.371  12.406  0.00  0.00    +0.000 A 
ATOM      3  C   UNL     1      45.785   6.498  11.028  0.00  0.00    +0.000 A 
ATOM      4  C   UNL     1      45.314   5.416  10.289  0.00  0.00    +0.000 A 
ATOM      5  C   UNL     1      45.031   4.220  10.946  0.00  0.00    +0.000 A 
ATOM      6  N   UNL     1      45.256   4.052  12.276  0.00  0.00    +0.000 NA
ATOM      7  C   UNL     1      45.714   5.122  12.966  0.00  0.00    +0.000 A 
BRANCH   5   8
ATOM      8  C   UNL     1      44.403   3.069  10.182  0.00  0.00    +0.000 C 
BRANCH   8   9
ATOM      9  N   UNL     1      44.295   3.368   8.764  0.00  0.00    +0.000 N 
ATOM     10  C   UNL     1      45.350   2.824   8.040  0.00  0.00    +0.000 A 
ATOM     11  N   UNL     1      45.867   1.637   8.402  0.00  0.00    +0.000 NA
ATOM     12  C   UNL     1      46.896   1.163   7.676  0.00  0.00    +0.000 A 
ATOM     13  C   UNL     1      47.429   1.822   6.597  0.00  0.00    +0.000 A 
ATOM     14  C   UNL     1      46.831   3.026   6.301  0.00  0.00    +0.000 A 
ATOM     15  N   UNL     1      45.805   3.545   7.006  0.00  0.00    +0.000 NA
ATOM     16  H   UNL     1      44.289   4.361   8.555  0.00  0.00    +0.000 HD
ENDBRANCH   8   9
ENDBRANCH   5   8
ENDBRANCH   1   2
BRANCH   1  19
ATOM     17  O   UNL     1      48.891   6.209  14.054  0.00  0.00    +0.000 OA
ATOM     18  C   UNL     1      48.920   7.230  13.380  0.00  0.00    +0.000 C 
ATOM     19  N   UNL     1      47.812   7.842  12.835  0.00  0.00    +0.000 N 
ATOM     20  H   UNL     1      47.933   8.770  12.460  0.00  0.00    +0.000 HD
BRANCH  18  21
ATOM     21  C   UNL     1      50.106   8.065  13.235  0.00  0.00    +0.000 A 
ATOM     22  C   UNL     1      50.780   8.205  12.035  0.00  0.00    +0.000 A 
ATOM     23  S   UNL     1      52.390   8.748  12.275  0.00  0.00    +0.000 S 
ATOM     24  C   UNL     1      52.143   8.922  13.953  0.00  0.00    +0.000 A 
ATOM     25  N   UNL     1      53.153   9.202  14.818  0.00  0.00    +0.000 NA
ATOM     26  C   UNL     1      52.775   9.348  16.046  0.00  0.00    +0.000 A 
ATOM     27  N   UNL     1      51.475   9.295  16.481  0.00  0.00    +0.000 N 
ATOM     28  C   UNL     1      50.419   9.009  15.648  0.00  0.00    +0.000 A 
ATOM     29  O   UNL     1      49.261   8.992  16.047  0.00  0.00    +0.000 OA
ATOM     30  C   UNL     1      50.823   8.720  14.287  0.00  0.00    +0.000 A 
ATOM     31  H   UNL     1      51.236   9.494  17.442  0.00  0.00    +0.000 HD
ENDBRANCH  18  21
ENDBRANCH   1  19
TORSDOF 5
ENDMDL
MODEL 8
REMARK VINA RESULT:    -6.420      3.597      9.122
REMARK INTER + INTRA:          -9.229
REMARK INTER:                  -8.269
REMARK INTRA:                  -0.961
REMARK UNBOUND:                -0.933
REMARK  Name = 
REMARK  5 active torsions:
REMARK  status: ('A' for Active; 'I' for Inactive)
REMARK    1  A    between atoms: C_2  and  C_19
REMARK    2  A    between atoms: N_3  and  C_4
REMARK    3  A    between atoms: C_4  and  C_5
REMARK    4  A    between atoms: C_8  and  C_9
REMARK    5  A    between atoms: C_9  and  N_10
REMARK                            x       y       z     vdW  Elec       q    Type
REMARK                         _______ _______ _______ _____ _____    ______ ____
ROOT
ATOM      1  C   UNL     1      47.329   4.183  16.546  0.00  0.00    +0.000 C 
ENDROOT
BRANCH   1   2
ATOM      2  C   UNL     1      48.249   5.280  17.000  0.00  0.00    +0.000 A 
ATOM      3  C   UNL     1      48.652   5.378  18.332  0.00  0.00    +0.000 A 
ATOM      4  C   UNL     1      49.507   6.405  18.722  0.00  0.00    +0.000 A 
ATOM      5  C   UNL     1      49.945   7.320  17.766  0.00  0.00    +0.000 A 
ATOM      6  N   UNL     1      49.618   7.209  16.452  0.00  0.00    +0.000 NA
ATOM      7  C   UNL     1      48.786   6.200  16.104  0.00  0.00    +0.000 A 
BRANCH   5   8
ATOM      8  C   UNL     1      50.776   8.516  18.191  0.00  0.00    +0.000 C 
BRANCH   8   9
ATOM      9  N   UNL     1      50.298   9.742  17.573  0.00  0.00    +0.000 N 
ATOM     10  C   UNL     1      49.282  10.332  18.317  0.00  0.00    +0.000 A 
ATOM     11  N   UNL     1      49.310  10.265  19.659  0.00  0.00    +0.000 NA
ATOM     12  C   UNL     1      48.294  10.840  20.329  0.00  0.00    +0.000 A 
ATOM     13  C   UNL     1      47.251  11.485  19.715  0.00  0.00    +0.000 A 
ATOM     14  C   UNL     1      47.312  11.506  18.340  0.00  0.00    +0.000 A 
ATOM     15  N   UNL     1      48.304  10.935  17.626  0.00  0.00    +0.000 NA
ATOM     16  H   UNL     1      49.927   9.611  16.638  0.00  0.00    +0.000 HD
ENDBRANCH   8   9
ENDBRANCH   5   8
ENDBRANCH   1   2
BRANCH   1  19
ATOM     17  O   UNL     1      47.261   2.981  13.938  0.00  0.00    +0.000 OA
ATOM     18  C   UNL     1      46.706   4.050  14.158  0.00  0.00    +0.000 C 
ATOM     19  N   UNL     1      46.578   4.625  15.404  0.00  0.00    +0.000 N 
ATOM     20  H   UNL     1      46.271   5.584  15.442  0.00  0.00    +0.000 HD
BRANCH  18  21
ATOM     21  C   UNL     1      46.288   4.972  13.109  0.00  0.00    +0.000 A 
ATOM     22  C   UNL     1      47.023   6.090  12.759  0.00  0.00    +0.000 A 
ATOM     23  S   UNL     1      46.056   7.252  11.946  0.00  0.00    +0.000 S 
ATOM     24  C   UNL     1      44.705   6.212  11.945  0.00  0.00    +0.000 A 
ATOM     25  N   UNL     1      43.470   6.615  11.547  0.00  0.00    +0.000 NA
ATOM     26  C   UNL     1      42.576   5.681  11.564  0.00  0.00    +0.000 A 
ATOM     27  N   UNL     1      42.814   4.370  11.889  0.00  0.00    +0.000 N 
ATOM     28  C   UNL     1      44.042   3.913  12.303  0.00  0.00    +0.000 A 
ATOM     29  O   UNL     1      44.245   2.734  12.563  0.00  0.00    +0.000 OA
ATOM     30  C   UNL     1      45.038   4.961  12.412  0.00  0.00    +0.000 A 
ATOM     31  H   UNL     1      42.089   3.671  11.808  0.00  0.00    +0.000 HD
ENDBRANCH  18  21
ENDBRANCH   1  19
TORSDOF 5
ENDMDL
MODEL 9
REMARK VINA RESULT:    -6.346      3.849      8.937
REMARK INTER + INTRA:          -9.134
REMARK INTER:                  -7.792
REMARK INTRA:                  -1.342
REMARK UNBOUND:                -0.933
REMARK  Name = 
REMARK  5 active torsions:
REMARK  status: ('A' for Active; 'I' for Inactive)
REMARK    1  A    between atoms: C_2  and  C_19
REMARK    2  A    between atoms: N_3  and  C_4
REMARK    3  A    between atoms: C_4  and  C_5
REMARK    4  A    between atoms: C_8  and  C_9
REMARK    5  A    between atoms: C_9  and  N_10
REMARK                            x       y       z     vdW  Elec       q    Type
REMARK                         _______ _______ _______ _____ _____    ______ ____
ROOT
ATOM      1  C   UNL     1      47.316   3.740  17.105  0.00  0.00    +0.000 C 
ENDROOT
BRANCH   1   2
ATOM      2  C   UNL     1      47.817   4.757  18.090  0.00  0.00    +0.000 A 
ATOM      3  C   UNL     1      46.931   5.548  18.823  0.00  0.00    +0.000 A 
ATOM      4  C   UNL     1      47.425   6.481  19.730  0.00  0.00    +0.000 A 
ATOM      5  C   UNL     1      48.804   6.605  19.889  0.00  0.00    +0.000 A 
ATOM      6  N   UNL     1      49.685   5.803  19.234  0.00  0.00    +0.000 NA
ATOM      7  C   UNL     1      49.174   4.906  18.360  0.00  0.00    +0.000 A 
BRANCH   5   8
ATOM      8  C   UNL     1      49.367   7.698  20.779  0.00  0.00    +0.000 C 
BRANCH   8   9
ATOM      9  N   UNL     1      50.138   8.663  20.013  0.00  0.00    +0.000 N 
ATOM     10  C   UNL     1      49.318   9.583  19.369  0.00  0.00    +0.000 A 
ATOM     11  N   UNL     1      48.185   9.999  19.961  0.00  0.00    +0.000 NA
ATOM     12  C   UNL     1      47.423  10.879  19.287  0.00  0.00    +0.000 A 
ATOM     13  C   UNL     1      47.745  11.366  18.046  0.00  0.00    +0.000 A 
ATOM     14  C   UNL     1      48.924  10.886  17.523  0.00  0.00    +0.000 A 
ATOM     15  N   UNL     1      49.716   9.996  18.157  0.00  0.00    +0.000 NA
ATOM     16  H   UNL     1      50.718   8.244  19.294  0.00  0.00    +0.000 HD
ENDBRANCH   8   9
ENDBRANCH   5   8
ENDBRANCH   1   2
BRANCH   1  19
ATOM     17  O   UNL     1      47.553   3.009  14.337  0.00  0.00    +0.000 OA
ATOM     18  C   UNL     1      47.006   4.050  14.672  0.00  0.00    +0.000 C 
ATOM     19  N   UNL     1      46.733   4.409  15.975  0.00  0.00    +0.000 N 
ATOM     20  H   UNL     1      46.450   5.362  16.144  0.00  0.00    +0.000 HD
BRANCH  18  21
ATOM     21  C   UNL     1      46.753   5.159  13.759  0.00  0.00    +0.000 A 
ATOM     22  C   UNL     1      45.611   5.243  12.983  0.00  0.00    +0.000 A 
ATOM     23  S   UNL     1      45.836   6.290  11.642  0.00  0.00    +0.000 S 
ATOM     24  C   UNL     1      47.397   6.728  12.171  0.00  0.00    +0.000 A 
ATOM     25  N   UNL     1      48.243   7.478  11.418  0.00  0.00    +0.000 NA
ATOM     26  C   UNL     1      49.365   7.756  11.998  0.00  0.00    +0.000 A 
ATOM     27  N   UNL     1      49.697   7.400  13.280  0.00  0.00    +0.000 N 
ATOM     28  C   UNL     1      48.880   6.637  14.080  0.00  0.00    +0.000 A 
ATOM     29  O   UNL     1      49.179   6.351  15.233  0.00  0.00    +0.000 OA
ATOM     30  C   UNL     1      47.666   6.206  13.416  0.00  0.00    +0.000 A 
ATOM     31  H   UNL     1      50.559   7.714  13.704  0.00  0.00    +0.000 HD
ENDBRANCH  18  21
ENDBRANCH   1  19
TORSDOF 5
ENDMDL
