MODEL 1
REMARK VINA RESULT:    -7.717      0.000      0.000
REMARK INTER + INTRA:         -11.134
REMARK INTER:                 -11.101
REMARK INTRA:                  -0.034
REMARK UNBOUND:                -0.034
REMARK  Name = 
REMARK  10 active torsions:
REMARK  status: ('A' for Active; 'I' for Inactive)
REMARK    1  A    between atoms: C_1  and  O_2
REMARK    2  A    between atoms: O_2  and  C_3
REMARK    3  A    between atoms: C_5  and  C_6
REMARK    4  A    between atoms: C_6  and  N_7
REMARK    5  A    between atoms: C_8  and  C_10
REMARK    6  A    between atoms: N_16  and  C_17
REMARK    7  A    between atoms: C_23  and  C_24
REMARK    8  A    between atoms: C_24  and  N_25
REMARK    9  A    between atoms: C_29  and  C_31
REMARK   10  A    between atoms: C_31  and  O_32
REMARK                            x       y       z     vdW  Elec       q    Type
REMARK                         _______ _______ _______ _____ _____    ______ ____
ROOT
ATOM      1  C   UNL     1      46.449   5.052  12.947  0.00  0.00    +0.000 A 
ATOM      2  C   UNL     1      46.752   6.403  13.240  0.00  0.00    +0.000 A 
ATOM      3  C   UNL     1      45.996   7.482  12.779  0.00  0.00    +0.000 A 
ATOM      4  C   UNL     1      44.944   7.190  11.916  0.00  0.00    +0.000 A 
ATOM      5  C   UNL     1      44.640   5.847  11.584  0.00  0.00    +0.000 A 
ATOM      6  C   UNL     1      45.365   4.738  12.104  0.00  0.00    +0.000 A 
ENDROOT
BRANCH   1   8
ATOM      7  C   UNL     1      47.247   3.965  14.979  0.00  0.00    +0.000 C 
ATOM      8  O   UNL     1      47.350   4.275  13.614  0.00  0.00    +0.000 OA
ENDBRANCH   1   8
BRANCH   3   9
ATOM      9  C   UNL     1      46.326   8.871  13.281  0.00  0.00    +0.000 C 
BRANCH   9  10
ATOM     10  N   UNL     1      47.162   8.887  14.457  0.00  0.00    +0.000 N 
ATOM     11  C   UNL     1      48.407   9.482  14.417  0.00  0.00    +0.000 C 
ATOM     12  O   UNL     1      48.924   9.843  13.363  0.00  0.00    +0.000 OA
ATOM     13  H   UNL     1      46.682   8.840  15.349  0.00  0.00    +0.000 HD
BRANCH  11  14
ATOM     14  C   UNL     1      49.109   9.646  15.702  0.00  0.00    +0.000 A 
ATOM     15  C   UNL     1      49.200  10.899  16.296  0.00  0.00    +0.000 A 
ATOM     16  S   UNL     1      50.057  10.895  17.773  0.00  0.00    +0.000 S 
ATOM     17  C   UNL     1      50.285   9.210  17.700  0.00  0.00    +0.000 A 
ATOM     18  N   UNL     1      50.929   8.543  18.694  0.00  0.00    +0.000 NA
ATOM     19  C   UNL     1      50.998   7.264  18.529  0.00  0.00    +0.000 A 
ATOM     20  N   UNL     1      50.482   6.571  17.444  0.00  0.00    +0.000 N 
ATOM     21  C   UNL     1      50.632   5.136  17.337  0.00  0.00    +0.000 C 
ATOM     22  C   UNL     1      49.856   7.226  16.391  0.00  0.00    +0.000 A 
ATOM     23  O   UNL     1      49.451   6.640  15.393  0.00  0.00    +0.000 OA
ATOM     24  C   UNL     1      49.740   8.662  16.555  0.00  0.00    +0.000 A 
ENDBRANCH  11  14
ENDBRANCH   9  10
ENDBRANCH   3   9
BRANCH   6  25
ATOM     25  C   UNL     1      45.021   3.349  11.562  0.00  0.00    +0.000 C 
BRANCH  25  26
ATOM     26  N   UNL     1      44.044   3.241  10.455  0.00  0.00    +0.000 NA
ATOM     27  C   UNL     1      44.120   1.976   9.690  0.00  0.00    +0.000 C 
ATOM     28  C   UNL     1      45.340   1.780   8.748  0.00  0.00    +0.000 C 
ATOM     29  N   UNL     1      45.759   2.970   7.999  0.00  0.00    +0.000 N 
ATOM     30  C   UNL     1      46.751   2.947   7.016  0.00  0.00    +0.000 C 
ATOM     31  O   UNL     1      47.146   3.973   6.451  0.00  0.00    +0.000 OA
ATOM     32  C   UNL     1      45.509   4.272   8.617  0.00  0.00    +0.000 C 
ATOM     33  C   UNL     1      44.230   4.346   9.474  0.00  0.00    +0.000 C 
BRANCH  30  34
ATOM     34  C   UNL     1      47.409   1.606   6.655  0.00  0.00    +0.000 C 
BRANCH  34  35
ATOM     35  O   UNL     1      48.468   1.776   5.715  0.00  0.00    +0.000 OA
ATOM     36  H   UNL     1      48.431   2.714   5.433  0.00  0.00    +0.000 HD
ENDBRANCH  34  35
ENDBRANCH  30  34
ENDBRANCH  25  26
ENDBRANCH   6  25
TORSDOF 8
ENDMDL
MODEL 2
REMARK VINA RESULT:    -7.594      2.043      2.103
REMARK INTER + INTRA:         -10.957
REMARK INTER:                 -10.928
REMARK INTRA:                  -0.029
REMARK UNBOUND:                -0.034
REMARK  Name = 
REMARK  10 active torsions:
REMARK  status: ('A' for Active; 'I' for Inactive)
REMARK    1  A    between atoms: C_1  and  O_2
REMARK    2  A    between atoms: O_2  and  C_3
REMARK    3  A    between atoms: C_5  and  C_6
REMARK    4  A    between atoms: C_6  and  N_7
REMARK    5  A    between atoms: C_8  and  C_10
REMARK    6  A    between atoms: N_16  and  C_17
REMARK    7  A    between atoms: C_23  and  C_24
REMARK    8  A    between atoms: C_24  and  N_25
REMARK    9  A    between atoms: C_29  and  C_31
REMARK   10  A    between atoms: C_31  and  O_32
REMARK                            x       y       z     vdW  Elec       q    Type
REMARK                         _______ _______ _______ _____ _____    ______ ____
ROOT
ATOM      1  C   UNL     1      46.994   5.074  13.648  0.00  0.00    +0.000 A 
ATOM      2  C   UNL     1      47.504   6.333  14.045  0.00  0.00    +0.000 A 
ATOM      3  C   UNL     1      47.133   7.540  13.452  0.00  0.00    +0.000 A 
ATOM      4  C   UNL     1      46.280   7.466  12.355  0.00  0.00    +0.000 A 
ATOM      5  C   UNL     1      45.779   6.214  11.919  0.00  0.00    +0.000 A 
ATOM      6  C   UNL     1      46.101   4.986  12.562  0.00  0.00    +0.000 A 
ENDROOT
BRANCH   1   8
ATOM      7  C   UNL     1      47.200   4.046  15.849  0.00  0.00    +0.000 C 
ATOM      8  O   UNL     1      47.519   4.134  14.485  0.00  0.00    +0.000 OA
ENDBRANCH   1   8
BRANCH   3   9
ATOM      9  C   UNL     1      47.628   8.834  14.060  0.00  0.00    +0.000 C 
BRANCH   9  10
ATOM     10  N   UNL     1      47.484   8.901  15.495  0.00  0.00    +0.000 N 
ATOM     11  C   UNL     1      48.302   9.729  16.238  0.00  0.00    +0.000 C 
ATOM     12  O   UNL     1      49.285  10.282  15.751  0.00  0.00    +0.000 OA
ATOM     13  H   UNL     1      46.567   8.678  15.864  0.00  0.00    +0.000 HD
BRANCH  11  14
ATOM     14  C   UNL     1      47.958   9.904  17.659  0.00  0.00    +0.000 A 
ATOM     15  C   UNL     1      47.589  11.153  18.143  0.00  0.00    +0.000 A 
ATOM     16  S   UNL     1      47.237  11.163  19.813  0.00  0.00    +0.000 S 
ATOM     17  C   UNL     1      47.508   9.488  19.937  0.00  0.00    +0.000 A 
ATOM     18  N   UNL     1      47.342   8.834  21.117  0.00  0.00    +0.000 NA
ATOM     19  C   UNL     1      47.542   7.559  21.060  0.00  0.00    +0.000 A 
ATOM     20  N   UNL     1      47.907   6.859  19.918  0.00  0.00    +0.000 N 
ATOM     21  C   UNL     1      48.135   5.431  19.962  0.00  0.00    +0.000 C 
ATOM     22  C   UNL     1      48.126   7.503  18.708  0.00  0.00    +0.000 A 
ATOM     23  O   UNL     1      48.512   6.914  17.704  0.00  0.00    +0.000 OA
ATOM     24  C   UNL     1      47.886   8.933  18.730  0.00  0.00    +0.000 A 
ENDBRANCH  11  14
ENDBRANCH   9  10
ENDBRANCH   3   9
BRANCH   6  25
ATOM     25  C   UNL     1      45.602   3.693  11.911  0.00  0.00    +0.000 C 
BRANCH  25  26
ATOM     26  N   UNL     1      44.436   3.760  11.001  0.00  0.00    +0.000 NA
ATOM     27  C   UNL     1      44.172   2.515  10.247  0.00  0.00    +0.000 C 
ATOM     28  C   UNL     1      45.156   2.148   9.102  0.00  0.00    +0.000 C 
ATOM     29  N   UNL     1      45.614   3.272   8.277  0.00  0.00    +0.000 N 
ATOM     30  C   UNL     1      46.396   3.113   7.131  0.00  0.00    +0.000 C 
ATOM     31  O   UNL     1      46.839   4.074   6.494  0.00  0.00    +0.000 OA
ATOM     32  C   UNL     1      45.689   4.585   8.918  0.00  0.00    +0.000 C 
ATOM     33  C   UNL     1      44.613   4.842   9.993  0.00  0.00    +0.000 C 
BRANCH  30  34
ATOM     34  C   UNL     1      46.758   1.692   6.670  0.00  0.00    +0.000 C 
BRANCH  34  35
ATOM     35  O   UNL     1      48.167   1.473   6.699  0.00  0.00    +0.000 OA
ATOM     36  H   UNL     1      48.568   2.230   6.222  0.00  0.00    +0.000 HD
ENDBRANCH  34  35
ENDBRANCH  30  34
ENDBRANCH  25  26
ENDBRANCH   6  25
TORSDOF 8
ENDMDL
MODEL 3
REMARK VINA RESULT:    -7.378      3.221      5.488
REMARK INTER + INTRA:         -10.647
REMARK INTER:                  -9.949
REMARK INTRA:                  -0.698
REMARK UNBOUND:                -0.034
REMARK  Name = 
REMARK  10 active torsions:
REMARK  status: ('A' for Active; 'I' for Inactive)
REMARK    1  A    between atoms: C_1  and  O_2
REMARK    2  A    between atoms: O_2  and  C_3
REMARK    3  A    between atoms: C_5  and  C_6
REMARK    4  A    between atoms: C_6  and  N_7
REMARK    5  A    between atoms: C_8  and  C_10
REMARK    6  A    between atoms: N_16  and  C_17
REMARK    7  A    between atoms: C_23  and  C_24
REMARK    8  A    between atoms: C_24  and  N_25
REMARK    9  A    between atoms: C_29  and  C_31
REMARK   10  A    between atoms: C_31  and  O_32
REMARK                            x       y       z     vdW  Elec       q    Type
REMARK                         _______ _______ _______ _____ _____    ______ ____
ROOT
ATOM      1  C   UNL     1      48.181   5.963  15.418  0.00  0.00    +0.000 A 
ATOM      2  C   UNL     1      48.378   5.298  16.652  0.00  0.00    +0.000 A 
ATOM      3  C   UNL     1      48.044   3.960  16.870  0.00  0.00    +0.000 A 
ATOM      4  C   UNL     1      47.405   3.293  15.830  0.00  0.00    +0.000 A 
ATOM      5  C   UNL     1      47.170   3.947  14.596  0.00  0.00    +0.000 A 
ATOM      6  C   UNL     1      47.569   5.290  14.344  0.00  0.00    +0.000 A 
ENDROOT
BRANCH   1   8
ATOM      7  C   UNL     1      49.846   7.668  14.900  0.00  0.00    +0.000 C 
ATOM      8  O   UNL     1      48.682   7.225  15.548  0.00  0.00    +0.000 OA
ENDBRANCH   1   8
BRANCH   3   9
ATOM      9  C   UNL     1      48.440   3.315  18.181  0.00  0.00    +0.000 C 
BRANCH   9  10
ATOM     10  N   UNL     1      49.866   3.211  18.377  0.00  0.00    +0.000 N 
ATOM     11  C   UNL     1      50.635   2.459  17.511  0.00  0.00    +0.000 C 
ATOM     12  O   UNL     1      50.132   1.711  16.676  0.00  0.00    +0.000 OA
ATOM     13  H   UNL     1      50.309   3.983  18.863  0.00  0.00    +0.000 HD
BRANCH  11  14
ATOM     14  C   UNL     1      52.096   2.572  17.648  0.00  0.00    +0.000 A 
ATOM     15  C   UNL     1      52.875   1.433  17.817  0.00  0.00    +0.000 A 
ATOM     16  S   UNL     1      54.543   1.761  17.968  0.00  0.00    +0.000 S 
ATOM     17  C   UNL     1      54.291   3.431  17.755  0.00  0.00    +0.000 A 
ATOM     18  N   UNL     1      55.333   4.304  17.741  0.00  0.00    +0.000 NA
ATOM     19  C   UNL     1      55.003   5.535  17.531  0.00  0.00    +0.000 A 
ATOM     20  N   UNL     1      53.706   5.991  17.337  0.00  0.00    +0.000 N 
ATOM     21  C   UNL     1      53.434   7.397  17.135  0.00  0.00    +0.000 C 
ATOM     22  C   UNL     1      52.616   5.132  17.387  0.00  0.00    +0.000 A 
ATOM     23  O   UNL     1      51.459   5.523  17.283  0.00  0.00    +0.000 OA
ATOM     24  C   UNL     1      52.953   3.737  17.597  0.00  0.00    +0.000 A 
ENDBRANCH  11  14
ENDBRANCH   9  10
ENDBRANCH   3   9
BRANCH   6  25
ATOM     25  C   UNL     1      47.136   5.921  13.018  0.00  0.00    +0.000 C 
BRANCH  25  26
ATOM     26  N   UNL     1      45.708   6.256  12.823  0.00  0.00    +0.000 NA
ATOM     27  C   UNL     1      44.783   5.108  12.956  0.00  0.00    +0.000 C 
ATOM     28  C   UNL     1      44.781   4.055  11.814  0.00  0.00    +0.000 C 
ATOM     29  N   UNL     1      44.888   4.595  10.454  0.00  0.00    +0.000 N 
ATOM     30  C   UNL     1      44.775   3.809   9.306  0.00  0.00    +0.000 C 
ATOM     31  O   UNL     1      44.947   4.266   8.171  0.00  0.00    +0.000 OA
ATOM     32  C   UNL     1      45.614   5.855  10.291  0.00  0.00    +0.000 C 
ATOM     33  C   UNL     1      45.479   6.837  11.472  0.00  0.00    +0.000 C 
BRANCH  30  34
ATOM     34  C   UNL     1      44.470   2.310   9.458  0.00  0.00    +0.000 C 
BRANCH  34  35
ATOM     35  O   UNL     1      45.574   1.505   9.048  0.00  0.00    +0.000 OA
ATOM     36  H   UNL     1      45.845   0.995   9.841  0.00  0.00    +0.000 HD
ENDBRANCH  34  35
ENDBRANCH  30  34
ENDBRANCH  25  26
ENDBRANCH   6  25
TORSDOF 8
ENDMDL
MODEL 4
REMARK VINA RESULT:    -7.317      3.067      9.492
REMARK INTER + INTRA:         -10.559
REMARK INTER:                  -9.632
REMARK INTRA:                  -0.926
REMARK UNBOUND:                -0.034
REMARK  Name = 
REMARK  10 active torsions:
REMARK  status: ('A' for Active; 'I' for Inactive)
REMARK    1  A    between atoms: C_1  and  O_2
REMARK    2  A    between atoms: O_2  and  C_3
REMARK    3  A    between atoms: C_5  and  C_6
REMARK    4  A    between atoms: C_6  and  N_7
REMARK    5  A    between atoms: C_8  and  C_10
REMARK    6  A    between atoms: N_16  and  C_17
REMARK    7  A    between atoms: C_23  and  C_24
REMARK    8  A    between atoms: C_24  and  N_25
REMARK    9  A    between atoms: C_29  and  C_31
REMARK   10  A    between atoms: C_31  and  O_32
REMARK                            x       y       z     vdW  Elec       q    Type
REMARK                         _______ _______ _______ _____ _____    ______ ____
ROOT
ATOM      1  C   UNL     1      50.434   8.647  13.769  0.00  0.00    +0.000 A 
ATOM      2  C   UNL     1      49.518   8.282  12.753  0.00  0.00    +0.000 A 
ATOM      3  C   UNL     1      48.133   8.285  12.924  0.00  0.00    +0.000 A 
ATOM      4  C   UNL     1      47.656   8.584  14.197  0.00  0.00    +0.000 A 
ATOM      5  C   UNL     1      48.555   8.924  15.237  0.00  0.00    +0.000 A 
ATOM      6  C   UNL     1      49.965   8.988  15.052  0.00  0.00    +0.000 A 
ENDROOT
BRANCH   1   8
ATOM      7  C   UNL     1      51.934   8.458  11.856  0.00  0.00    +0.000 C 
ATOM      8  O   UNL     1      51.686   8.594  13.231  0.00  0.00    +0.000 OA
ENDBRANCH   1   8
BRANCH   3   9
ATOM      9  C   UNL     1      47.249   8.023  11.724  0.00  0.00    +0.000 C 
BRANCH   9  10
ATOM     10  N   UNL     1      46.626   6.721  11.727  0.00  0.00    +0.000 N 
ATOM     11  C   UNL     1      45.263   6.602  11.545  0.00  0.00    +0.000 C 
ATOM     12  O   UNL     1      44.515   7.576  11.566  0.00  0.00    +0.000 OA
ATOM     13  H   UNL     1      47.215   5.942  11.454  0.00  0.00    +0.000 HD
BRANCH  11  14
ATOM     14  C   UNL     1      44.733   5.242  11.349  0.00  0.00    +0.000 A 
ATOM     15  C   UNL     1      43.903   4.668  12.304  0.00  0.00    +0.000 A 
ATOM     16  S   UNL     1      43.397   3.086  11.909  0.00  0.00    +0.000 S 
ATOM     17  C   UNL     1      44.221   3.134  10.420  0.00  0.00    +0.000 A 
ATOM     18  N   UNL     1      44.172   2.088   9.554  0.00  0.00    +0.000 NA
ATOM     19  C   UNL     1      44.809   2.273   8.447  0.00  0.00    +0.000 A 
ATOM     20  N   UNL     1      45.513   3.423   8.114  0.00  0.00    +0.000 N 
ATOM     21  C   UNL     1      46.219   3.526   6.856  0.00  0.00    +0.000 C 
ATOM     22  C   UNL     1      45.619   4.492   8.994  0.00  0.00    +0.000 A 
ATOM     23  O   UNL     1      46.288   5.489   8.747  0.00  0.00    +0.000 OA
ATOM     24  C   UNL     1      44.893   4.327  10.238  0.00  0.00    +0.000 A 
ENDBRANCH  11  14
ENDBRANCH   9  10
ENDBRANCH   3   9
BRANCH   6  25
ATOM     25  C   UNL     1      50.832   9.235  16.289  0.00  0.00    +0.000 C 
BRANCH  25  26
ATOM     26  N   UNL     1      51.672   8.129  16.801  0.00  0.00    +0.000 NA
ATOM     27  C   UNL     1      51.273   6.785  16.328  0.00  0.00    +0.000 C 
ATOM     28  C   UNL     1      49.967   6.179  16.912  0.00  0.00    +0.000 C 
ATOM     29  N   UNL     1      49.747   6.410  18.344  0.00  0.00    +0.000 N 
ATOM     30  C   UNL     1      48.696   5.834  19.061  0.00  0.00    +0.000 C 
ATOM     31  O   UNL     1      48.480   6.102  20.248  0.00  0.00    +0.000 OA
ATOM     32  C   UNL     1      50.312   7.631  18.919  0.00  0.00    +0.000 C 
ATOM     33  C   UNL     1      51.643   8.086  18.288  0.00  0.00    +0.000 C 
BRANCH  30  34
ATOM     34  C   UNL     1      47.746   4.866  18.339  0.00  0.00    +0.000 C 
BRANCH  34  35
ATOM     35  O   UNL     1      46.379   5.217  18.546  0.00  0.00    +0.000 OA
ATOM     36  H   UNL     1      46.171   5.899  17.873  0.00  0.00    +0.000 HD
ENDBRANCH  34  35
ENDBRANCH  30  34
ENDBRANCH  25  26
ENDBRANCH   6  25
TORSDOF 8
ENDMDL
MODEL 5
REMARK VINA RESULT:    -7.160      2.357      3.023
REMARK INTER + INTRA:         -10.333
REMARK INTER:                  -9.781
REMARK INTRA:                  -0.551
REMARK UNBOUND:                -0.034
REMARK  Name = 
REMARK  10 active torsions:
REMARK  status: ('A' for Active; 'I' for Inactive)
REMARK    1  A    between atoms: C_1  and  O_2
REMARK    2  A    between atoms: O_2  and  C_3
REMARK    3  A    between atoms: C_5  and  C_6
REMARK    4  A    between atoms: C_6  and  N_7
REMARK    5  A    between atoms: C_8  and  C_10
REMARK    6  A    between atoms: N_16  and  C_17
REMARK    7  A    between atoms: C_23  and  C_24
REMARK    8  A    between atoms: C_24  and  N_25
REMARK    9  A    between atoms: C_29  and  C_31
REMARK   10  A    between atoms: C_31  and  O_32
REMARK                            x       y       z     vdW  Elec       q    Type
REMARK                         _______ _______ _______ _____ _____    ______ ____
ROOT
ATOM      1  C   UNL     1      47.175   5.619  13.225  0.00  0.00    +0.000 A 
ATOM      2  C   UNL     1      48.351   6.391  13.060  0.00  0.00    +0.000 A 
ATOM      3  C   UNL     1      48.346   7.774  12.870  0.00  0.00    +0.000 A 
ATOM      4  C   UNL     1      47.104   8.389  12.752  0.00  0.00    +0.000 A 
ATOM      5  C   UNL     1      45.914   7.633  12.883  0.00  0.00    +0.000 A 
ATOM      6  C   UNL     1      45.911   6.234  13.145  0.00  0.00    +0.000 A 
ENDROOT
BRANCH   1   8
ATOM      7  C   UNL     1      47.245   3.627  14.628  0.00  0.00    +0.000 C 
ATOM      8  O   UNL     1      47.559   4.331  13.456  0.00  0.00    +0.000 OA
ENDBRANCH   1   8
BRANCH   3   9
ATOM      9  C   UNL     1      49.667   8.512  12.858  0.00  0.00    +0.000 C 
BRANCH   9  10
ATOM     10  N   UNL     1      50.710   7.863  13.616  0.00  0.00    +0.000 N 
ATOM     11  C   UNL     1      50.854   8.123  14.964  0.00  0.00    +0.000 C 
ATOM     12  O   UNL     1      50.247   9.034  15.521  0.00  0.00    +0.000 OA
ATOM     13  H   UNL     1      51.027   6.966  13.265  0.00  0.00    +0.000 HD
BRANCH  11  14
ATOM     14  C   UNL     1      51.795   7.270  15.710  0.00  0.00    +0.000 A 
ATOM     15  C   UNL     1      53.153   7.566  15.720  0.00  0.00    +0.000 A 
ATOM     16  S   UNL     1      54.086   6.462  16.628  0.00  0.00    +0.000 S 
ATOM     17  C   UNL     1      52.703   5.584  17.088  0.00  0.00    +0.000 A 
ATOM     18  N   UNL     1      52.795   4.508  17.914  0.00  0.00    +0.000 NA
ATOM     19  C   UNL     1      51.665   3.960  18.212  0.00  0.00    +0.000 A 
ATOM     20  N   UNL     1      50.425   4.384  17.753  0.00  0.00    +0.000 N 
ATOM     21  C   UNL     1      49.214   3.686  18.124  0.00  0.00    +0.000 C 
ATOM     22  C   UNL     1      50.301   5.453  16.875  0.00  0.00    +0.000 A 
ATOM     23  O   UNL     1      49.223   5.803  16.406  0.00  0.00    +0.000 OA
ATOM     24  C   UNL     1      51.550   6.108  16.537  0.00  0.00    +0.000 A 
ENDBRANCH  11  14
ENDBRANCH   9  10
ENDBRANCH   3   9
BRANCH   6  25
ATOM     25  C   UNL     1      44.561   5.513  13.131  0.00  0.00    +0.000 C 
BRANCH  25  26
ATOM     26  N   UNL     1      43.612   5.803  12.032  0.00  0.00    +0.000 NA
ATOM     27  C   UNL     1      42.818   4.639  11.581  0.00  0.00    +0.000 C 
ATOM     28  C   UNL     1      43.557   3.539  10.770  0.00  0.00    +0.000 C 
ATOM     29  N   UNL     1      44.533   4.024   9.789  0.00  0.00    +0.000 N 
ATOM     30  C   UNL     1      45.195   3.188   8.887  0.00  0.00    +0.000 C 
ATOM     31  O   UNL     1      46.072   3.603   8.122  0.00  0.00    +0.000 OA
ATOM     32  C   UNL     1      45.199   5.295  10.080  0.00  0.00    +0.000 C 
ATOM     33  C   UNL     1      44.330   6.321  10.835  0.00  0.00    +0.000 C 
BRANCH  30  34
ATOM     34  C   UNL     1      44.853   1.690   8.874  0.00  0.00    +0.000 C 
BRANCH  34  35
ATOM     35  O   UNL     1      45.961   0.901   8.445  0.00  0.00    +0.000 OA
ATOM     36  H   UNL     1      46.359   1.383   7.690  0.00  0.00    +0.000 HD
ENDBRANCH  34  35
ENDBRANCH  30  34
ENDBRANCH  25  26
ENDBRANCH   6  25
TORSDOF 8
ENDMDL
MODEL 6
REMARK VINA RESULT:    -7.125      3.494      5.528
REMARK INTER + INTRA:         -10.283
REMARK INTER:                  -9.175
REMARK INTRA:                  -1.108
REMARK UNBOUND:                -0.034
REMARK  Name = 
REMARK  10 active torsions:
REMARK  status: ('A' for Active; 'I' for Inactive)
REMARK    1  A    between atoms: C_1  and  O_2
REMARK    2  A    between atoms: O_2  and  C_3
REMARK    3  A    between atoms: C_5  and  C_6
REMARK    4  A    between atoms: C_6  and  N_7
REMARK    5  A    between atoms: C_8  and  C_10
REMARK    6  A    between atoms: N_16  and  C_17
REMARK    7  A    between atoms: C_23  and  C_24
REMARK    8  A    between atoms: C_24  and  N_25
REMARK    9  A    between atoms: C_29  and  C_31
REMARK   10  A    between atoms: C_31  and  O_32
REMARK                            x       y       z     vdW  Elec       q    Type
REMARK                         _______ _______ _______ _____ _____    ______ ____
ROOT
ATOM      1  C   UNL     1      48.135   6.070  15.531  0.00  0.00    +0.000 A 
ATOM      2  C   UNL     1      48.408   6.024  16.920  0.00  0.00    +0.000 A 
ATOM      3  C   UNL     1      48.111   4.926  17.729  0.00  0.00    +0.000 A 
ATOM      4  C   UNL     1      47.432   3.869  17.132  0.00  0.00    +0.000 A 
ATOM      5  C   UNL     1      47.121   3.906  15.750  0.00  0.00    +0.000 A 
ATOM      6  C   UNL     1      47.481   4.992  14.904  0.00  0.00    +0.000 A 
ENDROOT
BRANCH   1   8
ATOM      7  C   UNL     1      49.358   8.158  15.836  0.00  0.00    +0.000 C 
ATOM      8  O   UNL     1      48.618   7.254  15.057  0.00  0.00    +0.000 OA
ENDBRANCH   1   8
BRANCH   3   9
ATOM      9  C   UNL     1      48.586   4.931  19.166  0.00  0.00    +0.000 C 
BRANCH   9  10
ATOM     10  N   UNL     1      49.913   4.391  19.347  0.00  0.00    +0.000 N 
ATOM     11  C   UNL     1      51.006   5.233  19.395  0.00  0.00    +0.000 C 
ATOM     12  O   UNL     1      50.925   6.423  19.102  0.00  0.00    +0.000 OA
ATOM     13  H   UNL     1      49.972   3.501  19.830  0.00  0.00    +0.000 HD
BRANCH  11  14
ATOM     14  C   UNL     1      52.291   4.634  19.793  0.00  0.00    +0.000 A 
ATOM     15  C   UNL     1      53.033   5.189  20.829  0.00  0.00    +0.000 A 
ATOM     16  S   UNL     1      54.496   4.366  21.139  0.00  0.00    +0.000 S 
ATOM     17  C   UNL     1      54.162   3.205  19.941  0.00  0.00    +0.000 A 
ATOM     18  N   UNL     1      55.013   2.171  19.707  0.00  0.00    +0.000 NA
ATOM     19  C   UNL     1      54.618   1.343  18.798  0.00  0.00    +0.000 A 
ATOM     20  N   UNL     1      53.435   1.451  18.080  0.00  0.00    +0.000 N 
ATOM     21  C   UNL     1      53.092   0.483  17.060  0.00  0.00    +0.000 C 
ATOM     22  C   UNL     1      52.566   2.517  18.264  0.00  0.00    +0.000 A 
ATOM     23  O   UNL     1      51.549   2.667  17.595  0.00  0.00    +0.000 OA
ATOM     24  C   UNL     1      52.966   3.454  19.296  0.00  0.00    +0.000 A 
ENDBRANCH  11  14
ENDBRANCH   9  10
ENDBRANCH   3   9
BRANCH   6  25
ATOM     25  C   UNL     1      46.968   4.968  13.462  0.00  0.00    +0.000 C 
BRANCH  25  26
ATOM     26  N   UNL     1      45.599   5.459  13.186  0.00  0.00    +0.000 NA
ATOM     27  C   UNL     1      44.585   4.394  13.024  0.00  0.00    +0.000 C 
ATOM     28  C   UNL     1      44.637   3.548  11.722  0.00  0.00    +0.000 C 
ATOM     29  N   UNL     1      44.938   4.293  10.495  0.00  0.00    +0.000 N 
ATOM     30  C   UNL     1      44.900   3.720   9.222  0.00  0.00    +0.000 C 
ATOM     31  O   UNL     1      45.233   4.341   8.206  0.00  0.00    +0.000 OA
ATOM     32  C   UNL     1      45.767   5.491  10.626  0.00  0.00    +0.000 C 
ATOM     33  C   UNL     1      45.569   6.273  11.940  0.00  0.00    +0.000 C 
BRANCH  30  34
ATOM     34  C   UNL     1      44.473   2.251   9.080  0.00  0.00    +0.000 C 
BRANCH  34  35
ATOM     35  O   UNL     1      45.597   1.389   8.919  0.00  0.00    +0.000 OA
ATOM     36  H   UNL     1      46.188   1.571   9.680  0.00  0.00    +0.000 HD
ENDBRANCH  34  35
ENDBRANCH  30  34
ENDBRANCH  25  26
ENDBRANCH   6  25
TORSDOF 8
ENDMDL
MODEL 7
REMARK VINA RESULT:    -6.699      3.907      6.580
REMARK INTER + INTRA:          -9.670
REMARK INTER:                  -8.129
REMARK INTRA:                  -1.541
REMARK UNBOUND:                -0.034
REMARK  Name = 
REMARK  10 active torsions:
REMARK  status: ('A' for Active; 'I' for Inactive)
REMARK    1  A    between atoms: C_1  and  O_2
REMARK    2  A    between atoms: O_2  and  C_3
REMARK    3  A    between atoms: C_5  and  C_6
REMARK    4  A    between atoms: C_6  and  N_7
REMARK    5  A    between atoms: C_8  and  C_10
REMARK    6  A    between atoms: N_16  and  C_17
REMARK    7  A    between atoms: C_23  and  C_24
REMARK    8  A    between atoms: C_24  and  N_25
REMARK    9  A    between atoms: C_29  and  C_31
REMARK   10  A    between atoms: C_31  and  O_32
REMARK                            x       y       z     vdW  Elec       q    Type
REMARK                         _______ _______ _______ _____ _____    ______ ____
ROOT
ATOM      1  C   UNL     1      50.078   8.804  14.295  0.00  0.00    +0.000 A 
ATOM      2  C   UNL     1      51.182   8.754  15.180  0.00  0.00    +0.000 A 
ATOM      3  C   UNL     1      51.111   8.240  16.475  0.00  0.00    +0.000 A 
ATOM      4  C   UNL     1      49.857   7.842  16.927  0.00  0.00    +0.000 A 
ATOM      5  C   UNL     1      48.732   7.910  16.071  0.00  0.00    +0.000 A 
ATOM      6  C   UNL     1      48.809   8.370  14.726  0.00  0.00    +0.000 A 
ENDROOT
BRANCH   1   8
ATOM      7  C   UNL     1      51.069   8.497  12.089  0.00  0.00    +0.000 C 
ATOM      8  O   UNL     1      50.526   9.298  13.106  0.00  0.00    +0.000 OA
ENDBRANCH   1   8
BRANCH   3   9
ATOM      9  C   UNL     1      52.389   8.099  17.274  0.00  0.00    +0.000 C 
BRANCH   9  10
ATOM     10  N   UNL     1      52.861   6.740  17.393  0.00  0.00    +0.000 N 
ATOM     11  C   UNL     1      52.911   6.126  18.628  0.00  0.00    +0.000 C 
ATOM     12  O   UNL     1      52.746   6.751  19.673  0.00  0.00    +0.000 OA
ATOM     13  H   UNL     1      52.752   6.155  16.572  0.00  0.00    +0.000 HD
BRANCH  11  14
ATOM     14  C   UNL     1      53.198   4.682  18.644  0.00  0.00    +0.000 A 
ATOM     15  C   UNL     1      54.364   4.205  19.229  0.00  0.00    +0.000 A 
ATOM     16  S   UNL     1      54.529   2.508  19.142  0.00  0.00    +0.000 S 
ATOM     17  C   UNL     1      53.020   2.345  18.372  0.00  0.00    +0.000 A 
ATOM     18  N   UNL     1      52.527   1.122  18.042  0.00  0.00    +0.000 NA
ATOM     19  C   UNL     1      51.356   1.142  17.498  0.00  0.00    +0.000 A 
ATOM     20  N   UNL     1      50.615   2.287  17.240  0.00  0.00    +0.000 N 
ATOM     21  C   UNL     1      49.319   2.207  16.602  0.00  0.00    +0.000 C 
ATOM     22  C   UNL     1      51.108   3.553  17.527  0.00  0.00    +0.000 A 
ATOM     23  O   UNL     1      50.498   4.580  17.247  0.00  0.00    +0.000 OA
ATOM     24  C   UNL     1      52.412   3.567  18.161  0.00  0.00    +0.000 A 
ENDBRANCH  11  14
ENDBRANCH   9  10
ENDBRANCH   3   9
BRANCH   6  25
ATOM     25  C   UNL     1      47.497   8.521  13.951  0.00  0.00    +0.000 C 
BRANCH  25  26
ATOM     26  N   UNL     1      47.438   8.035  12.554  0.00  0.00    +0.000 NA
ATOM     27  C   UNL     1      46.107   8.156  11.917  0.00  0.00    +0.000 C 
ATOM     28  C   UNL     1      44.994   7.183  12.395  0.00  0.00    +0.000 C 
ATOM     29  N   UNL     1      45.424   5.803  12.647  0.00  0.00    +0.000 N 
ATOM     30  C   UNL     1      44.539   4.769  12.957  0.00  0.00    +0.000 C 
ATOM     31  O   UNL     1      44.926   3.630  13.244  0.00  0.00    +0.000 OA
ATOM     32  C   UNL     1      46.809   5.602  13.074  0.00  0.00    +0.000 C 
ATOM     33  C   UNL     1      47.821   6.599  12.476  0.00  0.00    +0.000 C 
BRANCH  30  34
ATOM     34  C   UNL     1      43.032   5.064  12.988  0.00  0.00    +0.000 C 
BRANCH  34  35
ATOM     35  O   UNL     1      42.384   4.621  11.798  0.00  0.00    +0.000 OA
ATOM     36  H   UNL     1      41.521   4.252  12.082  0.00  0.00    +0.000 HD
ENDBRANCH  34  35
ENDBRANCH  30  34
ENDBRANCH  25  26
ENDBRANCH   6  25
TORSDOF 8
ENDMDL
MODEL 8
REMARK VINA RESULT:    -6.595      2.633      4.702
REMARK INTER + INTRA:          -9.520
REMARK INTER:                  -8.363
REMARK INTRA:                  -1.158
REMARK UNBOUND:                -0.034
REMARK  Name = 
REMARK  10 active torsions:
REMARK  status: ('A' for Active; 'I' for Inactive)
REMARK    1  A    between atoms: C_1  and  O_2
REMARK    2  A    between atoms: O_2  and  C_3
REMARK    3  A    between atoms: C_5  and  C_6
REMARK    4  A    between atoms: C_6  and  N_7
REMARK    5  A    between atoms: C_8  and  C_10
REMARK    6  A    between atoms: N_16  and  C_17
REMARK    7  A    between atoms: C_23  and  C_24
REMARK    8  A    between atoms: C_24  and  N_25
REMARK    9  A    between atoms: C_29  and  C_31
REMARK   10  A    between atoms: C_31  and  O_32
REMARK                            x       y       z     vdW  Elec       q    Type
REMARK                         _______ _______ _______ _____ _____    ______ ____
ROOT
ATOM      1  C   UNL     1      48.372   6.288  15.424  0.00  0.00    +0.000 A 
ATOM      2  C   UNL     1      48.646   6.161  16.808  0.00  0.00    +0.000 A 
ATOM      3  C   UNL     1      48.245   5.068  17.577  0.00  0.00    +0.000 A 
ATOM      4  C   UNL     1      47.461   4.107  16.945  0.00  0.00    +0.000 A 
ATOM      5  C   UNL     1      47.149   4.228  15.570  0.00  0.00    +0.000 A 
ATOM      6  C   UNL     1      47.611   5.306  14.763  0.00  0.00    +0.000 A 
ENDROOT
BRANCH   1   8
ATOM      7  C   UNL     1      48.361   8.700  15.063  0.00  0.00    +0.000 C 
ATOM      8  O   UNL     1      48.969   7.436  14.992  0.00  0.00    +0.000 OA
ENDBRANCH   1   8
BRANCH   3   9
ATOM      9  C   UNL     1      48.726   4.969  19.009  0.00  0.00    +0.000 C 
BRANCH   9  10
ATOM     10  N   UNL     1      49.830   5.845  19.320  0.00  0.00    +0.000 N 
ATOM     11  C   UNL     1      51.129   5.395  19.203  0.00  0.00    +0.000 C 
ATOM     12  O   UNL     1      51.394   4.209  19.022  0.00  0.00    +0.000 OA
ATOM     13  H   UNL     1      49.656   6.838  19.216  0.00  0.00    +0.000 HD
BRANCH  11  14
ATOM     14  C   UNL     1      52.197   6.401  19.330  0.00  0.00    +0.000 A 
ATOM     15  C   UNL     1      52.645   6.793  20.586  0.00  0.00    +0.000 A 
ATOM     16  S   UNL     1      53.877   7.973  20.535  0.00  0.00    +0.000 S 
ATOM     17  C   UNL     1      53.898   7.959  18.833  0.00  0.00    +0.000 A 
ATOM     18  N   UNL     1      54.769   8.733  18.134  0.00  0.00    +0.000 NA
ATOM     19  C   UNL     1      54.703   8.595  16.851  0.00  0.00    +0.000 A 
ATOM     20  N   UNL     1      53.830   7.747  16.184  0.00  0.00    +0.000 N 
ATOM     21  C   UNL     1      53.814   7.681  14.738  0.00  0.00    +0.000 C 
ATOM     22  C   UNL     1      52.899   6.975  16.867  0.00  0.00    +0.000 A 
ATOM     23  O   UNL     1      52.076   6.269  16.294  0.00  0.00    +0.000 OA
ATOM     24  C   UNL     1      52.962   7.087  18.311  0.00  0.00    +0.000 A 
ENDBRANCH  11  14
ENDBRANCH   9  10
ENDBRANCH   3   9
BRANCH   6  25
ATOM     25  C   UNL     1      47.091   5.389  13.325  0.00  0.00    +0.000 C 
BRANCH  25  26
ATOM     26  N   UNL     1      45.670   5.739  13.102  0.00  0.00    +0.000 NA
ATOM     27  C   UNL     1      44.757   4.577  13.016  0.00  0.00    +0.000 C 
ATOM     28  C   UNL     1      44.832   3.701  11.736  0.00  0.00    +0.000 C 
ATOM     29  N   UNL     1      45.004   4.433  10.476  0.00  0.00    +0.000 N 
ATOM     30  C   UNL     1      44.964   3.821   9.222  0.00  0.00    +0.000 C 
ATOM     31  O   UNL     1      45.190   4.440   8.176  0.00  0.00    +0.000 OA
ATOM     32  C   UNL     1      45.719   5.709  10.537  0.00  0.00    +0.000 C 
ATOM     33  C   UNL     1      45.506   6.508  11.838  0.00  0.00    +0.000 C 
BRANCH  30  34
ATOM     34  C   UNL     1      44.675   2.315   9.139  0.00  0.00    +0.000 C 
BRANCH  34  35
ATOM     35  O   UNL     1      45.840   1.574   8.781  0.00  0.00    +0.000 OA
ATOM     36  H   UNL     1      45.519   0.703   8.463  0.00  0.00    +0.000 HD
ENDBRANCH  34  35
ENDBRANCH  30  34
ENDBRANCH  25  26
ENDBRANCH   6  25
TORSDOF 8
ENDMDL
MODEL 9
REMARK VINA RESULT:    -6.530      3.146      9.861
REMARK INTER + INTRA:          -9.426
REMARK INTER:                  -8.433
REMARK INTRA:                  -0.993
REMARK UNBOUND:                -0.034
REMARK  Name = 
REMARK  10 active torsions:
REMARK  status: ('A' for Active; 'I' for Inactive)
REMARK    1  A    between atoms: C_1  and  O_2
REMARK    2  A    between atoms: O_2  and  C_3
REMARK    3  A    between atoms: C_5  and  C_6
REMARK    4  A    between atoms: C_6  and  N_7
REMARK    5  A    between atoms: C_8  and  C_10
REMARK    6  A    between atoms: N_16  and  C_17
REMARK    7  A    between atoms: C_23  and  C_24
REMARK    8  A    between atoms: C_24  and  N_25
REMARK    9  A    between atoms: C_29  and  C_31
REMARK   10  A    between atoms: C_31  and  O_32
REMARK                            x       y       z     vdW  Elec       q    Type
REMARK                         _______ _______ _______ _____ _____    ______ ____
ROOT
ATOM      1  C   UNL     1      49.968   9.392  14.428  0.00  0.00    +0.000 A 
ATOM      2  C   UNL     1      49.180   9.064  13.299  0.00  0.00    +0.000 A 
ATOM      3  C   UNL     1      48.280   7.998  13.267  0.00  0.00    +0.000 A 
ATOM      4  C   UNL     1      48.238   7.176  14.390  0.00  0.00    +0.000 A 
ATOM      5  C   UNL     1      49.039   7.466  15.520  0.00  0.00    +0.000 A 
ATOM      6  C   UNL     1      49.910   8.591  15.585  0.00  0.00    +0.000 A 
ENDROOT
BRANCH   1   8
ATOM      7  C   UNL     1      50.338  11.380  13.067  0.00  0.00    +0.000 C 
ATOM      8  O   UNL     1      50.670  10.521  14.126  0.00  0.00    +0.000 OA
ENDBRANCH   1   8
BRANCH   3   9
ATOM      9  C   UNL     1      47.382   7.837  12.060  0.00  0.00    +0.000 C 
BRANCH   9  10
ATOM     10  N   UNL     1      46.676   6.580  12.016  0.00  0.00    +0.000 N 
ATOM     11  C   UNL     1      45.376   6.527  11.554  0.00  0.00    +0.000 C 
ATOM     12  O   UNL     1      44.717   7.543  11.347  0.00  0.00    +0.000 OA
ATOM     13  H   UNL     1      47.248   5.747  11.931  0.00  0.00    +0.000 HD
BRANCH  11  14
ATOM     14  C   UNL     1      44.798   5.190  11.341  0.00  0.00    +0.000 A 
ATOM     15  C   UNL     1      43.955   4.631  12.293  0.00  0.00    +0.000 A 
ATOM     16  S   UNL     1      43.391   3.074  11.878  0.00  0.00    +0.000 S 
ATOM     17  C   UNL     1      44.206   3.116  10.384  0.00  0.00    +0.000 A 
ATOM     18  N   UNL     1      44.114   2.086   9.503  0.00  0.00    +0.000 NA
ATOM     19  C   UNL     1      44.750   2.266   8.394  0.00  0.00    +0.000 A 
ATOM     20  N   UNL     1      45.490   3.395   8.073  0.00  0.00    +0.000 N 
ATOM     21  C   UNL     1      46.191   3.493   6.811  0.00  0.00    +0.000 C 
ATOM     22  C   UNL     1      45.640   4.447   8.968  0.00  0.00    +0.000 A 
ATOM     23  O   UNL     1      46.342   5.424   8.731  0.00  0.00    +0.000 OA
ATOM     24  C   UNL     1      44.918   4.288  10.215  0.00  0.00    +0.000 A 
ENDBRANCH  11  14
ENDBRANCH   9  10
ENDBRANCH   3   9
BRANCH   6  25
ATOM     25  C   UNL     1      50.819   8.715  16.810  0.00  0.00    +0.000 C 
BRANCH  25  26
ATOM     26  N   UNL     1      52.273   8.498  16.641  0.00  0.00    +0.000 NA
ATOM     27  C   UNL     1      52.632   7.228  15.972  0.00  0.00    +0.000 C 
ATOM     28  C   UNL     1      52.443   5.914  16.781  0.00  0.00    +0.000 C 
ATOM     29  N   UNL     1      52.820   5.984  18.197  0.00  0.00    +0.000 N 
ATOM     30  C   UNL     1      52.836   4.871  19.041  0.00  0.00    +0.000 C 
ATOM     31  O   UNL     1      53.079   4.961  20.250  0.00  0.00    +0.000 OA
ATOM     32  C   UNL     1      52.690   7.281  18.861  0.00  0.00    +0.000 C 
ATOM     33  C   UNL     1      52.967   8.500  17.958  0.00  0.00    +0.000 C 
BRANCH  30  34
ATOM     34  C   UNL     1      52.496   3.491  18.458  0.00  0.00    +0.000 C 
BRANCH  34  35
ATOM     35  O   UNL     1      51.097   3.224  18.520  0.00  0.00    +0.000 OA
ATOM     36  H   UNL     1      50.716   3.911  19.107  0.00  0.00    +0.000 HD
ENDBRANCH  34  35
ENDBRANCH  30  34
ENDBRANCH  25  26
ENDBRANCH   6  25
TORSDOF 8
ENDMDL
