MODEL 1
REMARK VINA RESULT:    -7.541      0.000      0.000
REMARK INTER + INTRA:         -13.710
REMARK INTER:                 -11.729
REMARK INTRA:                  -1.981
REMARK UNBOUND:                -1.981
REMARK  Name = 
REMARK  12 active torsions:
REMARK  status: ('A' for Active; 'I' for Inactive)
REMARK    1  A    between atoms: C_1  and  C_2
REMARK    2  A    between atoms: C_2  and  C_3
REMARK    3  A    between atoms: C_3  and  N_4
REMARK    4  A    between atoms: C_3  and  C_18
REMARK    5  A    between atoms: C_5  and  C_7
REMARK    6  A    between atoms: N_13  and  C_14
REMARK    7  A    between atoms: C_21  and  C_22
REMARK    8  A    between atoms: C_22  and  N_23
REMARK    9  A    between atoms: N_23  and  CA_24
REMARK   10  A    between atoms: CA_24  and  C_25
REMARK   11  A    between atoms: CA_24  and  C_27
REMARK   12  A    between atoms: C_25  and  O_26
REMARK                            x       y       z     vdW  Elec       q    Type
REMARK                         _______ _______ _______ _____ _____    ______ ____
ROOT
ATOM      1  C   UNL     1      47.314   7.818  12.573  0.00  0.00    +0.000 A 
ATOM      2  C   UNL     1      47.227   6.418  12.591  0.00  0.00    +0.000 A 
ATOM      3  C   UNL     1      46.023   5.776  12.289  0.00  0.00    +0.000 A 
ATOM      4  C   UNL     1      44.890   6.523  11.954  0.00  0.00    +0.000 A 
ATOM      5  C   UNL     1      45.007   7.913  11.828  0.00  0.00    +0.000 A 
ATOM      6  C   UNL     1      46.212   8.550  12.109  0.00  0.00    +0.000 A 
ENDROOT
BRANCH   1   7
ATOM      7  C   UNL     1      48.581   8.504  13.057  0.00  0.00    +0.000 C 
BRANCH   7   8
ATOM      8  N   UNL     1      49.238   7.628  14.000  0.00  0.00    +0.000 N 
ATOM      9  C   UNL     1      49.546   7.978  15.291  0.00  0.00    +0.000 C 
ATOM     10  O   UNL     1      49.110   8.984  15.844  0.00  0.00    +0.000 OA
ATOM     11  H   UNL     1      49.733   6.852  13.582  0.00  0.00    +0.000 HD
BRANCH   9  12
ATOM     12  C   UNL     1      50.395   7.001  15.982  0.00  0.00    +0.000 A 
ATOM     13  C   UNL     1      51.755   7.215  16.143  0.00  0.00    +0.000 A 
ATOM     14  S   UNL     1      52.518   5.998  17.073  0.00  0.00    +0.000 S 
ATOM     15  C   UNL     1      51.068   5.124  17.232  0.00  0.00    +0.000 A 
ATOM     16  N   UNL     1      51.013   3.960  17.931  0.00  0.00    +0.000 NA
ATOM     17  C   UNL     1      49.846   3.390  17.937  0.00  0.00    +0.000 A 
ATOM     18  N   UNL     1      48.721   3.861  17.292  0.00  0.00    +0.000 N 
ATOM     19  C   UNL     1      47.475   3.130  17.335  0.00  0.00    +0.000 C 
ATOM     20  C   UNL     1      48.745   5.050  16.577  0.00  0.00    +0.000 A 
ATOM     21  O   UNL     1      47.749   5.491  16.009  0.00  0.00    +0.000 OA
ATOM     22  C   UNL     1      50.021   5.740  16.571  0.00  0.00    +0.000 A 
ENDBRANCH   9  12
ENDBRANCH   7   8
BRANCH   7  24
ATOM     23  C   UNL     1      50.398   7.754  11.408  0.00  0.00    +0.000 C 
ATOM     24  C   UNL     1      49.540   8.911  11.911  0.00  0.00    +0.000 C 
ENDBRANCH   7  24
ENDBRANCH   1   7
BRANCH   4  25
ATOM     25  C   UNL     1      43.557   5.867  11.699  0.00  0.00    +0.000 C 
BRANCH  25  26
ATOM     26  N   UNL     1      43.438   5.325  10.342  0.00  0.00    +0.000 NA
ATOM     27  H   UNL     1      44.128   5.757   9.730  0.00  0.00    +0.000 HD
BRANCH  26  28
ATOM     28  CA  UNL     1      43.583   3.845  10.307  0.00  0.00    +0.000 C 
BRANCH  28  29
ATOM     29  C   UNL     1      44.945   3.417   9.665  0.00  0.00    +0.000 C 
ATOM     30  C   UNL     1      45.200   3.991   8.276  0.00  0.00    +0.000 C 
ATOM     31  C   UNL     1      46.247   3.052   7.705  0.00  0.00    +0.000 C 
ATOM     32  C   UNL     1      45.890   1.701   8.293  0.00  0.00    +0.000 C 
ATOM     33  N   UNL     1      45.025   1.955   9.447  0.00  0.00    +0.000 NA
ATOM     34  H   UNL     1      45.416   1.513  10.280  0.00  0.00    +0.000 HD
ENDBRANCH  28  29
BRANCH  28  35
ATOM     35  C   UNL     1      43.429   3.188  11.706  0.00  0.00    +0.000 C 
BRANCH  35  36
ATOM     36  O   UNL     1      43.041   1.817  11.608  0.00  0.00    +0.000 OA
ATOM     37  H   UNL     1      43.176   1.418  12.483  0.00  0.00    +0.000 HD
ENDBRANCH  35  36
ENDBRANCH  28  35
ENDBRANCH  26  28
ENDBRANCH  25  26
ENDBRANCH   4  25
TORSDOF 10
ENDMDL
MODEL 2
REMARK VINA RESULT:    -7.499      1.733      1.913
REMARK INTER + INTRA:         -13.645
REMARK INTER:                 -12.086
REMARK INTRA:                  -1.559
REMARK UNBOUND:                -1.981
REMARK  Name = 
REMARK  12 active torsions:
REMARK  status: ('A' for Active; 'I' for Inactive)
REMARK    1  A    between atoms: C_1  and  C_2
REMARK    2  A    between atoms: C_2  and  C_3
REMARK    3  A    between atoms: C_3  and  N_4
REMARK    4  A    between atoms: C_3  and  C_18
REMARK    5  A    between atoms: C_5  and  C_7
REMARK    6  A    between atoms: N_13  and  C_14
REMARK    7  A    between atoms: C_21  and  C_22
REMARK    8  A    between atoms: C_22  and  N_23
REMARK    9  A    between atoms: N_23  and  CA_24
REMARK   10  A    between atoms: CA_24  and  C_25
REMARK   11  A    between atoms: CA_24  and  C_27
REMARK   12  A    between atoms: C_25  and  O_26
REMARK                            x       y       z     vdW  Elec       q    Type
REMARK                         _______ _______ _______ _____ _____    ______ ____
ROOT
ATOM      1  C   UNL     1      46.984   7.475  13.108  0.00  0.00    +0.000 A 
ATOM      2  C   UNL     1      46.739   6.102  13.264  0.00  0.00    +0.000 A 
ATOM      3  C   UNL     1      45.573   5.525  12.755  0.00  0.00    +0.000 A 
ATOM      4  C   UNL     1      44.637   6.309  12.073  0.00  0.00    +0.000 A 
ATOM      5  C   UNL     1      44.935   7.654  11.821  0.00  0.00    +0.000 A 
ATOM      6  C   UNL     1      46.107   8.223  12.310  0.00  0.00    +0.000 A 
ENDROOT
BRANCH   1   7
ATOM      7  C   UNL     1      48.175   8.115  13.802  0.00  0.00    +0.000 C 
BRANCH   7   8
ATOM      8  N   UNL     1      48.023   7.927  15.226  0.00  0.00    +0.000 N 
ATOM      9  C   UNL     1      48.782   8.568  16.173  0.00  0.00    +0.000 C 
ATOM     10  O   UNL     1      49.519   9.519  15.924  0.00  0.00    +0.000 OA
ATOM     11  H   UNL     1      47.540   7.080  15.492  0.00  0.00    +0.000 HD
BRANCH   9  12
ATOM     12  C   UNL     1      48.586   8.057  17.534  0.00  0.00    +0.000 A 
ATOM     13  C   UNL     1      48.244   8.902  18.578  0.00  0.00    +0.000 A 
ATOM     14  S   UNL     1      47.960   8.070  20.047  0.00  0.00    +0.000 S 
ATOM     15  C   UNL     1      48.346   6.571  19.343  0.00  0.00    +0.000 A 
ATOM     16  N   UNL     1      48.298   5.417  20.059  0.00  0.00    +0.000 NA
ATOM     17  C   UNL     1      48.651   4.357  19.396  0.00  0.00    +0.000 A 
ATOM     18  N   UNL     1      49.070   4.337  18.082  0.00  0.00    +0.000 N 
ATOM     19  C   UNL     1      49.473   3.103  17.446  0.00  0.00    +0.000 C 
ATOM     20  C   UNL     1      49.122   5.498  17.324  0.00  0.00    +0.000 A 
ATOM     21  O   UNL     1      49.479   5.495  16.148  0.00  0.00    +0.000 OA
ATOM     22  C   UNL     1      48.703   6.703  18.014  0.00  0.00    +0.000 A 
ENDBRANCH   9  12
ENDBRANCH   7   8
BRANCH   7  24
ATOM     23  C   UNL     1      49.777   7.811  11.820  0.00  0.00    +0.000 C 
ATOM     24  C   UNL     1      49.541   7.575  13.309  0.00  0.00    +0.000 C 
ENDBRANCH   7  24
ENDBRANCH   1   7
BRANCH   4  25
ATOM     25  C   UNL     1      43.333   5.735  11.580  0.00  0.00    +0.000 C 
BRANCH  25  26
ATOM     26  N   UNL     1      43.426   5.193  10.221  0.00  0.00    +0.000 NA
ATOM     27  H   UNL     1      44.185   5.645   9.714  0.00  0.00    +0.000 HD
BRANCH  26  28
ATOM     28  CA  UNL     1      43.615   3.718  10.210  0.00  0.00    +0.000 C 
BRANCH  28  29
ATOM     29  C   UNL     1      44.996   3.320   9.588  0.00  0.00    +0.000 C 
ATOM     30  C   UNL     1      45.248   3.881   8.193  0.00  0.00    +0.000 C 
ATOM     31  C   UNL     1      46.328   2.964   7.648  0.00  0.00    +0.000 C 
ATOM     32  C   UNL     1      46.004   1.612   8.252  0.00  0.00    +0.000 C 
ATOM     33  N   UNL     1      45.121   1.858   9.393  0.00  0.00    +0.000 NA
ATOM     34  H   UNL     1      45.515   1.440  10.237  0.00  0.00    +0.000 HD
ENDBRANCH  28  29
BRANCH  28  35
ATOM     35  C   UNL     1      43.465   3.077  11.617  0.00  0.00    +0.000 C 
BRANCH  35  36
ATOM     36  O   UNL     1      43.017   1.723  11.538  0.00  0.00    +0.000 OA
ATOM     37  H   UNL     1      42.983   1.488  10.596  0.00  0.00    +0.000 HD
ENDBRANCH  35  36
ENDBRANCH  28  35
ENDBRANCH  26  28
ENDBRANCH  25  26
ENDBRANCH   4  25
TORSDOF 10
ENDMDL
MODEL 3
REMARK VINA RESULT:    -6.084      3.012      8.344
REMARK INTER + INTRA:         -11.444
REMARK INTER:                 -10.599
REMARK INTRA:                  -0.845
REMARK UNBOUND:                -1.981
REMARK  Name = 
REMARK  12 active torsions:
REMARK  status: ('A' for Active; 'I' for Inactive)
REMARK    1  A    between atoms: C_1  and  C_2
REMARK    2  A    between atoms: C_2  and  C_3
REMARK    3  A    between atoms: C_3  and  N_4
REMARK    4  A    between atoms: C_3  and  C_18
REMARK    5  A    between atoms: C_5  and  C_7
REMARK    6  A    between atoms: N_13  and  C_14
REMARK    7  A    between atoms: C_21  and  C_22
REMARK    8  A    between atoms: C_22  and  N_23
REMARK    9  A    between atoms: N_23  and  CA_24
REMARK   10  A    between atoms: CA_24  and  C_25
REMARK   11  A    between atoms: CA_24  and  C_27
REMARK   12  A    between atoms: C_25  and  O_26
REMARK                            x       y       z     vdW  Elec       q    Type
REMARK                         _______ _______ _______ _____ _____    ______ ____
ROOT
ATOM      1  C   UNL     1      47.962   7.655  13.166  0.00  0.00    +0.000 A 
ATOM      2  C   UNL     1      49.059   8.518  13.301  0.00  0.00    +0.000 A 
ATOM      3  C   UNL     1      49.973   8.349  14.345  0.00  0.00    +0.000 A 
ATOM      4  C   UNL     1      49.810   7.308  15.264  0.00  0.00    +0.000 A 
ATOM      5  C   UNL     1      48.778   6.382  15.062  0.00  0.00    +0.000 A 
ATOM      6  C   UNL     1      47.881   6.539  14.010  0.00  0.00    +0.000 A 
ENDROOT
BRANCH   1   7
ATOM      7  C   UNL     1      46.894   7.947  12.123  0.00  0.00    +0.000 C 
BRANCH   7   8
ATOM      8  N   UNL     1      46.281   6.697  11.741  0.00  0.00    +0.000 N 
ATOM      9  C   UNL     1      44.939   6.539  11.498  0.00  0.00    +0.000 C 
ATOM     10  O   UNL     1      44.157   7.477  11.370  0.00  0.00    +0.000 OA
ATOM     11  H   UNL     1      46.830   5.874  11.954  0.00  0.00    +0.000 HD
BRANCH   9  12
ATOM     12  C   UNL     1      44.528   5.140  11.334  0.00  0.00    +0.000 A 
ATOM     13  C   UNL     1      43.802   4.484  12.316  0.00  0.00    +0.000 A 
ATOM     14  S   UNL     1      43.342   2.899  11.860  0.00  0.00    +0.000 S 
ATOM     15  C   UNL     1      44.150   3.026  10.370  0.00  0.00    +0.000 A 
ATOM     16  N   UNL     1      44.150   2.006   9.473  0.00  0.00    +0.000 NA
ATOM     17  C   UNL     1      44.837   2.237   8.395  0.00  0.00    +0.000 A 
ATOM     18  N   UNL     1      45.548   3.389   8.130  0.00  0.00    +0.000 N 
ATOM     19  C   UNL     1      46.309   3.533   6.909  0.00  0.00    +0.000 C 
ATOM     20  C   UNL     1      45.561   4.451   9.024  0.00  0.00    +0.000 A 
ATOM     21  O   UNL     1      46.177   5.489   8.796  0.00  0.00    +0.000 OA
ATOM     22  C   UNL     1      44.778   4.251  10.228  0.00  0.00    +0.000 A 
ENDBRANCH   9  12
ENDBRANCH   7   8
BRANCH   7  24
ATOM     23  C   UNL     1      45.988  10.341  11.945  0.00  0.00    +0.000 C 
ATOM     24  C   UNL     1      45.832   8.970  12.597  0.00  0.00    +0.000 C 
ENDBRANCH   7  24
ENDBRANCH   1   7
BRANCH   4  25
ATOM     25  C   UNL     1      50.731   7.144  16.446  0.00  0.00    +0.000 C 
BRANCH  25  26
ATOM     26  N   UNL     1      51.010   5.739  16.760  0.00  0.00    +0.000 NA
ATOM     27  H   UNL     1      51.973   5.511  16.520  0.00  0.00    +0.000 HD
BRANCH  26  28
ATOM     28  CA  UNL     1      50.753   5.416  18.189  0.00  0.00    +0.000 C 
BRANCH  28  29
ATOM     29  C   UNL     1      49.495   4.499  18.354  0.00  0.00    +0.000 C 
ATOM     30  C   UNL     1      49.253   3.540  17.194  0.00  0.00    +0.000 C 
ATOM     31  C   UNL     1      47.784   3.189  17.341  0.00  0.00    +0.000 C 
ATOM     32  C   UNL     1      47.153   4.461  17.871  0.00  0.00    +0.000 C 
ATOM     33  N   UNL     1      48.238   5.280  18.415  0.00  0.00    +0.000 NA
ATOM     34  H   UNL     1      48.041   5.521  19.387  0.00  0.00    +0.000 HD
ENDBRANCH  28  29
BRANCH  28  35
ATOM     35  C   UNL     1      51.976   4.765  18.893  0.00  0.00    +0.000 C 
BRANCH  35  36
ATOM     36  O   UNL     1      51.828   3.350  19.010  0.00  0.00    +0.000 OA
ATOM     37  H   UNL     1      52.716   2.980  19.154  0.00  0.00    +0.000 HD
ENDBRANCH  35  36
ENDBRANCH  28  35
ENDBRANCH  26  28
ENDBRANCH  25  26
ENDBRANCH   4  25
TORSDOF 10
ENDMDL
MODEL 4
REMARK VINA RESULT:    -5.945      2.414      3.469
REMARK INTER + INTRA:         -11.227
REMARK INTER:                  -9.685
REMARK INTRA:                  -1.542
REMARK UNBOUND:                -1.981
REMARK  Name = 
REMARK  12 active torsions:
REMARK  status: ('A' for Active; 'I' for Inactive)
REMARK    1  A    between atoms: C_1  and  C_2
REMARK    2  A    between atoms: C_2  and  C_3
REMARK    3  A    between atoms: C_3  and  N_4
REMARK    4  A    between atoms: C_3  and  C_18
REMARK    5  A    between atoms: C_5  and  C_7
REMARK    6  A    between atoms: N_13  and  C_14
REMARK    7  A    between atoms: C_21  and  C_22
REMARK    8  A    between atoms: C_22  and  N_23
REMARK    9  A    between atoms: N_23  and  CA_24
REMARK   10  A    between atoms: CA_24  and  C_25
REMARK   11  A    between atoms: CA_24  and  C_27
REMARK   12  A    between atoms: C_25  and  O_26
REMARK                            x       y       z     vdW  Elec       q    Type
REMARK                         _______ _______ _______ _____ _____    ______ ____
ROOT
ATOM      1  C   UNL     1      48.684   6.668  15.604  0.00  0.00    +0.000 A 
ATOM      2  C   UNL     1      48.080   5.480  16.042  0.00  0.00    +0.000 A 
ATOM      3  C   UNL     1      47.258   4.743  15.185  0.00  0.00    +0.000 A 
ATOM      4  C   UNL     1      47.035   5.176  13.875  0.00  0.00    +0.000 A 
ATOM      5  C   UNL     1      47.727   6.300  13.406  0.00  0.00    +0.000 A 
ATOM      6  C   UNL     1      48.562   7.022  14.254  0.00  0.00    +0.000 A 
ENDROOT
BRANCH   1   7
ATOM      7  C   UNL     1      49.444   7.539  16.593  0.00  0.00    +0.000 C 
BRANCH   7   8
ATOM      8  N   UNL     1      50.546   6.769  17.119  0.00  0.00    +0.000 N 
ATOM      9  C   UNL     1      50.734   6.502  18.453  0.00  0.00    +0.000 C 
ATOM     10  O   UNL     1      49.879   6.705  19.312  0.00  0.00    +0.000 OA
ATOM     11  H   UNL     1      51.340   6.687  16.498  0.00  0.00    +0.000 HD
BRANCH   9  12
ATOM     12  C   UNL     1      52.030   5.887  18.757  0.00  0.00    +0.000 A 
ATOM     13  C   UNL     1      53.065   6.624  19.311  0.00  0.00    +0.000 A 
ATOM     14  S   UNL     1      54.440   5.674  19.681  0.00  0.00    +0.000 S 
ATOM     15  C   UNL     1      53.713   4.269  19.056  0.00  0.00    +0.000 A 
ATOM     16  N   UNL     1      54.356   3.072  19.067  0.00  0.00    +0.000 NA
ATOM     17  C   UNL     1      53.688   2.098  18.526  0.00  0.00    +0.000 A 
ATOM     18  N   UNL     1      52.439   2.204  17.951  0.00  0.00    +0.000 N 
ATOM     19  C   UNL     1      51.795   1.061  17.345  0.00  0.00    +0.000 C 
ATOM     20  C   UNL     1      51.756   3.412  17.931  0.00  0.00    +0.000 A 
ATOM     21  O   UNL     1      50.637   3.521  17.436  0.00  0.00    +0.000 OA
ATOM     22  C   UNL     1      52.449   4.523  18.556  0.00  0.00    +0.000 A 
ENDBRANCH   9  12
ENDBRANCH   7   8
BRANCH   7  24
ATOM     23  C   UNL     1      49.014  10.052  16.306  0.00  0.00    +0.000 C 
ATOM     24  C   UNL     1      49.935   8.877  15.988  0.00  0.00    +0.000 C 
ENDBRANCH   7  24
ENDBRANCH   1   7
BRANCH   4  25
ATOM     25  C   UNL     1      46.094   4.448  12.950  0.00  0.00    +0.000 C 
BRANCH  25  26
ATOM     26  N   UNL     1      45.728   5.239  11.771  0.00  0.00    +0.000 NA
ATOM     27  H   UNL     1      46.278   4.944  10.966  0.00  0.00    +0.000 HD
BRANCH  26  28
ATOM     28  CA  UNL     1      44.277   5.147  11.455  0.00  0.00    +0.000 C 
BRANCH  28  29
ATOM     29  C   UNL     1      44.029   4.392  10.105  0.00  0.00    +0.000 C 
ATOM     30  C   UNL     1      44.334   2.899  10.150  0.00  0.00    +0.000 C 
ATOM     31  C   UNL     1      44.522   2.546   8.686  0.00  0.00    +0.000 C 
ATOM     32  C   UNL     1      45.158   3.785   8.086  0.00  0.00    +0.000 C 
ATOM     33  N   UNL     1      44.907   4.885   9.020  0.00  0.00    +0.000 NA
ATOM     34  H   UNL     1      44.442   5.654   8.536  0.00  0.00    +0.000 HD
ENDBRANCH  28  29
BRANCH  28  35
ATOM     35  C   UNL     1      43.450   4.483  12.590  0.00  0.00    +0.000 C 
BRANCH  35  36
ATOM     36  O   UNL     1      42.737   5.451  13.362  0.00  0.00    +0.000 OA
ATOM     37  H   UNL     1      43.070   6.326  13.101  0.00  0.00    +0.000 HD
ENDBRANCH  35  36
ENDBRANCH  28  35
ENDBRANCH  26  28
ENDBRANCH  25  26
ENDBRANCH   4  25
TORSDOF 10
ENDMDL
MODEL 5
REMARK VINA RESULT:    -5.658      1.866      2.222
REMARK INTER + INTRA:         -10.781
REMARK INTER:                  -9.629
REMARK INTRA:                  -1.152
REMARK UNBOUND:                -1.981
REMARK  Name = 
REMARK  12 active torsions:
REMARK  status: ('A' for Active; 'I' for Inactive)
REMARK    1  A    between atoms: C_1  and  C_2
REMARK    2  A    between atoms: C_2  and  C_3
REMARK    3  A    between atoms: C_3  and  N_4
REMARK    4  A    between atoms: C_3  and  C_18
REMARK    5  A    between atoms: C_5  and  C_7
REMARK    6  A    between atoms: N_13  and  C_14
REMARK    7  A    between atoms: C_21  and  C_22
REMARK    8  A    between atoms: C_22  and  N_23
REMARK    9  A    between atoms: N_23  and  CA_24
REMARK   10  A    between atoms: CA_24  and  C_25
REMARK   11  A    between atoms: CA_24  and  C_27
REMARK   12  A    between atoms: C_25  and  O_26
REMARK                            x       y       z     vdW  Elec       q    Type
REMARK                         _______ _______ _______ _____ _____    ______ ____
ROOT
ATOM      1  C   UNL     1      48.815   9.041  13.461  0.00  0.00    +0.000 A 
ATOM      2  C   UNL     1      49.234   8.488  12.242  0.00  0.00    +0.000 A 
ATOM      3  C   UNL     1      48.420   7.585  11.553  0.00  0.00    +0.000 A 
ATOM      4  C   UNL     1      47.169   7.228  12.067  0.00  0.00    +0.000 A 
ATOM      5  C   UNL     1      46.706   7.866  13.225  0.00  0.00    +0.000 A 
ATOM      6  C   UNL     1      47.509   8.781  13.899  0.00  0.00    +0.000 A 
ENDROOT
BRANCH   1   7
ATOM      7  C   UNL     1      49.775   9.896  14.273  0.00  0.00    +0.000 C 
BRANCH   7   8
ATOM      8  N   UNL     1      50.042   9.216  15.519  0.00  0.00    +0.000 N 
ATOM      9  C   UNL     1      50.851   8.113  15.637  0.00  0.00    +0.000 C 
ATOM     10  O   UNL     1      51.596   7.719  14.744  0.00  0.00    +0.000 OA
ATOM     11  H   UNL     1      49.372   9.400  16.254  0.00  0.00    +0.000 HD
BRANCH   9  12
ATOM     12  C   UNL     1      50.798   7.479  16.960  0.00  0.00    +0.000 A 
ATOM     13  C   UNL     1      51.667   7.852  17.973  0.00  0.00    +0.000 A 
ATOM     14  S   UNL     1      51.348   7.056  19.454  0.00  0.00    +0.000 S 
ATOM     15  C   UNL     1      50.083   6.151  18.766  0.00  0.00    +0.000 A 
ATOM     16  N   UNL     1      49.365   5.262  19.501  0.00  0.00    +0.000 NA
ATOM     17  C   UNL     1      48.455   4.622  18.832  0.00  0.00    +0.000 A 
ATOM     18  N   UNL     1      48.201   4.767  17.484  0.00  0.00    +0.000 N 
ATOM     19  C   UNL     1      47.182   3.979  16.826  0.00  0.00    +0.000 C 
ATOM     20  C   UNL     1      48.913   5.672  16.709  0.00  0.00    +0.000 A 
ATOM     21  O   UNL     1      48.689   5.824  15.511  0.00  0.00    +0.000 OA
ATOM     22  C   UNL     1      49.918   6.436  17.423  0.00  0.00    +0.000 A 
ENDBRANCH   9  12
ENDBRANCH   7   8
BRANCH   7  24
ATOM     23  C   UNL     1      51.822  11.435  14.113  0.00  0.00    +0.000 C 
ATOM     24  C   UNL     1      51.089  10.232  13.526  0.00  0.00    +0.000 C 
ENDBRANCH   7  24
ENDBRANCH   1   7
BRANCH   4  25
ATOM     25  C   UNL     1      46.300   6.199  11.392  0.00  0.00    +0.000 C 
BRANCH  25  26
ATOM     26  N   UNL     1      44.941   6.153  11.937  0.00  0.00    +0.000 NA
ATOM     27  H   UNL     1      44.531   7.085  11.936  0.00  0.00    +0.000 HD
BRANCH  26  28
ATOM     28  CA  UNL     1      44.062   5.212  11.193  0.00  0.00    +0.000 C 
BRANCH  28  29
ATOM     29  C   UNL     1      44.895   4.223  10.310  0.00  0.00    +0.000 C 
ATOM     30  C   UNL     1      44.677   4.377   8.809  0.00  0.00    +0.000 C 
ATOM     31  C   UNL     1      45.144   3.042   8.258  0.00  0.00    +0.000 C 
ATOM     32  C   UNL     1      44.759   2.045   9.334  0.00  0.00    +0.000 C 
ATOM     33  N   UNL     1      44.535   2.810  10.562  0.00  0.00    +0.000 NA
ATOM     34  H   UNL     1      45.122   2.443  11.313  0.00  0.00    +0.000 HD
ENDBRANCH  28  29
BRANCH  28  35
ATOM     35  C   UNL     1      43.106   4.413  12.122  0.00  0.00    +0.000 C 
BRANCH  35  36
ATOM     36  O   UNL     1      42.519   5.247  13.122  0.00  0.00    +0.000 OA
ATOM     37  H   UNL     1      42.446   4.715  13.932  0.00  0.00    +0.000 HD
ENDBRANCH  35  36
ENDBRANCH  28  35
ENDBRANCH  26  28
ENDBRANCH  25  26
ENDBRANCH   4  25
TORSDOF 10
ENDMDL
MODEL 6
REMARK VINA RESULT:    -5.232      3.235      8.521
REMARK INTER + INTRA:         -10.118
REMARK INTER:                  -9.056
REMARK INTRA:                  -1.062
REMARK UNBOUND:                -1.981
REMARK  Name = 
REMARK  12 active torsions:
REMARK  status: ('A' for Active; 'I' for Inactive)
REMARK    1  A    between atoms: C_1  and  C_2
REMARK    2  A    between atoms: C_2  and  C_3
REMARK    3  A    between atoms: C_3  and  N_4
REMARK    4  A    between atoms: C_3  and  C_18
REMARK    5  A    between atoms: C_5  and  C_7
REMARK    6  A    between atoms: N_13  and  C_14
REMARK    7  A    between atoms: C_21  and  C_22
REMARK    8  A    between atoms: C_22  and  N_23
REMARK    9  A    between atoms: N_23  and  CA_24
REMARK   10  A    between atoms: CA_24  and  C_25
REMARK   11  A    between atoms: CA_24  and  C_27
REMARK   12  A    between atoms: C_25  and  O_26
REMARK                            x       y       z     vdW  Elec       q    Type
REMARK                         _______ _______ _______ _____ _____    ______ ____
ROOT
ATOM      1  C   UNL     1      47.575   7.729  13.704  0.00  0.00    +0.000 A 
ATOM      2  C   UNL     1      47.878   6.422  14.113  0.00  0.00    +0.000 A 
ATOM      3  C   UNL     1      48.621   6.195  15.275  0.00  0.00    +0.000 A 
ATOM      4  C   UNL     1      49.064   7.270  16.051  0.00  0.00    +0.000 A 
ATOM      5  C   UNL     1      48.666   8.567  15.702  0.00  0.00    +0.000 A 
ATOM      6  C   UNL     1      47.909   8.791  14.556  0.00  0.00    +0.000 A 
ENDROOT
BRANCH   1   7
ATOM      7  C   UNL     1      46.906   7.965  12.359  0.00  0.00    +0.000 C 
BRANCH   7   8
ATOM      8  N   UNL     1      46.309   6.723  11.928  0.00  0.00    +0.000 N 
ATOM      9  C   UNL     1      44.990   6.584  11.572  0.00  0.00    +0.000 C 
ATOM     10  O   UNL     1      44.235   7.533  11.378  0.00  0.00    +0.000 OA
ATOM     11  H   UNL     1      46.825   5.893  12.186  0.00  0.00    +0.000 HD
BRANCH   9  12
ATOM     12  C   UNL     1      44.573   5.191  11.376  0.00  0.00    +0.000 A 
ATOM     13  C   UNL     1      43.835   4.518  12.337  0.00  0.00    +0.000 A 
ATOM     14  S   UNL     1      43.371   2.946  11.844  0.00  0.00    +0.000 S 
ATOM     15  C   UNL     1      44.194   3.100  10.364  0.00  0.00    +0.000 A 
ATOM     16  N   UNL     1      44.196   2.099   9.446  0.00  0.00    +0.000 NA
ATOM     17  C   UNL     1      44.894   2.349   8.379  0.00  0.00    +0.000 A 
ATOM     18  N   UNL     1      45.613   3.502   8.144  0.00  0.00    +0.000 N 
ATOM     19  C   UNL     1      46.386   3.668   6.934  0.00  0.00    +0.000 C 
ATOM     20  C   UNL     1      45.623   4.545   9.061  0.00  0.00    +0.000 A 
ATOM     21  O   UNL     1      46.247   5.584   8.861  0.00  0.00    +0.000 OA
ATOM     22  C   UNL     1      44.828   4.324  10.254  0.00  0.00    +0.000 A 
ENDBRANCH   9  12
ENDBRANCH   7   8
BRANCH   7  24
ATOM     23  C   UNL     1      46.386  10.406  11.767  0.00  0.00    +0.000 C 
ATOM     24  C   UNL     1      45.863   9.110  12.379  0.00  0.00    +0.000 C 
ENDBRANCH   7  24
ENDBRANCH   1   7
BRANCH   4  25
ATOM     25  C   UNL     1      49.932   7.064  17.266  0.00  0.00    +0.000 C 
BRANCH  25  26
ATOM     26  N   UNL     1      51.255   7.682  17.133  0.00  0.00    +0.000 NA
ATOM     27  H   UNL     1      51.745   7.659  18.025  0.00  0.00    +0.000 HD
BRANCH  26  28
ATOM     28  CA  UNL     1      52.083   7.031  16.082  0.00  0.00    +0.000 C 
BRANCH  28  29
ATOM     29  C   UNL     1      52.410   8.019  14.913  0.00  0.00    +0.000 C 
ATOM     30  C   UNL     1      52.148   9.487  15.232  0.00  0.00    +0.000 C 
ATOM     31  C   UNL     1      52.033  10.120  13.857  0.00  0.00    +0.000 C 
ATOM     32  C   UNL     1      51.388   9.042  13.008  0.00  0.00    +0.000 C 
ATOM     33  N   UNL     1      51.566   7.776  13.722  0.00  0.00    +0.000 NA
ATOM     34  H   UNL     1      52.029   7.096  13.117  0.00  0.00    +0.000 HD
ENDBRANCH  28  29
BRANCH  28  35
ATOM     35  C   UNL     1      53.397   6.419  16.640  0.00  0.00    +0.000 C 
BRANCH  35  36
ATOM     36  O   UNL     1      53.939   7.205  17.702  0.00  0.00    +0.000 OA
ATOM     37  H   UNL     1      53.753   8.135  17.493  0.00  0.00    +0.000 HD
ENDBRANCH  35  36
ENDBRANCH  28  35
ENDBRANCH  26  28
ENDBRANCH  25  26
ENDBRANCH   4  25
TORSDOF 10
ENDMDL
MODEL 7
REMARK VINA RESULT:    -5.230      2.933      5.257
REMARK INTER + INTRA:         -10.115
REMARK INTER:                  -8.391
REMARK INTRA:                  -1.724
REMARK UNBOUND:                -1.981
REMARK  Name = 
REMARK  12 active torsions:
REMARK  status: ('A' for Active; 'I' for Inactive)
REMARK    1  A    between atoms: C_1  and  C_2
REMARK    2  A    between atoms: C_2  and  C_3
REMARK    3  A    between atoms: C_3  and  N_4
REMARK    4  A    between atoms: C_3  and  C_18
REMARK    5  A    between atoms: C_5  and  C_7
REMARK    6  A    between atoms: N_13  and  C_14
REMARK    7  A    between atoms: C_21  and  C_22
REMARK    8  A    between atoms: C_22  and  N_23
REMARK    9  A    between atoms: N_23  and  CA_24
REMARK   10  A    between atoms: CA_24  and  C_25
REMARK   11  A    between atoms: CA_24  and  C_27
REMARK   12  A    between atoms: C_25  and  O_26
REMARK                            x       y       z     vdW  Elec       q    Type
REMARK                         _______ _______ _______ _____ _____    ______ ____
ROOT
ATOM      1  C   UNL     1      48.475   5.694  15.993  0.00  0.00    +0.000 A 
ATOM      2  C   UNL     1      47.724   4.526  16.194  0.00  0.00    +0.000 A 
ATOM      3  C   UNL     1      46.802   4.099  15.234  0.00  0.00    +0.000 A 
ATOM      4  C   UNL     1      46.625   4.826  14.053  0.00  0.00    +0.000 A 
ATOM      5  C   UNL     1      47.454   5.928  13.805  0.00  0.00    +0.000 A 
ATOM      6  C   UNL     1      48.386   6.340  14.753  0.00  0.00    +0.000 A 
ENDROOT
BRANCH   1   7
ATOM      7  C   UNL     1      49.353   6.230  17.112  0.00  0.00    +0.000 C 
BRANCH   7   8
ATOM      8  N   UNL     1      50.730   5.942  16.784  0.00  0.00    +0.000 N 
ATOM      9  C   UNL     1      51.786   6.150  17.636  0.00  0.00    +0.000 C 
ATOM     10  O   UNL     1      51.655   6.399  18.831  0.00  0.00    +0.000 OA
ATOM     11  H   UNL     1      50.921   5.863  15.794  0.00  0.00    +0.000 HD
BRANCH   9  12
ATOM     12  C   UNL     1      53.099   5.982  17.004  0.00  0.00    +0.000 A 
ATOM     13  C   UNL     1      54.053   5.131  17.540  0.00  0.00    +0.000 A 
ATOM     14  S   UNL     1      55.462   5.012  16.575  0.00  0.00    +0.000 S 
ATOM     15  C   UNL     1      54.861   6.138  15.451  0.00  0.00    +0.000 A 
ATOM     16  N   UNL     1      55.576   6.494  14.352  0.00  0.00    +0.000 NA
ATOM     17  C   UNL     1      55.002   7.387  13.604  0.00  0.00    +0.000 A 
ATOM     18  N   UNL     1      53.783   7.982  13.856  0.00  0.00    +0.000 N 
ATOM     19  C   UNL     1      53.248   8.993  12.973  0.00  0.00    +0.000 C 
ATOM     20  C   UNL     1      53.027   7.633  14.967  0.00  0.00    +0.000 A 
ATOM     21  O   UNL     1      51.934   8.142  15.198  0.00  0.00    +0.000 OA
ATOM     22  C   UNL     1      53.613   6.612  15.814  0.00  0.00    +0.000 A 
ENDBRANCH   9  12
ENDBRANCH   7   8
BRANCH   7  24
ATOM     23  C   UNL     1      48.179   8.012  18.537  0.00  0.00    +0.000 C 
ATOM     24  C   UNL     1      49.149   7.740  17.390  0.00  0.00    +0.000 C 
ENDBRANCH   7  24
ENDBRANCH   1   7
BRANCH   4  25
ATOM     25  C   UNL     1      45.585   4.438  13.033  0.00  0.00    +0.000 C 
BRANCH  25  26
ATOM     26  N   UNL     1      45.544   5.350  11.886  0.00  0.00    +0.000 NA
ATOM     27  H   UNL     1      45.513   4.819  11.017  0.00  0.00    +0.000 HD
BRANCH  26  28
ATOM     28  CA  UNL     1      44.392   6.288  11.949  0.00  0.00    +0.000 C 
BRANCH  28  29
ATOM     29  C   UNL     1      44.789   7.720  11.454  0.00  0.00    +0.000 C 
ATOM     30  C   UNL     1      45.352   8.631  12.539  0.00  0.00    +0.000 C 
ATOM     31  C   UNL     1      45.154  10.018  11.956  0.00  0.00    +0.000 C 
ATOM     32  C   UNL     1      43.863   9.906  11.168  0.00  0.00    +0.000 C 
ATOM     33  N   UNL     1      43.625   8.479  10.945  0.00  0.00    +0.000 NA
ATOM     34  H   UNL     1      43.516   8.295   9.946  0.00  0.00    +0.000 HD
ENDBRANCH  28  29
BRANCH  28  35
ATOM     35  C   UNL     1      43.154   5.782  11.158  0.00  0.00    +0.000 C 
BRANCH  35  36
ATOM     36  O   UNL     1      41.931   6.211  11.758  0.00  0.00    +0.000 OA
ATOM     37  H   UNL     1      41.208   5.897  11.190  0.00  0.00    +0.000 HD
ENDBRANCH  35  36
ENDBRANCH  28  35
ENDBRANCH  26  28
ENDBRANCH  25  26
ENDBRANCH   4  25
TORSDOF 10
ENDMDL
MODEL 8
REMARK VINA RESULT:    -5.150      3.188      9.379
REMARK INTER + INTRA:          -9.991
REMARK INTER:                  -9.115
REMARK INTRA:                  -0.876
REMARK UNBOUND:                -1.981
REMARK  Name = 
REMARK  12 active torsions:
REMARK  status: ('A' for Active; 'I' for Inactive)
REMARK    1  A    between atoms: C_1  and  C_2
REMARK    2  A    between atoms: C_2  and  C_3
REMARK    3  A    between atoms: C_3  and  N_4
REMARK    4  A    between atoms: C_3  and  C_18
REMARK    5  A    between atoms: C_5  and  C_7
REMARK    6  A    between atoms: N_13  and  C_14
REMARK    7  A    between atoms: C_21  and  C_22
REMARK    8  A    between atoms: C_22  and  N_23
REMARK    9  A    between atoms: N_23  and  CA_24
REMARK   10  A    between atoms: CA_24  and  C_25
REMARK   11  A    between atoms: CA_24  and  C_27
REMARK   12  A    between atoms: C_25  and  O_26
REMARK                            x       y       z     vdW  Elec       q    Type
REMARK                         _______ _______ _______ _____ _____    ______ ____
ROOT
ATOM      1  C   UNL     1      48.853   4.584  18.019  0.00  0.00    +0.000 A 
ATOM      2  C   UNL     1      48.933   4.327  19.396  0.00  0.00    +0.000 A 
ATOM      3  C   UNL     1      49.983   4.848  20.158  0.00  0.00    +0.000 A 
ATOM      4  C   UNL     1      50.963   5.644  19.557  0.00  0.00    +0.000 A 
ATOM      5  C   UNL     1      50.821   5.991  18.207  0.00  0.00    +0.000 A 
ATOM      6  C   UNL     1      49.763   5.488  17.455  0.00  0.00    +0.000 A 
ENDROOT
BRANCH   1   7
ATOM      7  C   UNL     1      47.799   3.882  17.179  0.00  0.00    +0.000 C 
BRANCH   7   8
ATOM      8  N   UNL     1      47.387   4.782  16.127  0.00  0.00    +0.000 N 
ATOM      9  C   UNL     1      47.327   4.440  14.799  0.00  0.00    +0.000 C 
ATOM     10  O   UNL     1      47.410   3.284  14.391  0.00  0.00    +0.000 OA
ATOM     11  H   UNL     1      47.433   5.763  16.367  0.00  0.00    +0.000 HD
BRANCH   9  12
ATOM     12  C   UNL     1      47.086   5.577  13.904  0.00  0.00    +0.000 A 
ATOM     13  C   UNL     1      48.027   6.584  13.750  0.00  0.00    +0.000 A 
ATOM     14  S   UNL     1      47.577   7.745  12.576  0.00  0.00    +0.000 S 
ATOM     15  C   UNL     1      46.091   6.970  12.289  0.00  0.00    +0.000 A 
ATOM     16  N   UNL     1      45.205   7.447  11.375  0.00  0.00    +0.000 NA
ATOM     17  C   UNL     1      44.102   6.768  11.290  0.00  0.00    +0.000 A 
ATOM     18  N   UNL     1      43.781   5.661  12.048  0.00  0.00    +0.000 N 
ATOM     19  C   UNL     1      42.507   4.995  11.897  0.00  0.00    +0.000 C 
ATOM     20  C   UNL     1      44.668   5.146  12.983  0.00  0.00    +0.000 A 
ATOM     21  O   UNL     1      44.405   4.152  13.655  0.00  0.00    +0.000 OA
ATOM     22  C   UNL     1      45.931   5.853  13.088  0.00  0.00    +0.000 A 
ENDBRANCH   9  12
ENDBRANCH   7   8
BRANCH   7  24
ATOM     23  C   UNL     1      49.726   2.207  16.931  0.00  0.00    +0.000 C 
ATOM     24  C   UNL     1      48.271   2.525  16.601  0.00  0.00    +0.000 C 
ENDBRANCH   7  24
ENDBRANCH   1   7
BRANCH   4  25
ATOM     25  C   UNL     1      52.150   6.156  20.332  0.00  0.00    +0.000 C 
BRANCH  25  26
ATOM     26  N   UNL     1      53.150   5.118  20.596  0.00  0.00    +0.000 NA
ATOM     27  H   UNL     1      52.709   4.201  20.612  0.00  0.00    +0.000 HD
BRANCH  26  28
ATOM     28  CA  UNL     1      54.258   5.131  19.604  0.00  0.00    +0.000 C 
BRANCH  28  29
ATOM     29  C   UNL     1      53.998   4.119  18.438  0.00  0.00    +0.000 C 
ATOM     30  C   UNL     1      53.198   2.884  18.838  0.00  0.00    +0.000 C 
ATOM     31  C   UNL     1      53.537   1.889  17.744  0.00  0.00    +0.000 C 
ATOM     32  C   UNL     1      54.978   2.205  17.392  0.00  0.00    +0.000 C 
ATOM     33  N   UNL     1      55.254   3.549  17.902  0.00  0.00    +0.000 NA
ATOM     34  H   UNL     1      55.597   4.145  17.147  0.00  0.00    +0.000 HD
ENDBRANCH  28  29
BRANCH  28  35
ATOM     35  C   UNL     1      54.534   6.546  19.023  0.00  0.00    +0.000 C 
BRANCH  35  36
ATOM     36  O   UNL     1      54.471   6.554  17.596  0.00  0.00    +0.000 OA
ATOM     37  H   UNL     1      55.325   6.888  17.274  0.00  0.00    +0.000 HD
ENDBRANCH  35  36
ENDBRANCH  28  35
ENDBRANCH  26  28
ENDBRANCH  25  26
ENDBRANCH   4  25
TORSDOF 10
ENDMDL
MODEL 9
REMARK VINA RESULT:    -5.018      2.493      3.628
REMARK INTER + INTRA:          -9.785
REMARK INTER:                  -8.656
REMARK INTRA:                  -1.129
REMARK UNBOUND:                -1.981
REMARK  Name = 
REMARK  12 active torsions:
REMARK  status: ('A' for Active; 'I' for Inactive)
REMARK    1  A    between atoms: C_1  and  C_2
REMARK    2  A    between atoms: C_2  and  C_3
REMARK    3  A    between atoms: C_3  and  N_4
REMARK    4  A    between atoms: C_3  and  C_18
REMARK    5  A    between atoms: C_5  and  C_7
REMARK    6  A    between atoms: N_13  and  C_14
REMARK    7  A    between atoms: C_21  and  C_22
REMARK    8  A    between atoms: C_22  and  N_23
REMARK    9  A    between atoms: N_23  and  CA_24
REMARK   10  A    between atoms: CA_24  and  C_25
REMARK   11  A    between atoms: CA_24  and  C_27
REMARK   12  A    between atoms: C_25  and  O_26
REMARK                            x       y       z     vdW  Elec       q    Type
REMARK                         _______ _______ _______ _____ _____    ______ ____
ROOT
ATOM      1  C   UNL     1      49.904   9.144  14.108  0.00  0.00    +0.000 A 
ATOM      2  C   UNL     1      50.192   8.477  12.908  0.00  0.00    +0.000 A 
ATOM      3  C   UNL     1      49.182   7.820  12.199  0.00  0.00    +0.000 A 
ATOM      4  C   UNL     1      47.867   7.829  12.673  0.00  0.00    +0.000 A 
ATOM      5  C   UNL     1      47.562   8.588  13.810  0.00  0.00    +0.000 A 
ATOM      6  C   UNL     1      48.564   9.259  14.504  0.00  0.00    +0.000 A 
ENDROOT
BRANCH   1   7
ATOM      7  C   UNL     1      51.037   9.716  14.945  0.00  0.00    +0.000 C 
BRANCH   7   8
ATOM      8  N   UNL     1      50.956   9.140  16.267  0.00  0.00    +0.000 N 
ATOM      9  C   UNL     1      51.267   7.836  16.561  0.00  0.00    +0.000 C 
ATOM     10  O   UNL     1      51.846   7.084  15.781  0.00  0.00    +0.000 OA
ATOM     11  H   UNL     1      50.374   9.652  16.917  0.00  0.00    +0.000 HD
BRANCH   9  12
ATOM     12  C   UNL     1      50.906   7.433  17.925  0.00  0.00    +0.000 A 
ATOM     13  C   UNL     1      51.325   8.163  19.026  0.00  0.00    +0.000 A 
ATOM     14  S   UNL     1      50.693   7.569  20.502  0.00  0.00    +0.000 S 
ATOM     15  C   UNL     1      49.896   6.289  19.716  0.00  0.00    +0.000 A 
ATOM     16  N   UNL     1      49.149   5.388  20.406  0.00  0.00    +0.000 NA
ATOM     17  C   UNL     1      48.629   4.449  19.675  0.00  0.00    +0.000 A 
ATOM     18  N   UNL     1      48.798   4.306  18.313  0.00  0.00    +0.000 N 
ATOM     19  C   UNL     1      48.200   3.201  17.597  0.00  0.00    +0.000 C 
ATOM     20  C   UNL     1      49.550   5.214  17.581  0.00  0.00    +0.000 A 
ATOM     21  O   UNL     1      49.699   5.110  16.366  0.00  0.00    +0.000 OA
ATOM     22  C   UNL     1      50.122   6.302  18.352  0.00  0.00    +0.000 A 
ENDBRANCH   9  12
ENDBRANCH   7   8
BRANCH   7  24
ATOM     23  C   UNL     1      53.385  10.672  14.549  0.00  0.00    +0.000 C 
ATOM     24  C   UNL     1      52.438   9.496  14.323  0.00  0.00    +0.000 C 
ENDBRANCH   7  24
ENDBRANCH   1   7
BRANCH   4  25
ATOM     25  C   UNL     1      46.769   7.066  11.977  0.00  0.00    +0.000 C 
BRANCH  25  26
ATOM     26  N   UNL     1      46.750   5.644  12.331  0.00  0.00    +0.000 NA
ATOM     27  H   UNL     1      47.700   5.301  12.461  0.00  0.00    +0.000 HD
BRANCH  26  28
ATOM     28  CA  UNL     1      45.942   5.373  13.550  0.00  0.00    +0.000 C 
BRANCH  28  29
ATOM     29  C   UNL     1      44.537   4.783  13.190  0.00  0.00    +0.000 C 
ATOM     30  C   UNL     1      44.482   4.049  11.855  0.00  0.00    +0.000 C 
ATOM     31  C   UNL     1      43.001   4.057  11.522  0.00  0.00    +0.000 C 
ATOM     32  C   UNL     1      42.506   5.379  12.077  0.00  0.00    +0.000 C 
ATOM     33  N   UNL     1      43.510   5.838  13.039  0.00  0.00    +0.000 NA
ATOM     34  H   UNL     1      43.071   6.011  13.945  0.00  0.00    +0.000 HD
ENDBRANCH  28  29
BRANCH  28  35
ATOM     35  C   UNL     1      46.664   4.439  14.560  0.00  0.00    +0.000 C 
BRANCH  35  36
ATOM     36  O   UNL     1      47.333   3.363  13.901  0.00  0.00    +0.000 OA
ATOM     37  H   UNL     1      47.999   3.757  13.314  0.00  0.00    +0.000 HD
ENDBRANCH  35  36
ENDBRANCH  28  35
ENDBRANCH  26  28
ENDBRANCH  25  26
ENDBRANCH   4  25
TORSDOF 10
ENDMDL
