MODEL 1
REMARK VINA RESULT:    -8.234      0.000      0.000
REMARK INTER + INTRA:         -12.764
REMARK INTER:                 -11.603
REMARK INTRA:                  -1.160
REMARK UNBOUND:                -1.160
REMARK  Name = 
REMARK  8 active torsions:
REMARK  status: ('A' for Active; 'I' for Inactive)
REMARK    1  A    between atoms: C_1  and  C_2
REMARK    2  A    between atoms: C_2  and  N_3
REMARK    3  A    between atoms: C_2  and  C_25
REMARK    4  A    between atoms: N_3  and  C_4
REMARK    5  A    between atoms: C_4  and  C_5
REMARK    6  A    between atoms: C_8  and  C_9
REMARK    7  A    between atoms: C_9  and  N_10
REMARK    8  A    between atoms: C_11  and  C_13
REMARK                            x       y       z     vdW  Elec       q    Type
REMARK                         _______ _______ _______ _____ _____    ______ ____
ROOT
ATOM      1  C   UNL     1      44.593   5.771  11.067  0.00  0.00    +0.000 A 
ATOM      2  C   UNL     1      45.934   5.846  10.677  0.00  0.00    +0.000 A 
ATOM      3  C   UNL     1      46.824   6.647  11.385  0.00  0.00    +0.000 A 
ATOM      4  C   UNL     1      46.352   7.379  12.468  0.00  0.00    +0.000 A 
ATOM      5  N   UNL     1      45.064   7.301  12.892  0.00  0.00    +0.000 NA
ATOM      6  C   UNL     1      44.224   6.505  12.189  0.00  0.00    +0.000 A 
ENDROOT
BRANCH   1   7
ATOM      7  C   UNL     1      43.625   4.903  10.305  0.00  0.00    +0.000 C 
BRANCH   7   8
ATOM      8  N   UNL     1      44.182   4.436   9.037  0.00  0.00    +0.000 NA
ATOM      9  H   UNL     1      43.552   4.704   8.282  0.00  0.00    +0.000 HD
BRANCH   8  11
ATOM     10  C   UNL     1      44.440   2.288  10.341  0.00  0.00    +0.000 C 
ATOM     11  C   UNL     1      44.333   2.964   8.968  0.00  0.00    +0.000 C 
BRANCH  11  12
ATOM     12  C   UNL     1      45.559   2.551   8.148  0.00  0.00    +0.000 A 
ATOM     13  C   UNL     1      46.251   3.475   7.361  0.00  0.00    +0.000 A 
ATOM     14  C   UNL     1      47.398   3.066   6.686  0.00  0.00    +0.000 A 
ATOM     15  C   UNL     1      47.837   1.757   6.822  0.00  0.00    +0.000 A 
ATOM     16  C   UNL     1      47.098   0.901   7.621  0.00  0.00    +0.000 A 
ATOM     17  N   UNL     1      45.974   1.264   8.278  0.00  0.00    +0.000 NA
ENDBRANCH  11  12
ENDBRANCH   8  11
ENDBRANCH   7   8
ENDBRANCH   1   7
BRANCH   4  18
ATOM     18  C   UNL     1      47.278   8.307  13.214  0.00  0.00    +0.000 C 
BRANCH  18  19
ATOM     19  N   UNL     1      47.591   7.832  14.540  0.00  0.00    +0.000 N 
ATOM     20  C   UNL     1      48.634   6.987  14.799  0.00  0.00    +0.000 C 
ATOM     21  O   UNL     1      49.360   6.547  13.915  0.00  0.00    +0.000 OA
ATOM     22  H   UNL     1      46.860   7.960  15.232  0.00  0.00    +0.000 HD
BRANCH  20  23
ATOM     23  C   UNL     1      48.885   6.698  16.215  0.00  0.00    +0.000 A 
ATOM     24  C   UNL     1      49.410   7.685  17.039  0.00  0.00    +0.000 A 
ATOM     25  S   UNL     1      49.603   7.190  18.660  0.00  0.00    +0.000 S 
ATOM     26  C   UNL     1      49.031   5.626  18.308  0.00  0.00    +0.000 A 
ATOM     27  N   UNL     1      48.969   4.670  19.273  0.00  0.00    +0.000 NA
ATOM     28  C   UNL     1      48.543   3.522  18.859  0.00  0.00    +0.000 A 
ATOM     29  N   UNL     1      48.163   3.247  17.571  0.00  0.00    +0.000 N 
ATOM     30  C   UNL     1      48.152   4.198  16.580  0.00  0.00    +0.000 A 
ATOM     31  O   UNL     1      47.705   3.946  15.466  0.00  0.00    +0.000 OA
ATOM     32  C   UNL     1      48.665   5.494  16.981  0.00  0.00    +0.000 A 
ATOM     33  H   UNL     1      47.811   2.338  17.316  0.00  0.00    +0.000 HD
ENDBRANCH  20  23
ENDBRANCH  18  19
ENDBRANCH   4  18
TORSDOF 7
ENDMDL
MODEL 2
REMARK VINA RESULT:    -7.888      2.145      2.828
REMARK INTER + INTRA:         -12.276
REMARK INTER:                 -11.169
REMARK INTRA:                  -1.107
REMARK UNBOUND:                -1.160
REMARK  Name = 
REMARK  8 active torsions:
REMARK  status: ('A' for Active; 'I' for Inactive)
REMARK    1  A    between atoms: C_1  and  C_2
REMARK    2  A    between atoms: C_2  and  N_3
REMARK    3  A    between atoms: C_2  and  C_25
REMARK    4  A    between atoms: N_3  and  C_4
REMARK    5  A    between atoms: C_4  and  C_5
REMARK    6  A    between atoms: C_8  and  C_9
REMARK    7  A    between atoms: C_9  and  N_10
REMARK    8  A    between atoms: C_11  and  C_13
REMARK                            x       y       z     vdW  Elec       q    Type
REMARK                         _______ _______ _______ _____ _____    ______ ____
ROOT
ATOM      1  C   UNL     1      45.476   5.591  11.688  0.00  0.00    +0.000 A 
ATOM      2  C   UNL     1      46.404   6.524  11.216  0.00  0.00    +0.000 A 
ATOM      3  C   UNL     1      47.480   6.906  12.012  0.00  0.00    +0.000 A 
ATOM      4  C   UNL     1      47.601   6.357  13.283  0.00  0.00    +0.000 A 
ATOM      5  N   UNL     1      46.735   5.424  13.757  0.00  0.00    +0.000 NA
ATOM      6  C   UNL     1      45.705   5.065  12.955  0.00  0.00    +0.000 A 
ENDROOT
BRANCH   1   7
ATOM      7  C   UNL     1      44.311   5.173  10.829  0.00  0.00    +0.000 C 
BRANCH   7   8
ATOM      8  N   UNL     1      44.723   4.819   9.472  0.00  0.00    +0.000 NA
ATOM      9  H   UNL     1      44.229   5.419   8.812  0.00  0.00    +0.000 HD
BRANCH   8  11
ATOM     10  C   UNL     1      44.152   2.507  10.312  0.00  0.00    +0.000 C 
ATOM     11  C   UNL     1      44.404   3.420   9.106  0.00  0.00    +0.000 C 
BRANCH  11  12
ATOM     12  C   UNL     1      45.510   2.782   8.261  0.00  0.00    +0.000 A 
ATOM     13  C   UNL     1      46.236   3.530   7.329  0.00  0.00    +0.000 A 
ATOM     14  C   UNL     1      47.275   2.921   6.632  0.00  0.00    +0.000 A 
ATOM     15  C   UNL     1      47.579   1.591   6.888  0.00  0.00    +0.000 A 
ATOM     16  C   UNL     1      46.815   0.917   7.827  0.00  0.00    +0.000 A 
ATOM     17  N   UNL     1      45.791   1.477   8.509  0.00  0.00    +0.000 NA
ENDBRANCH  11  12
ENDBRANCH   8  11
ENDBRANCH   7   8
ENDBRANCH   1   7
BRANCH   4  18
ATOM     18  C   UNL     1      48.718   6.800  14.194  0.00  0.00    +0.000 C 
BRANCH  18  19
ATOM     19  N   UNL     1      48.336   6.796  15.585  0.00  0.00    +0.000 N 
ATOM     20  C   UNL     1      49.163   6.351  16.581  0.00  0.00    +0.000 C 
ATOM     21  O   UNL     1      50.277   5.895  16.355  0.00  0.00    +0.000 OA
ATOM     22  H   UNL     1      47.344   6.909  15.765  0.00  0.00    +0.000 HD
BRANCH  20  23
ATOM     23  C   UNL     1      48.664   6.526  17.949  0.00  0.00    +0.000 A 
ATOM     24  C   UNL     1      48.632   5.441  18.816  0.00  0.00    +0.000 A 
ATOM     25  S   UNL     1      48.059   5.830  20.375  0.00  0.00    +0.000 S 
ATOM     26  C   UNL     1      47.794   7.453  19.933  0.00  0.00    +0.000 A 
ATOM     27  N   UNL     1      47.272   8.344  20.818  0.00  0.00    +0.000 NA
ATOM     28  C   UNL     1      47.099   9.531  20.338  0.00  0.00    +0.000 A 
ATOM     29  N   UNL     1      47.411   9.912  19.059  0.00  0.00    +0.000 N 
ATOM     30  C   UNL     1      47.997   9.062  18.153  0.00  0.00    +0.000 A 
ATOM     31  O   UNL     1      48.362   9.464  17.052  0.00  0.00    +0.000 OA
ATOM     32  C   UNL     1      48.171   7.702  18.626  0.00  0.00    +0.000 A 
ATOM     33  H   UNL     1      47.280  10.863  18.753  0.00  0.00    +0.000 HD
ENDBRANCH  20  23
ENDBRANCH  18  19
ENDBRANCH   4  18
TORSDOF 7
ENDMDL
MODEL 3
REMARK VINA RESULT:    -7.820      1.482      1.752
REMARK INTER + INTRA:         -12.181
REMARK INTER:                 -11.348
REMARK INTRA:                  -0.833
REMARK UNBOUND:                -1.160
REMARK  Name = 
REMARK  8 active torsions:
REMARK  status: ('A' for Active; 'I' for Inactive)
REMARK    1  A    between atoms: C_1  and  C_2
REMARK    2  A    between atoms: C_2  and  N_3
REMARK    3  A    between atoms: C_2  and  C_25
REMARK    4  A    between atoms: N_3  and  C_4
REMARK    5  A    between atoms: C_4  and  C_5
REMARK    6  A    between atoms: C_8  and  C_9
REMARK    7  A    between atoms: C_9  and  N_10
REMARK    8  A    between atoms: C_11  and  C_13
REMARK                            x       y       z     vdW  Elec       q    Type
REMARK                         _______ _______ _______ _____ _____    ______ ____
ROOT
ATOM      1  C   UNL     1      45.214   5.427  11.514  0.00  0.00    +0.000 A 
ATOM      2  C   UNL     1      45.479   4.722  12.692  0.00  0.00    +0.000 A 
ATOM      3  C   UNL     1      46.565   5.073  13.488  0.00  0.00    +0.000 A 
ATOM      4  C   UNL     1      47.384   6.120  13.081  0.00  0.00    +0.000 A 
ATOM      5  N   UNL     1      47.132   6.846  11.961  0.00  0.00    +0.000 NA
ATOM      6  C   UNL     1      46.062   6.487  11.212  0.00  0.00    +0.000 A 
ENDROOT
BRANCH   1   7
ATOM      7  C   UNL     1      44.038   5.052  10.649  0.00  0.00    +0.000 C 
BRANCH   7   8
ATOM      8  N   UNL     1      44.447   4.657   9.303  0.00  0.00    +0.000 NA
ATOM      9  H   UNL     1      43.849   5.131   8.626  0.00  0.00    +0.000 HD
BRANCH   8  11
ATOM     10  C   UNL     1      44.197   2.362  10.328  0.00  0.00    +0.000 C 
ATOM     11  C   UNL     1      44.315   3.203   9.051  0.00  0.00    +0.000 C 
BRANCH  11  12
ATOM     12  C   UNL     1      45.490   2.654   8.237  0.00  0.00    +0.000 A 
ATOM     13  C   UNL     1      46.186   3.459   7.331  0.00  0.00    +0.000 A 
ATOM     14  C   UNL     1      47.288   2.933   6.663  0.00  0.00    +0.000 A 
ATOM     15  C   UNL     1      47.681   1.627   6.923  0.00  0.00    +0.000 A 
ATOM     16  C   UNL     1      46.941   0.893   7.835  0.00  0.00    +0.000 A 
ATOM     17  N   UNL     1      45.859   1.371   8.489  0.00  0.00    +0.000 NA
ENDBRANCH  11  12
ENDBRANCH   8  11
ENDBRANCH   7   8
ENDBRANCH   1   7
BRANCH   4  18
ATOM     18  C   UNL     1      48.605   6.481  13.888  0.00  0.00    +0.000 C 
BRANCH  18  19
ATOM     19  N   UNL     1      48.329   6.584  15.300  0.00  0.00    +0.000 N 
ATOM     20  C   UNL     1      49.309   6.535  16.254  0.00  0.00    +0.000 C 
ATOM     21  O   UNL     1      50.490   6.368  15.975  0.00  0.00    +0.000 OA
ATOM     22  H   UNL     1      47.358   6.452  15.565  0.00  0.00    +0.000 HD
BRANCH  20  23
ATOM     23  C   UNL     1      48.869   6.775  17.633  0.00  0.00    +0.000 A 
ATOM     24  C   UNL     1      48.525   8.059  18.034  0.00  0.00    +0.000 A 
ATOM     25  S   UNL     1      48.003   8.150  19.656  0.00  0.00    +0.000 S 
ATOM     26  C   UNL     1      48.258   6.483  19.890  0.00  0.00    +0.000 A 
ATOM     27  N   UNL     1      48.028   5.902  21.097  0.00  0.00    +0.000 NA
ATOM     28  C   UNL     1      48.291   4.638  21.138  0.00  0.00    +0.000 A 
ATOM     29  N   UNL     1      48.751   3.899  20.079  0.00  0.00    +0.000 N 
ATOM     30  C   UNL     1      48.938   4.432  18.827  0.00  0.00    +0.000 A 
ATOM     31  O   UNL     1      49.247   3.721  17.876  0.00  0.00    +0.000 OA
ATOM     32  C   UNL     1      48.701   5.860  18.737  0.00  0.00    +0.000 A 
ATOM     33  H   UNL     1      48.910   2.908  20.166  0.00  0.00    +0.000 HD
ENDBRANCH  20  23
ENDBRANCH  18  19
ENDBRANCH   4  18
TORSDOF 7
ENDMDL
MODEL 4
REMARK VINA RESULT:    -7.322      3.012      4.009
REMARK INTER + INTRA:         -11.479
REMARK INTER:                 -10.415
REMARK INTRA:                  -1.064
REMARK UNBOUND:                -1.160
REMARK  Name = 
REMARK  8 active torsions:
REMARK  status: ('A' for Active; 'I' for Inactive)
REMARK    1  A    between atoms: C_1  and  C_2
REMARK    2  A    between atoms: C_2  and  N_3
REMARK    3  A    between atoms: C_2  and  C_25
REMARK    4  A    between atoms: N_3  and  C_4
REMARK    5  A    between atoms: C_4  and  C_5
REMARK    6  A    between atoms: C_8  and  C_9
REMARK    7  A    between atoms: C_9  and  N_10
REMARK    8  A    between atoms: C_11  and  C_13
REMARK                            x       y       z     vdW  Elec       q    Type
REMARK                         _______ _______ _______ _____ _____    ______ ____
ROOT
ATOM      1  C   UNL     1      46.825   5.056  13.696  0.00  0.00    +0.000 A 
ATOM      2  C   UNL     1      47.619   6.204  13.628  0.00  0.00    +0.000 A 
ATOM      3  C   UNL     1      48.373   6.599  14.729  0.00  0.00    +0.000 A 
ATOM      4  C   UNL     1      48.307   5.843  15.893  0.00  0.00    +0.000 A 
ATOM      5  N   UNL     1      47.571   4.704  15.979  0.00  0.00    +0.000 NA
ATOM      6  C   UNL     1      46.857   4.340  14.887  0.00  0.00    +0.000 A 
ENDROOT
BRANCH   1   7
ATOM      7  C   UNL     1      46.007   4.623  12.505  0.00  0.00    +0.000 C 
BRANCH   7   8
ATOM      8  N   UNL     1      45.194   5.712  11.969  0.00  0.00    +0.000 NA
ATOM      9  H   UNL     1      44.750   6.203  12.744  0.00  0.00    +0.000 HD
BRANCH   8  11
ATOM     10  C   UNL     1      42.985   4.500  11.800  0.00  0.00    +0.000 C 
ATOM     11  C   UNL     1      44.108   5.250  11.073  0.00  0.00    +0.000 C 
BRANCH  11  12
ATOM     12  C   UNL     1      44.632   4.340   9.959  0.00  0.00    +0.000 A 
ATOM     13  C   UNL     1      45.484   4.827   8.963  0.00  0.00    +0.000 A 
ATOM     14  C   UNL     1      45.986   3.946   8.009  0.00  0.00    +0.000 A 
ATOM     15  C   UNL     1      45.644   2.603   8.077  0.00  0.00    +0.000 A 
ATOM     16  C   UNL     1      44.796   2.197   9.094  0.00  0.00    +0.000 A 
ATOM     17  N   UNL     1      44.281   3.030  10.027  0.00  0.00    +0.000 NA
ENDBRANCH  11  12
ENDBRANCH   8  11
ENDBRANCH   7   8
ENDBRANCH   1   7
BRANCH   4  18
ATOM     18  C   UNL     1      49.060   6.282  17.123  0.00  0.00    +0.000 C 
BRANCH  18  19
ATOM     19  N   UNL     1      50.048   5.317  17.544  0.00  0.00    +0.000 N 
ATOM     20  C   UNL     1      51.361   5.385  17.165  0.00  0.00    +0.000 C 
ATOM     21  O   UNL     1      51.784   6.255  16.414  0.00  0.00    +0.000 OA
ATOM     22  H   UNL     1      49.678   4.457  17.933  0.00  0.00    +0.000 HD
BRANCH  20  23
ATOM     23  C   UNL     1      52.253   4.395  17.777  0.00  0.00    +0.000 A 
ATOM     24  C   UNL     1      53.387   4.817  18.460  0.00  0.00    +0.000 A 
ATOM     25  S   UNL     1      54.290   3.539  19.139  0.00  0.00    +0.000 S 
ATOM     26  C   UNL     1      53.220   2.374  18.508  0.00  0.00    +0.000 A 
ATOM     27  N   UNL     1      53.437   1.046  18.701  0.00  0.00    +0.000 NA
ATOM     28  C   UNL     1      52.562   0.277  18.142  0.00  0.00    +0.000 A 
ATOM     29  N   UNL     1      51.484   0.715  17.418  0.00  0.00    +0.000 N 
ATOM     30  C   UNL     1      51.192   2.046  17.250  0.00  0.00    +0.000 A 
ATOM     31  O   UNL     1      50.162   2.403  16.689  0.00  0.00    +0.000 OA
ATOM     32  C   UNL     1      52.170   2.955  17.819  0.00  0.00    +0.000 A 
ATOM     33  H   UNL     1      50.819   0.064  17.031  0.00  0.00    +0.000 HD
ENDBRANCH  20  23
ENDBRANCH  18  19
ENDBRANCH   4  18
TORSDOF 7
ENDMDL
MODEL 5
REMARK VINA RESULT:    -7.283      4.705      9.577
REMARK INTER + INTRA:         -11.424
REMARK INTER:                 -10.496
REMARK INTRA:                  -0.928
REMARK UNBOUND:                -1.160
REMARK  Name = 
REMARK  8 active torsions:
REMARK  status: ('A' for Active; 'I' for Inactive)
REMARK    1  A    between atoms: C_1  and  C_2
REMARK    2  A    between atoms: C_2  and  N_3
REMARK    3  A    between atoms: C_2  and  C_25
REMARK    4  A    between atoms: N_3  and  C_4
REMARK    5  A    between atoms: C_4  and  C_5
REMARK    6  A    between atoms: C_8  and  C_9
REMARK    7  A    between atoms: C_9  and  N_10
REMARK    8  A    between atoms: C_11  and  C_13
REMARK                            x       y       z     vdW  Elec       q    Type
REMARK                         _______ _______ _______ _____ _____    ______ ____
ROOT
ATOM      1  C   UNL     1      51.310   3.338  17.691  0.00  0.00    +0.000 A 
ATOM      2  C   UNL     1      50.664   2.181  17.244  0.00  0.00    +0.000 A 
ATOM      3  C   UNL     1      49.311   2.215  16.921  0.00  0.00    +0.000 A 
ATOM      4  C   UNL     1      48.617   3.410  17.069  0.00  0.00    +0.000 A 
ATOM      5  N   UNL     1      49.223   4.558  17.470  0.00  0.00    +0.000 NA
ATOM      6  C   UNL     1      50.543   4.495  17.766  0.00  0.00    +0.000 A 
ENDROOT
BRANCH   1   7
ATOM      7  C   UNL     1      52.776   3.306  18.041  0.00  0.00    +0.000 C 
BRANCH   7   8
ATOM      8  N   UNL     1      53.145   2.092  18.765  0.00  0.00    +0.000 NA
ATOM      9  H   UNL     1      53.104   2.281  19.766  0.00  0.00    +0.000 HD
BRANCH   8  11
ATOM     10  C   UNL     1      55.185   2.360  17.300  0.00  0.00    +0.000 C 
ATOM     11  C   UNL     1      54.520   1.626  18.471  0.00  0.00    +0.000 C 
BRANCH  11  12
ATOM     12  C   UNL     1      54.565   0.126  18.167  0.00  0.00    +0.000 A 
ATOM     13  C   UNL     1      54.954  -0.350  16.912  0.00  0.00    +0.000 A 
ATOM     14  C   UNL     1      55.042  -1.723  16.704  0.00  0.00    +0.000 A 
ATOM     15  C   UNL     1      54.758  -2.589  17.751  0.00  0.00    +0.000 A 
ATOM     16  C   UNL     1      54.381  -2.041  18.966  0.00  0.00    +0.000 A 
ATOM     17  N   UNL     1      54.272  -0.713  19.194  0.00  0.00    +0.000 NA
ENDBRANCH  11  12
ENDBRANCH   8  11
ENDBRANCH   7   8
ENDBRANCH   1   7
BRANCH   4  18
ATOM     18  C   UNL     1      47.136   3.463  16.791  0.00  0.00    +0.000 C 
BRANCH  18  19
ATOM     19  N   UNL     1      46.794   4.431  15.778  0.00  0.00    +0.000 N 
ATOM     20  C   UNL     1      46.819   4.146  14.440  0.00  0.00    +0.000 C 
ATOM     21  O   UNL     1      47.163   3.054  14.007  0.00  0.00    +0.000 OA
ATOM     22  H   UNL     1      46.770   5.397  16.089  0.00  0.00    +0.000 HD
BRANCH  20  23
ATOM     23  C   UNL     1      46.329   5.207  13.553  0.00  0.00    +0.000 A 
ATOM     24  C   UNL     1      47.141   6.296  13.265  0.00  0.00    +0.000 A 
ATOM     25  S   UNL     1      46.429   7.414  12.191  0.00  0.00    +0.000 S 
ATOM     26  C   UNL     1      44.993   6.503  12.107  0.00  0.00    +0.000 A 
ATOM     27  N   UNL     1      43.937   6.927  11.364  0.00  0.00    +0.000 NA
ATOM     28  C   UNL     1      42.904   6.152  11.416  0.00  0.00    +0.000 A 
ATOM     29  N   UNL     1      42.836   4.986  12.132  0.00  0.00    +0.000 N 
ATOM     30  C   UNL     1      43.899   4.489  12.846  0.00  0.00    +0.000 A 
ATOM     31  O   UNL     1      43.840   3.390  13.388  0.00  0.00    +0.000 OA
ATOM     32  C   UNL     1      45.070   5.345  12.860  0.00  0.00    +0.000 A 
ATOM     33  H   UNL     1      42.011   4.408  12.108  0.00  0.00    +0.000 HD
ENDBRANCH  20  23
ENDBRANCH  18  19
ENDBRANCH   4  18
TORSDOF 7
ENDMDL
MODEL 6
REMARK VINA RESULT:    -7.241      3.192      8.178
REMARK INTER + INTRA:         -11.365
REMARK INTER:                  -9.882
REMARK INTRA:                  -1.483
REMARK UNBOUND:                -1.160
REMARK  Name = 
REMARK  8 active torsions:
REMARK  status: ('A' for Active; 'I' for Inactive)
REMARK    1  A    between atoms: C_1  and  C_2
REMARK    2  A    between atoms: C_2  and  N_3
REMARK    3  A    between atoms: C_2  and  C_25
REMARK    4  A    between atoms: N_3  and  C_4
REMARK    5  A    between atoms: C_4  and  C_5
REMARK    6  A    between atoms: C_8  and  C_9
REMARK    7  A    between atoms: C_9  and  N_10
REMARK    8  A    between atoms: C_11  and  C_13
REMARK                            x       y       z     vdW  Elec       q    Type
REMARK                         _______ _______ _______ _____ _____    ______ ____
ROOT
ATOM      1  C   UNL     1      48.656   7.941  16.365  0.00  0.00    +0.000 A 
ATOM      2  C   UNL     1      48.815   6.767  15.623  0.00  0.00    +0.000 A 
ATOM      3  C   UNL     1      48.710   6.796  14.236  0.00  0.00    +0.000 A 
ATOM      4  C   UNL     1      48.427   8.005  13.610  0.00  0.00    +0.000 A 
ATOM      5  N   UNL     1      48.301   9.168  14.300  0.00  0.00    +0.000 NA
ATOM      6  C   UNL     1      48.419   9.109  15.648  0.00  0.00    +0.000 A 
ENDROOT
BRANCH   1   7
ATOM      7  C   UNL     1      48.771   7.915  17.867  0.00  0.00    +0.000 C 
BRANCH   7   8
ATOM      8  N   UNL     1      47.519   7.519  18.510  0.00  0.00    +0.000 NA
ATOM      9  H   UNL     1      47.219   8.268  19.133  0.00  0.00    +0.000 HD
BRANCH   8  11
ATOM     10  C   UNL     1      48.718   6.392  20.426  0.00  0.00    +0.000 C 
ATOM     11  C   UNL     1      47.643   6.296  19.336  0.00  0.00    +0.000 C 
BRANCH  11  12
ATOM     12  C   UNL     1      47.949   5.059  18.486  0.00  0.00    +0.000 A 
ATOM     13  C   UNL     1      49.209   4.455  18.510  0.00  0.00    +0.000 A 
ATOM     14  C   UNL     1      49.419   3.294  17.771  0.00  0.00    +0.000 A 
ATOM     15  C   UNL     1      48.369   2.753  17.042  0.00  0.00    +0.000 A 
ATOM     16  C   UNL     1      47.150   3.409  17.070  0.00  0.00    +0.000 A 
ATOM     17  N   UNL     1      46.919   4.544  17.766  0.00  0.00    +0.000 NA
ENDBRANCH  11  12
ENDBRANCH   8  11
ENDBRANCH   7   8
ENDBRANCH   1   7
BRANCH   4  18
ATOM     18  C   UNL     1      48.242   8.056  12.115  0.00  0.00    +0.000 C 
BRANCH  18  19
ATOM     19  N   UNL     1      47.511   6.920  11.606  0.00  0.00    +0.000 N 
ATOM     20  C   UNL     1      46.157   6.935  11.411  0.00  0.00    +0.000 C 
ATOM     21  O   UNL     1      45.464   7.907  11.686  0.00  0.00    +0.000 OA
ATOM     22  H   UNL     1      48.010   6.037  11.627  0.00  0.00    +0.000 HD
BRANCH  20  23
ATOM     23  C   UNL     1      45.591   5.740  10.776  0.00  0.00    +0.000 A 
ATOM     24  C   UNL     1      45.777   5.528   9.416  0.00  0.00    +0.000 A 
ATOM     25  S   UNL     1      45.084   4.075   8.852  0.00  0.00    +0.000 S 
ATOM     26  C   UNL     1      44.476   3.700  10.397  0.00  0.00    +0.000 A 
ATOM     27  N   UNL     1      43.741   2.575  10.606  0.00  0.00    +0.000 NA
ATOM     28  C   UNL     1      43.320   2.433  11.820  0.00  0.00    +0.000 A 
ATOM     29  N   UNL     1      43.578   3.304  12.845  0.00  0.00    +0.000 N 
ATOM     30  C   UNL     1      44.366   4.419  12.693  0.00  0.00    +0.000 A 
ATOM     31  O   UNL     1      44.664   5.120  13.654  0.00  0.00    +0.000 OA
ATOM     32  C   UNL     1      44.826   4.652  11.337  0.00  0.00    +0.000 A 
ATOM     33  H   UNL     1      43.245   3.122  13.779  0.00  0.00    +0.000 HD
ENDBRANCH  20  23
ENDBRANCH  18  19
ENDBRANCH   4  18
TORSDOF 7
ENDMDL
MODEL 7
REMARK VINA RESULT:    -7.198      2.045      2.434
REMARK INTER + INTRA:         -11.304
REMARK INTER:                 -10.162
REMARK INTRA:                  -1.142
REMARK UNBOUND:                -1.160
REMARK  Name = 
REMARK  8 active torsions:
REMARK  status: ('A' for Active; 'I' for Inactive)
REMARK    1  A    between atoms: C_1  and  C_2
REMARK    2  A    between atoms: C_2  and  N_3
REMARK    3  A    between atoms: C_2  and  C_25
REMARK    4  A    between atoms: N_3  and  C_4
REMARK    5  A    between atoms: C_4  and  C_5
REMARK    6  A    between atoms: C_8  and  C_9
REMARK    7  A    between atoms: C_9  and  N_10
REMARK    8  A    between atoms: C_11  and  C_13
REMARK                            x       y       z     vdW  Elec       q    Type
REMARK                         _______ _______ _______ _____ _____    ______ ____
ROOT
ATOM      1  C   UNL     1      45.385   6.181  11.782  0.00  0.00    +0.000 A 
ATOM      2  C   UNL     1      46.149   5.374  12.629  0.00  0.00    +0.000 A 
ATOM      3  C   UNL     1      47.142   5.937  13.425  0.00  0.00    +0.000 A 
ATOM      4  C   UNL     1      47.367   7.306  13.346  0.00  0.00    +0.000 A 
ATOM      5  N   UNL     1      46.619   8.122  12.559  0.00  0.00    +0.000 NA
ATOM      6  C   UNL     1      45.653   7.545  11.804  0.00  0.00    +0.000 A 
ENDROOT
BRANCH   1   7
ATOM      7  C   UNL     1      44.307   5.576  10.919  0.00  0.00    +0.000 C 
BRANCH   7   8
ATOM      8  N   UNL     1      44.828   5.096   9.641  0.00  0.00    +0.000 NA
ATOM      9  H   UNL     1      44.493   5.709   8.899  0.00  0.00    +0.000 HD
BRANCH   8  11
ATOM     10  C   UNL     1      44.111   2.841  10.525  0.00  0.00    +0.000 C 
ATOM     11  C   UNL     1      44.381   3.725   9.301  0.00  0.00    +0.000 C 
BRANCH  11  12
ATOM     12  C   UNL     1      45.392   2.996   8.413  0.00  0.00    +0.000 A 
ATOM     13  C   UNL     1      46.160   3.684   7.470  0.00  0.00    +0.000 A 
ATOM     14  C   UNL     1      47.113   2.988   6.732  0.00  0.00    +0.000 A 
ATOM     15  C   UNL     1      47.291   1.631   6.960  0.00  0.00    +0.000 A 
ATOM     16  C   UNL     1      46.493   1.019   7.912  0.00  0.00    +0.000 A 
ATOM     17  N   UNL     1      45.550   1.665   8.635  0.00  0.00    +0.000 NA
ENDBRANCH  11  12
ENDBRANCH   8  11
ENDBRANCH   7   8
ENDBRANCH   1   7
BRANCH   4  18
ATOM     18  C   UNL     1      48.479   7.936  14.146  0.00  0.00    +0.000 C 
BRANCH  18  19
ATOM     19  N   UNL     1      49.036   7.037  15.128  0.00  0.00    +0.000 N 
ATOM     20  C   UNL     1      48.968   7.274  16.474  0.00  0.00    +0.000 C 
ATOM     21  O   UNL     1      48.455   8.284  16.939  0.00  0.00    +0.000 OA
ATOM     22  H   UNL     1      49.688   6.349  14.768  0.00  0.00    +0.000 HD
BRANCH  20  23
ATOM     23  C   UNL     1      49.478   6.202  17.337  0.00  0.00    +0.000 A 
ATOM     24  C   UNL     1      48.619   5.557  18.217  0.00  0.00    +0.000 A 
ATOM     25  S   UNL     1      49.368   4.315  19.115  0.00  0.00    +0.000 S 
ATOM     26  C   UNL     1      50.876   4.624  18.388  0.00  0.00    +0.000 A 
ATOM     27  N   UNL     1      51.982   3.915  18.741  0.00  0.00    +0.000 NA
ATOM     28  C   UNL     1      53.062   4.276  18.130  0.00  0.00    +0.000 A 
ATOM     29  N   UNL     1      53.136   5.271  17.191  0.00  0.00    +0.000 N 
ATOM     30  C   UNL     1      52.034   5.970  16.761  0.00  0.00    +0.000 A 
ATOM     31  O   UNL     1      52.117   6.780  15.843  0.00  0.00    +0.000 OA
ATOM     32  C   UNL     1      50.801   5.637  17.449  0.00  0.00    +0.000 A 
ATOM     33  H   UNL     1      54.004   5.486  16.728  0.00  0.00    +0.000 HD
ENDBRANCH  20  23
ENDBRANCH  18  19
ENDBRANCH   4  18
TORSDOF 7
ENDMDL
MODEL 8
REMARK VINA RESULT:    -6.989      2.838      8.303
REMARK INTER + INTRA:         -11.010
REMARK INTER:                  -9.611
REMARK INTRA:                  -1.399
REMARK UNBOUND:                -1.160
REMARK  Name = 
REMARK  8 active torsions:
REMARK  status: ('A' for Active; 'I' for Inactive)
REMARK    1  A    between atoms: C_1  and  C_2
REMARK    2  A    between atoms: C_2  and  N_3
REMARK    3  A    between atoms: C_2  and  C_25
REMARK    4  A    between atoms: N_3  and  C_4
REMARK    5  A    between atoms: C_4  and  C_5
REMARK    6  A    between atoms: C_8  and  C_9
REMARK    7  A    between atoms: C_9  and  N_10
REMARK    8  A    between atoms: C_11  and  C_13
REMARK                            x       y       z     vdW  Elec       q    Type
REMARK                         _______ _______ _______ _____ _____    ______ ____
ROOT
ATOM      1  C   UNL     1      49.353   8.419  15.800  0.00  0.00    +0.000 A 
ATOM      2  C   UNL     1      50.080   7.610  14.922  0.00  0.00    +0.000 A 
ATOM      3  C   UNL     1      49.627   7.404  13.623  0.00  0.00    +0.000 A 
ATOM      4  C   UNL     1      48.436   8.002  13.226  0.00  0.00    +0.000 A 
ATOM      5  N   UNL     1      47.726   8.821  14.044  0.00  0.00    +0.000 NA
ATOM      6  C   UNL     1      48.199   9.009  15.300  0.00  0.00    +0.000 A 
ENDROOT
BRANCH   1   7
ATOM      7  C   UNL     1      49.841   8.646  17.208  0.00  0.00    +0.000 C 
BRANCH   7   8
ATOM      8  N   UNL     1      49.843   7.416  17.997  0.00  0.00    +0.000 NA
ATOM      9  H   UNL     1      50.514   6.765  17.589  0.00  0.00    +0.000 HD
BRANCH   8  11
ATOM     10  C   UNL     1      47.826   6.778  19.377  0.00  0.00    +0.000 C 
ATOM     11  C   UNL     1      48.532   6.727  18.016  0.00  0.00    +0.000 C 
BRANCH  11  12
ATOM     12  C   UNL     1      48.651   5.256  17.607  0.00  0.00    +0.000 A 
ATOM     13  C   UNL     1      49.861   4.565  17.723  0.00  0.00    +0.000 A 
ATOM     14  C   UNL     1      49.903   3.212  17.400  0.00  0.00    +0.000 A 
ATOM     15  C   UNL     1      48.741   2.575  16.988  0.00  0.00    +0.000 A 
ATOM     16  C   UNL     1      47.581   3.326  16.900  0.00  0.00    +0.000 A 
ATOM     17  N   UNL     1      47.512   4.644  17.192  0.00  0.00    +0.000 NA
ENDBRANCH  11  12
ENDBRANCH   8  11
ENDBRANCH   7   8
ENDBRANCH   1   7
BRANCH   4  18
ATOM     18  C   UNL     1      47.885   7.745  11.846  0.00  0.00    +0.000 C 
BRANCH  18  19
ATOM     19  N   UNL     1      47.079   6.550  11.783  0.00  0.00    +0.000 N 
ATOM     20  C   UNL     1      45.712   6.574  11.808  0.00  0.00    +0.000 C 
ATOM     21  O   UNL     1      45.075   7.614  11.919  0.00  0.00    +0.000 OA
ATOM     22  H   UNL     1      47.573   5.681  11.962  0.00  0.00    +0.000 HD
BRANCH  20  23
ATOM     23  C   UNL     1      45.047   5.281  11.615  0.00  0.00    +0.000 A 
ATOM     24  C   UNL     1      44.329   4.711  12.659  0.00  0.00    +0.000 A 
ATOM     25  S   UNL     1      43.592   3.228  12.251  0.00  0.00    +0.000 S 
ATOM     26  C   UNL     1      44.243   3.274  10.678  0.00  0.00    +0.000 A 
ATOM     27  N   UNL     1      44.017   2.264   9.797  0.00  0.00    +0.000 NA
ATOM     28  C   UNL     1      44.596   2.417   8.652  0.00  0.00    +0.000 A 
ATOM     29  N   UNL     1      45.369   3.494   8.303  0.00  0.00    +0.000 N 
ATOM     30  C   UNL     1      45.572   4.564   9.139  0.00  0.00    +0.000 A 
ATOM     31  O   UNL     1      46.180   5.560   8.758  0.00  0.00    +0.000 OA
ATOM     32  C   UNL     1      44.982   4.422  10.457  0.00  0.00    +0.000 A 
ATOM     33  H   UNL     1      45.770   3.570   7.382  0.00  0.00    +0.000 HD
ENDBRANCH  20  23
ENDBRANCH  18  19
ENDBRANCH   4  18
TORSDOF 7
ENDMDL
MODEL 9
REMARK VINA RESULT:    -6.639      3.141      5.444
REMARK INTER + INTRA:         -10.516
REMARK INTER:                  -9.555
REMARK INTRA:                  -0.961
REMARK UNBOUND:                -1.160
REMARK  Name = 
REMARK  8 active torsions:
REMARK  status: ('A' for Active; 'I' for Inactive)
REMARK    1  A    between atoms: C_1  and  C_2
REMARK    2  A    between atoms: C_2  and  N_3
REMARK    3  A    between atoms: C_2  and  C_25
REMARK    4  A    between atoms: N_3  and  C_4
REMARK    5  A    between atoms: C_4  and  C_5
REMARK    6  A    between atoms: C_8  and  C_9
REMARK    7  A    between atoms: C_9  and  N_10
REMARK    8  A    between atoms: C_11  and  C_13
REMARK                            x       y       z     vdW  Elec       q    Type
REMARK                         _______ _______ _______ _____ _____    ______ ____
ROOT
ATOM      1  C   UNL     1      47.800   6.186  13.737  0.00  0.00    +0.000 A 
ATOM      2  C   UNL     1      47.175   4.944  13.597  0.00  0.00    +0.000 A 
ATOM      3  C   UNL     1      47.123   4.061  14.672  0.00  0.00    +0.000 A 
ATOM      4  C   UNL     1      47.716   4.432  15.873  0.00  0.00    +0.000 A 
ATOM      5  N   UNL     1      48.301   5.645  16.050  0.00  0.00    +0.000 NA
ATOM      6  C   UNL     1      48.327   6.486  14.989  0.00  0.00    +0.000 A 
ENDROOT
BRANCH   1   7
ATOM      7  C   UNL     1      47.858   7.146  12.577  0.00  0.00    +0.000 C 
BRANCH   7   8
ATOM      8  N   UNL     1      47.112   6.657  11.419  0.00  0.00    +0.000 NA
ATOM      9  H   UNL     1      47.549   7.018  10.571  0.00  0.00    +0.000 HD
BRANCH   8  11
ATOM     10  C   UNL     1      45.362   8.140  12.475  0.00  0.00    +0.000 C 
ATOM     11  C   UNL     1      45.699   7.102  11.398  0.00  0.00    +0.000 C 
BRANCH  11  12
ATOM     12  C   UNL     1      44.727   5.930  11.558  0.00  0.00    +0.000 A 
ATOM     13  C   UNL     1      43.871   5.842  12.659  0.00  0.00    +0.000 A 
ATOM     14  C   UNL     1      42.959   4.793  12.728  0.00  0.00    +0.000 A 
ATOM     15  C   UNL     1      42.908   3.867  11.695  0.00  0.00    +0.000 A 
ATOM     16  C   UNL     1      43.788   4.022  10.637  0.00  0.00    +0.000 A 
ATOM     17  N   UNL     1      44.694   5.022  10.549  0.00  0.00    +0.000 NA
ENDBRANCH  11  12
ENDBRANCH   8  11
ENDBRANCH   7   8
ENDBRANCH   1   7
BRANCH   4  18
ATOM     18  C   UNL     1      47.734   3.472  17.035  0.00  0.00    +0.000 C 
BRANCH  18  19
ATOM     19  N   UNL     1      49.071   3.176  17.492  0.00  0.00    +0.000 N 
ATOM     20  C   UNL     1      49.883   2.266  16.871  0.00  0.00    +0.000 C 
ATOM     21  O   UNL     1      49.519   1.615  15.900  0.00  0.00    +0.000 OA
ATOM     22  H   UNL     1      49.290   3.493  18.430  0.00  0.00    +0.000 HD
BRANCH  20  23
ATOM     23  C   UNL     1      51.251   2.174  17.392  0.00  0.00    +0.000 A 
ATOM     24  C   UNL     1      51.817   0.927  17.629  0.00  0.00    +0.000 A 
ATOM     25  S   UNL     1      53.423   1.004  18.198  0.00  0.00    +0.000 S 
ATOM     26  C   UNL     1      53.404   2.706  18.188  0.00  0.00    +0.000 A 
ATOM     27  N   UNL     1      54.484   3.421  18.601  0.00  0.00    +0.000 NA
ATOM     28  C   UNL     1      54.318   4.703  18.568  0.00  0.00    +0.000 A 
ATOM     29  N   UNL     1      53.177   5.334  18.147  0.00  0.00    +0.000 N 
ATOM     30  C   UNL     1      52.086   4.653  17.665  0.00  0.00    +0.000 A 
ATOM     31  O   UNL     1      51.123   5.251  17.197  0.00  0.00    +0.000 OA
ATOM     32  C   UNL     1      52.201   3.208  17.724  0.00  0.00    +0.000 A 
ATOM     33  H   UNL     1      53.120   6.339  18.117  0.00  0.00    +0.000 HD
ENDBRANCH  20  23
ENDBRANCH  18  19
ENDBRANCH   4  18
TORSDOF 7
ENDMDL
