MODEL 1
REMARK VINA RESULT:    -6.903      0.000      0.000
REMARK INTER + INTRA:         -10.178
REMARK INTER:                  -9.728
REMARK INTRA:                  -0.450
REMARK UNBOUND:                -0.450
REMARK  Name = 
REMARK  9 active torsions:
REMARK  status: ('A' for Active; 'I' for Inactive)
REMARK    1  A    between atoms: C_1  and  N_2
REMARK    2  A    between atoms: N_2  and  C_3
REMARK    3  A    between atoms: N_2  and  C_4
REMARK    4  A    between atoms: C_4  and  C_5
REMARK    5  A    between atoms: C_5  and  O_6
REMARK    6  A    between atoms: O_6  and  C_7
REMARK    7  A    between atoms: C_10  and  C_11
REMARK    8  A    between atoms: C_11  and  N_12
REMARK    9  A    between atoms: C_17  and  C_18
REMARK                            x       y       z     vdW  Elec       q    Type
REMARK                         _______ _______ _______ _____ _____    ______ ____
ROOT
ATOM      1  C   UNL     1      46.870   5.162  14.316  0.00  0.00    +0.000 C 
ENDROOT
BRANCH   1   2
ATOM      2  N   UNL     1      46.579   4.164  15.355  0.00  0.00    +0.000 N 
ATOM      3  C   UNL     1      47.543   4.109  16.374  0.00  0.00    +0.000 A 
ATOM      4  C   UNL     1      47.342   3.240  17.431  0.00  0.00    +0.000 A 
ATOM      5  C   UNL     1      48.306   3.216  18.419  0.00  0.00    +0.000 A 
ATOM      6  N   UNL     1      49.407   3.983  18.398  0.00  0.00    +0.000 NA
ATOM      7  C   UNL     1      49.499   4.811  17.333  0.00  0.00    +0.000 A 
ATOM      8  N   UNL     1      48.614   4.907  16.323  0.00  0.00    +0.000 NA
ATOM      9  H   UNL     1      46.416   3.242  14.967  0.00  0.00    +0.000 HD
BRANCH   7  10
ATOM     10  C   UNL     1      50.729   5.681  17.247  0.00  0.00    +0.000 C 
ATOM     11  N   UNL     1      51.371   5.935  18.437  0.00  0.00    +0.000 N 
ATOM     12  O   UNL     1      51.167   6.145  16.198  0.00  0.00    +0.000 OA
ATOM     13  H   UNL     1      51.014   5.550  19.300  0.00  0.00    +0.000 HD
ATOM     14  H   UNL     1      52.204   6.506  18.430  0.00  0.00    +0.000 HD
ENDBRANCH   7  10
ENDBRANCH   1   2
BRANCH   1  18
ATOM     15  C   UNL     1      44.722   4.298  10.704  0.00  0.00    +0.000 A 
ATOM     16  C   UNL     1      45.416   5.499  10.824  0.00  0.00    +0.000 A 
ATOM     17  C   UNL     1      46.128   5.781  11.989  0.00  0.00    +0.000 A 
ATOM     18  C   UNL     1      46.122   4.854  13.029  0.00  0.00    +0.000 A 
ATOM     19  N   UNL     1      45.454   3.676  12.935  0.00  0.00    +0.000 NA
ATOM     20  C   UNL     1      44.775   3.429  11.786  0.00  0.00    +0.000 A 
BRANCH  15  21
ATOM     21  O   UNL     1      43.995   3.896   9.614  0.00  0.00    +0.000 OA
BRANCH  21  22
ATOM     22  C   UNL     1      44.764   3.699   8.421  0.00  0.00    +0.000 C 
BRANCH  22  23
ATOM     23  C   UNL     1      45.516   2.360   8.469  0.00  0.00    +0.000 C 
BRANCH  23  25
ATOM     24  C   UNL     1      47.085   0.968   7.283  0.00  0.00    +0.000 C 
ATOM     25  N   UNL     1      46.745   2.346   7.646  0.00  0.00    +0.000 NA
ATOM     26  C   UNL     1      46.619   3.156   6.432  0.00  0.00    +0.000 C 
ENDBRANCH  23  25
ENDBRANCH  22  23
ENDBRANCH  21  22
ENDBRANCH  15  21
ENDBRANCH   1  18
TORSDOF 7
ENDMDL
MODEL 2
REMARK VINA RESULT:    -6.755      1.659      2.086
REMARK INTER + INTRA:          -9.969
REMARK INTER:                  -9.404
REMARK INTRA:                  -0.565
REMARK UNBOUND:                -0.450
REMARK  Name = 
REMARK  9 active torsions:
REMARK  status: ('A' for Active; 'I' for Inactive)
REMARK    1  A    between atoms: C_1  and  N_2
REMARK    2  A    between atoms: N_2  and  C_3
REMARK    3  A    between atoms: N_2  and  C_4
REMARK    4  A    between atoms: C_4  and  C_5
REMARK    5  A    between atoms: C_5  and  O_6
REMARK    6  A    between atoms: O_6  and  C_7
REMARK    7  A    between atoms: C_10  and  C_11
REMARK    8  A    between atoms: C_11  and  N_12
REMARK    9  A    between atoms: C_17  and  C_18
REMARK                            x       y       z     vdW  Elec       q    Type
REMARK                         _______ _______ _______ _____ _____    ______ ____
ROOT
ATOM      1  C   UNL     1      47.086   3.869  14.979  0.00  0.00    +0.000 C 
ENDROOT
BRANCH   1   2
ATOM      2  N   UNL     1      47.338   5.056  15.808  0.00  0.00    +0.000 N 
ATOM      3  C   UNL     1      48.456   4.934  16.648  0.00  0.00    +0.000 A 
ATOM      4  C   UNL     1      48.815   6.013  17.435  0.00  0.00    +0.000 A 
ATOM      5  C   UNL     1      49.922   5.862  18.245  0.00  0.00    +0.000 A 
ATOM      6  N   UNL     1      50.651   4.735  18.301  0.00  0.00    +0.000 NA
ATOM      7  C   UNL     1      50.228   3.748  17.480  0.00  0.00    +0.000 A 
ATOM      8  N   UNL     1      49.164   3.800  16.656  0.00  0.00    +0.000 NA
ATOM      9  H   UNL     1      46.521   5.334  16.339  0.00  0.00    +0.000 HD
BRANCH   7  10
ATOM     10  C   UNL     1      50.996   2.450  17.518  0.00  0.00    +0.000 C 
ATOM     11  N   UNL     1      52.119   2.438  18.313  0.00  0.00    +0.000 N 
ATOM     12  O   UNL     1      50.666   1.440  16.902  0.00  0.00    +0.000 OA
ATOM     13  H   UNL     1      52.389   3.267  18.824  0.00  0.00    +0.000 HD
ATOM     14  H   UNL     1      52.663   1.590  18.378  0.00  0.00    +0.000 HD
ENDBRANCH   7  10
ENDBRANCH   1   2
BRANCH   1  18
ATOM     15  C   UNL     1      45.106   4.913  11.319  0.00  0.00    +0.000 A 
ATOM     16  C   UNL     1      45.824   5.881  12.016  0.00  0.00    +0.000 A 
ATOM     17  C   UNL     1      46.483   5.546  13.199  0.00  0.00    +0.000 A 
ATOM     18  C   UNL     1      46.398   4.240  13.676  0.00  0.00    +0.000 A 
ATOM     19  N   UNL     1      45.704   3.279  13.014  0.00  0.00    +0.000 NA
ATOM     20  C   UNL     1      45.079   3.635  11.863  0.00  0.00    +0.000 A 
BRANCH  15  21
ATOM     21  O   UNL     1      44.425   5.108  10.145  0.00  0.00    +0.000 OA
BRANCH  21  22
ATOM     22  C   UNL     1      44.400   3.971   9.274  0.00  0.00    +0.000 C 
BRANCH  22  23
ATOM     23  C   UNL     1      45.475   4.094   8.183  0.00  0.00    +0.000 C 
BRANCH  23  25
ATOM     24  C   UNL     1      47.238   2.871   7.085  0.00  0.00    +0.000 C 
ATOM     25  N   UNL     1      45.866   2.794   7.594  0.00  0.00    +0.000 NA
ATOM     26  C   UNL     1      45.759   1.688   8.549  0.00  0.00    +0.000 C 
ENDBRANCH  23  25
ENDBRANCH  22  23
ENDBRANCH  21  22
ENDBRANCH  15  21
ENDBRANCH   1  18
TORSDOF 7
ENDMDL
MODEL 3
REMARK VINA RESULT:    -6.742      2.848      3.650
REMARK INTER + INTRA:          -9.951
REMARK INTER:                  -9.173
REMARK INTRA:                  -0.778
REMARK UNBOUND:                -0.450
REMARK  Name = 
REMARK  9 active torsions:
REMARK  status: ('A' for Active; 'I' for Inactive)
REMARK    1  A    between atoms: C_1  and  N_2
REMARK    2  A    between atoms: N_2  and  C_3
REMARK    3  A    between atoms: N_2  and  C_4
REMARK    4  A    between atoms: C_4  and  C_5
REMARK    5  A    between atoms: C_5  and  O_6
REMARK    6  A    between atoms: O_6  and  C_7
REMARK    7  A    between atoms: C_10  and  C_11
REMARK    8  A    between atoms: C_11  and  N_12
REMARK    9  A    between atoms: C_17  and  C_18
REMARK                            x       y       z     vdW  Elec       q    Type
REMARK                         _______ _______ _______ _____ _____    ______ ____
ROOT
ATOM      1  C   UNL     1      49.205   6.761  15.066  0.00  0.00    +0.000 C 
ENDROOT
BRANCH   1   2
ATOM      2  N   UNL     1      48.515   6.902  16.356  0.00  0.00    +0.000 N 
ATOM      3  C   UNL     1      48.581   5.756  17.163  0.00  0.00    +0.000 A 
ATOM      4  C   UNL     1      48.009   5.796  18.421  0.00  0.00    +0.000 A 
ATOM      5  C   UNL     1      48.098   4.654  19.190  0.00  0.00    +0.000 A 
ATOM      6  N   UNL     1      48.703   3.528  18.778  0.00  0.00    +0.000 NA
ATOM      7  C   UNL     1      49.247   3.598  17.543  0.00  0.00    +0.000 A 
ATOM      8  N   UNL     1      49.212   4.663  16.719  0.00  0.00    +0.000 NA
ATOM      9  H   UNL     1      47.555   7.207  16.246  0.00  0.00    +0.000 HD
BRANCH   7  10
ATOM     10  C   UNL     1      49.920   2.354  17.019  0.00  0.00    +0.000 C 
ATOM     11  N   UNL     1      50.961   1.868  17.777  0.00  0.00    +0.000 N 
ATOM     12  O   UNL     1      49.582   1.774  15.990  0.00  0.00    +0.000 OA
ATOM     13  H   UNL     1      51.236   2.342  18.626  0.00  0.00    +0.000 HD
ATOM     14  H   UNL     1      51.438   1.033  17.472  0.00  0.00    +0.000 HD
ENDBRANCH   7  10
ENDBRANCH   1   2
BRANCH   1  18
ATOM     15  C   UNL     1      46.379   6.508  11.848  0.00  0.00    +0.000 A 
ATOM     16  C   UNL     1      47.010   7.720  12.118  0.00  0.00    +0.000 A 
ATOM     17  C   UNL     1      47.941   7.806  13.153  0.00  0.00    +0.000 A 
ATOM     18  C   UNL     1      48.215   6.673  13.916  0.00  0.00    +0.000 A 
ATOM     19  N   UNL     1      47.613   5.482  13.671  0.00  0.00    +0.000 NA
ATOM     20  C   UNL     1      46.716   5.428  12.653  0.00  0.00    +0.000 A 
BRANCH  15  21
ATOM     21  O   UNL     1      45.456   6.287  10.858  0.00  0.00    +0.000 OA
BRANCH  21  22
ATOM     22  C   UNL     1      45.081   4.915  10.687  0.00  0.00    +0.000 C 
BRANCH  22  23
ATOM     23  C   UNL     1      43.555   4.773  10.585  0.00  0.00    +0.000 C 
BRANCH  23  25
ATOM     24  C   UNL     1      43.639   2.957  12.168  0.00  0.00    +0.000 C 
ATOM     25  N   UNL     1      42.936   4.187  11.795  0.00  0.00    +0.000 NA
ATOM     26  C   UNL     1      42.934   5.113  12.930  0.00  0.00    +0.000 C 
ENDBRANCH  23  25
ENDBRANCH  22  23
ENDBRANCH  21  22
ENDBRANCH  15  21
ENDBRANCH   1  18
TORSDOF 7
ENDMDL
MODEL 4
REMARK VINA RESULT:    -6.532      1.559      2.352
REMARK INTER + INTRA:          -9.655
REMARK INTER:                  -9.191
REMARK INTRA:                  -0.464
REMARK UNBOUND:                -0.450
REMARK  Name = 
REMARK  9 active torsions:
REMARK  status: ('A' for Active; 'I' for Inactive)
REMARK    1  A    between atoms: C_1  and  N_2
REMARK    2  A    between atoms: N_2  and  C_3
REMARK    3  A    between atoms: N_2  and  C_4
REMARK    4  A    between atoms: C_4  and  C_5
REMARK    5  A    between atoms: C_5  and  O_6
REMARK    6  A    between atoms: O_6  and  C_7
REMARK    7  A    between atoms: C_10  and  C_11
REMARK    8  A    between atoms: C_11  and  N_12
REMARK    9  A    between atoms: C_17  and  C_18
REMARK                            x       y       z     vdW  Elec       q    Type
REMARK                         _______ _______ _______ _____ _____    ______ ____
ROOT
ATOM      1  C   UNL     1      46.266   4.622  14.042  0.00  0.00    +0.000 C 
ENDROOT
BRANCH   1   2
ATOM      2  N   UNL     1      47.084   5.829  14.218  0.00  0.00    +0.000 N 
ATOM      3  C   UNL     1      48.021   5.734  15.258  0.00  0.00    +0.000 A 
ATOM      4  C   UNL     1      48.879   6.796  15.478  0.00  0.00    +0.000 A 
ATOM      5  C   UNL     1      49.792   6.667  16.504  0.00  0.00    +0.000 A 
ATOM      6  N   UNL     1      49.881   5.576  17.283  0.00  0.00    +0.000 NA
ATOM      7  C   UNL     1      49.012   4.588  16.974  0.00  0.00    +0.000 A 
ATOM      8  N   UNL     1      48.088   4.621  15.995  0.00  0.00    +0.000 NA
ATOM      9  H   UNL     1      46.518   6.664  14.322  0.00  0.00    +0.000 HD
BRANCH   7  10
ATOM     10  C   UNL     1      49.052   3.348  17.832  0.00  0.00    +0.000 C 
ATOM     11  N   UNL     1      48.158   3.309  18.876  0.00  0.00    +0.000 N 
ATOM     12  O   UNL     1      49.815   2.405  17.636  0.00  0.00    +0.000 OA
ATOM     13  H   UNL     1      47.528   4.082  19.035  0.00  0.00    +0.000 HD
ATOM     14  H   UNL     1      48.141   2.496  19.475  0.00  0.00    +0.000 HD
ENDBRANCH   7  10
ENDBRANCH   1   2
BRANCH   1  18
ATOM     15  C   UNL     1      44.776   4.340  10.028  0.00  0.00    +0.000 A 
ATOM     16  C   UNL     1      44.703   3.234  10.871  0.00  0.00    +0.000 A 
ATOM     17  C   UNL     1      45.171   3.322  12.182  0.00  0.00    +0.000 A 
ATOM     18  C   UNL     1      45.724   4.521  12.626  0.00  0.00    +0.000 A 
ATOM     19  N   UNL     1      45.805   5.613  11.823  0.00  0.00    +0.000 NA
ATOM     20  C   UNL     1      45.336   5.498  10.554  0.00  0.00    +0.000 A 
BRANCH  15  21
ATOM     21  O   UNL     1      44.344   4.389   8.728  0.00  0.00    +0.000 OA
BRANCH  21  22
ATOM     22  C   UNL     1      44.990   3.460   7.849  0.00  0.00    +0.000 C 
BRANCH  22  23
ATOM     23  C   UNL     1      46.458   3.850   7.621  0.00  0.00    +0.000 C 
BRANCH  23  25
ATOM     24  C   UNL     1      46.848   1.472   7.585  0.00  0.00    +0.000 C 
ATOM     25  N   UNL     1      47.272   2.762   7.035  0.00  0.00    +0.000 NA
ATOM     26  C   UNL     1      47.190   2.722   5.573  0.00  0.00    +0.000 C 
ENDBRANCH  23  25
ENDBRANCH  22  23
ENDBRANCH  21  22
ENDBRANCH  15  21
ENDBRANCH   1  18
TORSDOF 7
ENDMDL
MODEL 5
REMARK VINA RESULT:    -6.178      2.304      8.066
REMARK INTER + INTRA:          -9.157
REMARK INTER:                  -8.501
REMARK INTRA:                  -0.655
REMARK UNBOUND:                -0.450
REMARK  Name = 
REMARK  9 active torsions:
REMARK  status: ('A' for Active; 'I' for Inactive)
REMARK    1  A    between atoms: C_1  and  N_2
REMARK    2  A    between atoms: N_2  and  C_3
REMARK    3  A    between atoms: N_2  and  C_4
REMARK    4  A    between atoms: C_4  and  C_5
REMARK    5  A    between atoms: C_5  and  O_6
REMARK    6  A    between atoms: O_6  and  C_7
REMARK    7  A    between atoms: C_10  and  C_11
REMARK    8  A    between atoms: C_11  and  N_12
REMARK    9  A    between atoms: C_17  and  C_18
REMARK                            x       y       z     vdW  Elec       q    Type
REMARK                         _______ _______ _______ _____ _____    ______ ____
ROOT
ATOM      1  C   UNL     1      45.114   7.281  11.805  0.00  0.00    +0.000 C 
ENDROOT
BRANCH   1   2
ATOM      2  N   UNL     1      44.239   6.320  12.491  0.00  0.00    +0.000 N 
ATOM      3  C   UNL     1      44.109   5.093  11.823  0.00  0.00    +0.000 A 
ATOM      4  C   UNL     1      43.348   4.097  12.407  0.00  0.00    +0.000 A 
ATOM      5  C   UNL     1      43.246   2.901  11.726  0.00  0.00    +0.000 A 
ATOM      6  N   UNL     1      43.841   2.668  10.545  0.00  0.00    +0.000 NA
ATOM      7  C   UNL     1      44.576   3.698  10.069  0.00  0.00    +0.000 A 
ATOM      8  N   UNL     1      44.736   4.899  10.658  0.00  0.00    +0.000 NA
ATOM      9  H   UNL     1      43.328   6.712  12.700  0.00  0.00    +0.000 HD
BRANCH   7  10
ATOM     10  C   UNL     1      45.248   3.500   8.734  0.00  0.00    +0.000 C 
ATOM     11  N   UNL     1      45.641   2.214   8.442  0.00  0.00    +0.000 N 
ATOM     12  O   UNL     1      45.442   4.403   7.924  0.00  0.00    +0.000 OA
ATOM     13  H   UNL     1      45.478   1.470   9.106  0.00  0.00    +0.000 HD
ATOM     14  H   UNL     1      46.089   2.028   7.556  0.00  0.00    +0.000 HD
ENDBRANCH   7  10
ENDBRANCH   1   2
BRANCH   1  18
ATOM     15  C   UNL     1      48.765   7.846  13.987  0.00  0.00    +0.000 A 
ATOM     16  C   UNL     1      48.667   6.809  13.063  0.00  0.00    +0.000 A 
ATOM     17  C   UNL     1      47.488   6.628  12.339  0.00  0.00    +0.000 A 
ATOM     18  C   UNL     1      46.414   7.486  12.565  0.00  0.00    +0.000 A 
ATOM     19  N   UNL     1      46.487   8.504  13.460  0.00  0.00    +0.000 NA
ATOM     20  C   UNL     1      47.649   8.658  14.145  0.00  0.00    +0.000 A 
BRANCH  15  21
ATOM     21  O   UNL     1      49.864   8.138  14.752  0.00  0.00    +0.000 OA
BRANCH  21  22
ATOM     22  C   UNL     1      50.378   7.033  15.505  0.00  0.00    +0.000 C 
BRANCH  22  23
ATOM     23  C   UNL     1      49.373   6.584  16.576  0.00  0.00    +0.000 C 
BRANCH  23  25
ATOM     24  C   UNL     1      50.187   4.499  17.469  0.00  0.00    +0.000 C 
ATOM     25  N   UNL     1      49.170   5.119  16.615  0.00  0.00    +0.000 NA
ATOM     26  C   UNL     1      47.836   4.747  17.094  0.00  0.00    +0.000 C 
ENDBRANCH  23  25
ENDBRANCH  22  23
ENDBRANCH  21  22
ENDBRANCH  15  21
ENDBRANCH   1  18
TORSDOF 7
ENDMDL
MODEL 6
REMARK VINA RESULT:    -5.948      2.229      8.956
REMARK INTER + INTRA:          -8.832
REMARK INTER:                  -8.295
REMARK INTRA:                  -0.537
REMARK UNBOUND:                -0.450
REMARK  Name = 
REMARK  9 active torsions:
REMARK  status: ('A' for Active; 'I' for Inactive)
REMARK    1  A    between atoms: C_1  and  N_2
REMARK    2  A    between atoms: N_2  and  C_3
REMARK    3  A    between atoms: N_2  and  C_4
REMARK    4  A    between atoms: C_4  and  C_5
REMARK    5  A    between atoms: C_5  and  O_6
REMARK    6  A    between atoms: O_6  and  C_7
REMARK    7  A    between atoms: C_10  and  C_11
REMARK    8  A    between atoms: C_11  and  N_12
REMARK    9  A    between atoms: C_17  and  C_18
REMARK                            x       y       z     vdW  Elec       q    Type
REMARK                         _______ _______ _______ _____ _____    ______ ____
ROOT
ATOM      1  C   UNL     1      46.676   4.057  13.836  0.00  0.00    +0.000 C 
ENDROOT
BRANCH   1   2
ATOM      2  N   UNL     1      45.431   4.821  14.001  0.00  0.00    +0.000 N 
ATOM      3  C   UNL     1      44.603   4.809  12.868  0.00  0.00    +0.000 A 
ATOM      4  C   UNL     1      43.382   5.455  12.932  0.00  0.00    +0.000 A 
ATOM      5  C   UNL     1      42.590   5.419  11.802  0.00  0.00    +0.000 A 
ATOM      6  N   UNL     1      42.948   4.797  10.666  0.00  0.00    +0.000 NA
ATOM      7  C   UNL     1      44.150   4.181  10.714  0.00  0.00    +0.000 A 
ATOM      8  N   UNL     1      44.991   4.160  11.765  0.00  0.00    +0.000 NA
ATOM      9  H   UNL     1      45.602   5.771  14.309  0.00  0.00    +0.000 HD
BRANCH   7  10
ATOM     10  C   UNL     1      44.613   3.486   9.457  0.00  0.00    +0.000 C 
ATOM     11  N   UNL     1      44.290   4.106   8.272  0.00  0.00    +0.000 N 
ATOM     12  O   UNL     1      45.250   2.436   9.451  0.00  0.00    +0.000 OA
ATOM     13  H   UNL     1      43.770   4.972   8.277  0.00  0.00    +0.000 HD
ATOM     14  H   UNL     1      44.584   3.684   7.404  0.00  0.00    +0.000 HD
ENDBRANCH   7  10
ENDBRANCH   1   2
BRANCH   1  18
ATOM     15  C   UNL     1      48.910   3.828  17.491  0.00  0.00    +0.000 A 
ATOM     16  C   UNL     1      48.467   5.065  17.029  0.00  0.00    +0.000 A 
ATOM     17  C   UNL     1      47.728   5.146  15.849  0.00  0.00    +0.000 A 
ATOM     18  C   UNL     1      47.455   3.979  15.138  0.00  0.00    +0.000 A 
ATOM     19  N   UNL     1      47.875   2.763  15.569  0.00  0.00    +0.000 NA
ATOM     20  C   UNL     1      48.588   2.716  16.723  0.00  0.00    +0.000 A 
BRANCH  15  21
ATOM     21  O   UNL     1      49.634   3.610  18.635  0.00  0.00    +0.000 OA
BRANCH  21  22
ATOM     22  C   UNL     1      50.029   4.801  19.327  0.00  0.00    +0.000 C 
BRANCH  22  23
ATOM     23  C   UNL     1      51.550   4.828  19.546  0.00  0.00    +0.000 C 
BRANCH  23  25
ATOM     24  C   UNL     1      52.938   4.856  17.576  0.00  0.00    +0.000 C 
ATOM     25  N   UNL     1      52.299   3.998  18.577  0.00  0.00    +0.000 NA
ATOM     26  C   UNL     1      53.312   3.157  19.220  0.00  0.00    +0.000 C 
ENDBRANCH  23  25
ENDBRANCH  22  23
ENDBRANCH  21  22
ENDBRANCH  15  21
ENDBRANCH   1  18
TORSDOF 7
ENDMDL
MODEL 7
REMARK VINA RESULT:    -5.900      4.080      7.805
REMARK INTER + INTRA:          -8.765
REMARK INTER:                  -8.137
REMARK INTRA:                  -0.628
REMARK UNBOUND:                -0.450
REMARK  Name = 
REMARK  9 active torsions:
REMARK  status: ('A' for Active; 'I' for Inactive)
REMARK    1  A    between atoms: C_1  and  N_2
REMARK    2  A    between atoms: N_2  and  C_3
REMARK    3  A    between atoms: N_2  and  C_4
REMARK    4  A    between atoms: C_4  and  C_5
REMARK    5  A    between atoms: C_5  and  O_6
REMARK    6  A    between atoms: O_6  and  C_7
REMARK    7  A    between atoms: C_10  and  C_11
REMARK    8  A    between atoms: C_11  and  N_12
REMARK    9  A    between atoms: C_17  and  C_18
REMARK                            x       y       z     vdW  Elec       q    Type
REMARK                         _______ _______ _______ _____ _____    ______ ____
ROOT
ATOM      1  C   UNL     1      47.172   5.103  13.304  0.00  0.00    +0.000 C 
ENDROOT
BRANCH   1   2
ATOM      2  N   UNL     1      45.794   5.493  13.633  0.00  0.00    +0.000 N 
ATOM      3  C   UNL     1      44.888   5.328  12.574  0.00  0.00    +0.000 A 
ATOM      4  C   UNL     1      43.554   5.616  12.790  0.00  0.00    +0.000 A 
ATOM      5  C   UNL     1      42.690   5.436  11.729  0.00  0.00    +0.000 A 
ATOM      6  N   UNL     1      43.082   5.003  10.520  0.00  0.00    +0.000 NA
ATOM      7  C   UNL     1      44.402   4.732  10.418  0.00  0.00    +0.000 A 
ATOM      8  N   UNL     1      45.320   4.874  11.392  0.00  0.00    +0.000 NA
ATOM      9  H   UNL     1      45.740   6.434  14.006  0.00  0.00    +0.000 HD
BRANCH   7  10
ATOM     10  C   UNL     1      44.902   4.263   9.074  0.00  0.00    +0.000 C 
ATOM     11  N   UNL     1      44.294   3.139   8.563  0.00  0.00    +0.000 N 
ATOM     12  O   UNL     1      45.787   4.829   8.438  0.00  0.00    +0.000 OA
ATOM     13  H   UNL     1      43.563   2.676   9.084  0.00  0.00    +0.000 HD
ATOM     14  H   UNL     1      44.589   2.791   7.663  0.00  0.00    +0.000 HD
ENDBRANCH   7  10
ENDBRANCH   1   2
BRANCH   1  18
ATOM     15  C   UNL     1      49.733   8.513  12.839  0.00  0.00    +0.000 A 
ATOM     16  C   UNL     1      48.772   8.235  11.870  0.00  0.00    +0.000 A 
ATOM     17  C   UNL     1      47.926   7.136  12.022  0.00  0.00    +0.000 A 
ATOM     18  C   UNL     1      48.067   6.320  13.142  0.00  0.00    +0.000 A 
ATOM     19  N   UNL     1      48.996   6.571  14.099  0.00  0.00    +0.000 NA
ATOM     20  C   UNL     1      49.802   7.651  13.926  0.00  0.00    +0.000 A 
BRANCH  15  21
ATOM     21  O   UNL     1      50.617   9.561  12.815  0.00  0.00    +0.000 OA
BRANCH  21  22
ATOM     22  C   UNL     1      51.116   9.892  11.514  0.00  0.00    +0.000 C 
BRANCH  22  23
ATOM     23  C   UNL     1      52.587   9.472  11.369  0.00  0.00    +0.000 C 
BRANCH  23  25
ATOM     24  C   UNL     1      52.051   7.506  10.083  0.00  0.00    +0.000 C 
ATOM     25  N   UNL     1      52.773   8.009  11.254  0.00  0.00    +0.000 NA
ATOM     26  C   UNL     1      54.184   7.626  11.161  0.00  0.00    +0.000 C 
ENDBRANCH  23  25
ENDBRANCH  22  23
ENDBRANCH  21  22
ENDBRANCH  15  21
ENDBRANCH   1  18
TORSDOF 7
ENDMDL
MODEL 8
REMARK VINA RESULT:    -5.743      2.473      9.133
REMARK INTER + INTRA:          -8.543
REMARK INTER:                  -7.907
REMARK INTRA:                  -0.636
REMARK UNBOUND:                -0.450
REMARK  Name = 
REMARK  9 active torsions:
REMARK  status: ('A' for Active; 'I' for Inactive)
REMARK    1  A    between atoms: C_1  and  N_2
REMARK    2  A    between atoms: N_2  and  C_3
REMARK    3  A    between atoms: N_2  and  C_4
REMARK    4  A    between atoms: C_4  and  C_5
REMARK    5  A    between atoms: C_5  and  O_6
REMARK    6  A    between atoms: O_6  and  C_7
REMARK    7  A    between atoms: C_10  and  C_11
REMARK    8  A    between atoms: C_11  and  N_12
REMARK    9  A    between atoms: C_17  and  C_18
REMARK                            x       y       z     vdW  Elec       q    Type
REMARK                         _______ _______ _______ _____ _____    ______ ____
ROOT
ATOM      1  C   UNL     1      46.922   4.362  14.500  0.00  0.00    +0.000 C 
ENDROOT
BRANCH   1   2
ATOM      2  N   UNL     1      46.426   5.640  13.972  0.00  0.00    +0.000 N 
ATOM      3  C   UNL     1      45.464   5.501  12.959  0.00  0.00    +0.000 A 
ATOM      4  C   UNL     1      44.892   6.641  12.426  0.00  0.00    +0.000 A 
ATOM      5  C   UNL     1      43.945   6.468  11.437  0.00  0.00    +0.000 A 
ATOM      6  N   UNL     1      43.563   5.264  10.980  0.00  0.00    +0.000 NA
ATOM      7  C   UNL     1      44.168   4.214  11.579  0.00  0.00    +0.000 A 
ATOM      8  N   UNL     1      45.100   4.282  12.549  0.00  0.00    +0.000 NA
ATOM      9  H   UNL     1      47.178   6.248  13.668  0.00  0.00    +0.000 HD
BRANCH   7  10
ATOM     10  C   UNL     1      43.794   2.838  11.088  0.00  0.00    +0.000 C 
ATOM     11  N   UNL     1      44.536   2.351  10.036  0.00  0.00    +0.000 N 
ATOM     12  O   UNL     1      42.896   2.157  11.577  0.00  0.00    +0.000 OA
ATOM     13  H   UNL     1      45.277   2.909   9.637  0.00  0.00    +0.000 HD
ATOM     14  H   UNL     1      44.329   1.431   9.677  0.00  0.00    +0.000 HD
ENDBRANCH   7  10
ENDBRANCH   1   2
BRANCH   1  18
ATOM     15  C   UNL     1      48.852   4.925  18.291  0.00  0.00    +0.000 A 
ATOM     16  C   UNL     1      47.932   3.891  18.131  0.00  0.00    +0.000 A 
ATOM     17  C   UNL     1      47.311   3.693  16.898  0.00  0.00    +0.000 A 
ATOM     18  C   UNL     1      47.613   4.549  15.841  0.00  0.00    +0.000 A 
ATOM     19  N   UNL     1      48.507   5.562  15.972  0.00  0.00    +0.000 NA
ATOM     20  C   UNL     1      49.098   5.726  17.183  0.00  0.00    +0.000 A 
BRANCH  15  21
ATOM     21  O   UNL     1      49.536   5.221  19.442  0.00  0.00    +0.000 OA
BRANCH  21  22
ATOM     22  C   UNL     1      50.872   4.706  19.491  0.00  0.00    +0.000 C 
BRANCH  22  23
ATOM     23  C   UNL     1      51.849   5.770  20.013  0.00  0.00    +0.000 C 
BRANCH  23  25
ATOM     24  C   UNL     1      52.778   5.531  17.802  0.00  0.00    +0.000 C 
ATOM     25  N   UNL     1      52.620   6.439  18.941  0.00  0.00    +0.000 NA
ATOM     26  C   UNL     1      51.994   7.685  18.491  0.00  0.00    +0.000 C 
ENDBRANCH  23  25
ENDBRANCH  22  23
ENDBRANCH  21  22
ENDBRANCH  15  21
ENDBRANCH   1  18
TORSDOF 7
ENDMDL
MODEL 9
REMARK VINA RESULT:    -5.510      2.663      8.979
REMARK INTER + INTRA:          -8.215
REMARK INTER:                  -7.570
REMARK INTRA:                  -0.646
REMARK UNBOUND:                -0.450
REMARK  Name = 
REMARK  9 active torsions:
REMARK  status: ('A' for Active; 'I' for Inactive)
REMARK    1  A    between atoms: C_1  and  N_2
REMARK    2  A    between atoms: N_2  and  C_3
REMARK    3  A    between atoms: N_2  and  C_4
REMARK    4  A    between atoms: C_4  and  C_5
REMARK    5  A    between atoms: C_5  and  O_6
REMARK    6  A    between atoms: O_6  and  C_7
REMARK    7  A    between atoms: C_10  and  C_11
REMARK    8  A    between atoms: C_11  and  N_12
REMARK    9  A    between atoms: C_17  and  C_18
REMARK                            x       y       z     vdW  Elec       q    Type
REMARK                         _______ _______ _______ _____ _____    ______ ____
ROOT
ATOM      1  C   UNL     1      47.486   5.540  12.954  0.00  0.00    +0.000 C 
ENDROOT
BRANCH   1   2
ATOM      2  N   UNL     1      46.507   6.595  12.656  0.00  0.00    +0.000 N 
ATOM      3  C   UNL     1      45.315   6.120  12.088  0.00  0.00    +0.000 A 
ATOM      4  C   UNL     1      44.304   7.022  11.815  0.00  0.00    +0.000 A 
ATOM      5  C   UNL     1      43.143   6.521  11.263  0.00  0.00    +0.000 A 
ATOM      6  N   UNL     1      42.957   5.220  10.985  0.00  0.00    +0.000 NA
ATOM      7  C   UNL     1      43.997   4.419  11.306  0.00  0.00    +0.000 A 
ATOM      8  N   UNL     1      45.166   4.813  11.847  0.00  0.00    +0.000 NA
ATOM      9  H   UNL     1      46.902   7.337  12.089  0.00  0.00    +0.000 HD
BRANCH   7  10
ATOM     10  C   UNL     1      43.852   2.951  10.994  0.00  0.00    +0.000 C 
ATOM     11  N   UNL     1      44.786   2.423  10.132  0.00  0.00    +0.000 N 
ATOM     12  O   UNL     1      42.975   2.233  11.468  0.00  0.00    +0.000 OA
ATOM     13  H   UNL     1      45.510   3.011   9.745  0.00  0.00    +0.000 HD
ATOM     14  H   UNL     1      44.735   1.442   9.898  0.00  0.00    +0.000 HD
ENDBRANCH   7  10
ENDBRANCH   1   2
BRANCH   1  18
ATOM     15  C   UNL     1      47.748   4.739  17.161  0.00  0.00    +0.000 A 
ATOM     16  C   UNL     1      48.425   5.831  16.622  0.00  0.00    +0.000 A 
ATOM     17  C   UNL     1      48.332   6.106  15.258  0.00  0.00    +0.000 A 
ATOM     18  C   UNL     1      47.570   5.269  14.447  0.00  0.00    +0.000 A 
ATOM     19  N   UNL     1      46.901   4.200  14.949  0.00  0.00    +0.000 NA
ATOM     20  C   UNL     1      47.006   3.961  16.281  0.00  0.00    +0.000 A 
BRANCH  15  21
ATOM     21  O   UNL     1      47.747   4.365  18.480  0.00  0.00    +0.000 OA
BRANCH  21  22
ATOM     22  C   UNL     1      49.037   4.376  19.104  0.00  0.00    +0.000 C 
BRANCH  22  23
ATOM     23  C   UNL     1      48.927   4.783  20.581  0.00  0.00    +0.000 C 
BRANCH  23  25
ATOM     24  C   UNL     1      50.023   6.812  19.882  0.00  0.00    +0.000 C 
ATOM     25  N   UNL     1      49.033   6.243  20.799  0.00  0.00    +0.000 NA
ATOM     26  C   UNL     1      47.752   6.933  20.627  0.00  0.00    +0.000 C 
ENDBRANCH  23  25
ENDBRANCH  22  23
ENDBRANCH  21  22
ENDBRANCH  15  21
ENDBRANCH   1  18
TORSDOF 7
ENDMDL
