MODEL 1
REMARK VINA RESULT:    -8.988      0.000      0.000
REMARK INTER + INTRA:         -12.482
REMARK INTER:                 -11.879
REMARK INTRA:                  -0.603
REMARK UNBOUND:                -0.603
REMARK  Name = 
REMARK  6 active torsions:
REMARK  status: ('A' for Active; 'I' for Inactive)
REMARK    1  A    between atoms: C_2  and  C_4
REMARK    2  A    between atoms: C_8  and  O_9
REMARK    3  A    between atoms: O_9  and  C_10
REMARK    4  A    between atoms: C_10  and  C_11
REMARK    5  A    between atoms: C_13  and  C_14
REMARK    6  A    between atoms: C_23  and  N_24
REMARK                            x       y       z     vdW  Elec       q    Type
REMARK                         _______ _______ _______ _____ _____    ______ ____
ROOT
ATOM      1  C   UNL     1      44.564   4.754  11.687  0.00  0.00    +0.000 A 
ATOM      2  N   UNL     1      45.146   5.990  11.595  0.00  0.00    +0.000 NA
ATOM      3  C   UNL     1      46.148   6.264  12.467  0.00  0.00    +0.000 A 
ATOM      4  C   UNL     1      46.518   5.313  13.415  0.00  0.00    +0.000 A 
ATOM      5  N   UNL     1      45.942   4.089  13.524  0.00  0.00    +0.000 NA
ATOM      6  C   UNL     1      44.969   3.809  12.639  0.00  0.00    +0.000 A 
ENDROOT
BRANCH   3   7
ATOM      7  C   UNL     1      46.842   7.556  12.309  0.00  0.00    +0.000 A 
ATOM      8  C   UNL     1      48.243   7.642  12.196  0.00  0.00    +0.000 A 
ATOM      9  C   UNL     1      48.884   8.863  11.960  0.00  0.00    +0.000 A 
ATOM     10  C   UNL     1      48.136  10.030  11.842  0.00  0.00    +0.000 A 
ATOM     11  C   UNL     1      46.753   9.975  11.983  0.00  0.00    +0.000 A 
ATOM     12 CL   UNL     1      45.826  11.418  11.843  0.00  0.00    +0.000 Cl
ATOM     13  C   UNL     1      46.110   8.757  12.221  0.00  0.00    +0.000 A 
ENDBRANCH   3   7
BRANCH   6  14
ATOM     14  N   UNL     1      44.466   2.517  12.723  0.00  0.00    +0.000 N 
ATOM     15  H   UNL     1      44.767   2.138  13.619  0.00  0.00    +0.000 HD
ATOM     16  H   UNL     1      43.464   2.449  12.605  0.00  0.00    +0.000 HD
ENDBRANCH   6  14
BRANCH   1  17
ATOM     17  C   UNL     1      43.462   4.453  10.704  0.00  0.00    +0.000 C 
BRANCH  17  18
ATOM     18  O   UNL     1      43.691   3.190  10.076  0.00  0.00    +0.000 OA
BRANCH  18  23
ATOM     19  C   UNL     1      46.394   2.112   7.782  0.00  0.00    +0.000 A 
ATOM     20  C   UNL     1      46.699   3.370   7.283  0.00  0.00    +0.000 A 
ATOM     21  N   UNL     1      46.039   4.495   7.646  0.00  0.00    +0.000 NA
ATOM     22  C   UNL     1      45.054   4.351   8.566  0.00  0.00    +0.000 A 
ATOM     23  C   UNL     1      44.689   3.139   9.144  0.00  0.00    +0.000 A 
ATOM     24  C   UNL     1      45.377   1.997   8.736  0.00  0.00    +0.000 A 
BRANCH  19  26
ATOM     25  N   UNL     1      46.759  -0.289   7.721  0.00  0.00    +0.000 N 
ATOM     26  C   UNL     1      47.176   0.948   7.317  0.00  0.00    +0.000 C 
ATOM     27  O   UNL     1      48.142   1.080   6.578  0.00  0.00    +0.000 OA
ATOM     28  H   UNL     1      47.234  -1.077   7.293  0.00  0.00    +0.000 HD
ATOM     29  H   UNL     1      45.828  -0.459   8.076  0.00  0.00    +0.000 HD
ENDBRANCH  19  26
ENDBRANCH  18  23
ENDBRANCH  17  18
ENDBRANCH   1  17
TORSDOF 6
ENDMDL
MODEL 2
REMARK VINA RESULT:    -8.971      1.174      1.508
REMARK INTER + INTRA:         -12.459
REMARK INTER:                 -11.838
REMARK INTRA:                  -0.621
REMARK UNBOUND:                -0.603
REMARK  Name = 
REMARK  6 active torsions:
REMARK  status: ('A' for Active; 'I' for Inactive)
REMARK    1  A    between atoms: C_2  and  C_4
REMARK    2  A    between atoms: C_8  and  O_9
REMARK    3  A    between atoms: O_9  and  C_10
REMARK    4  A    between atoms: C_10  and  C_11
REMARK    5  A    between atoms: C_13  and  C_14
REMARK    6  A    between atoms: C_23  and  N_24
REMARK                            x       y       z     vdW  Elec       q    Type
REMARK                         _______ _______ _______ _____ _____    ______ ____
ROOT
ATOM      1  C   UNL     1      44.529   4.793  11.661  0.00  0.00    +0.000 A 
ATOM      2  N   UNL     1      45.193   5.984  11.536  0.00  0.00    +0.000 NA
ATOM      3  C   UNL     1      46.175   6.237  12.437  0.00  0.00    +0.000 A 
ATOM      4  C   UNL     1      46.443   5.313  13.445  0.00  0.00    +0.000 A 
ATOM      5  N   UNL     1      45.784   4.135  13.586  0.00  0.00    +0.000 NA
ATOM      6  C   UNL     1      44.833   3.873  12.673  0.00  0.00    +0.000 A 
ENDROOT
BRANCH   3   7
ATOM      7  C   UNL     1      46.958   7.473  12.250  0.00  0.00    +0.000 A 
ATOM      8  C   UNL     1      46.401   8.749  12.465  0.00  0.00    +0.000 A 
ATOM      9  C   UNL     1      47.176   9.910  12.370  0.00  0.00    +0.000 A 
ATOM     10  C   UNL     1      48.525   9.821  12.044  0.00  0.00    +0.000 A 
ATOM     11  C   UNL     1      49.089   8.574  11.793  0.00  0.00    +0.000 A 
ATOM     12 CL   UNL     1      50.757   8.462  11.384  0.00  0.00    +0.000 Cl
ATOM     13  C   UNL     1      48.318   7.413  11.887  0.00  0.00    +0.000 A 
ENDBRANCH   3   7
BRANCH   6  14
ATOM     14  N   UNL     1      44.243   2.622  12.797  0.00  0.00    +0.000 N 
ATOM     15  H   UNL     1      44.958   1.988  13.147  0.00  0.00    +0.000 HD
ATOM     16  H   UNL     1      43.412   2.604  13.373  0.00  0.00    +0.000 HD
ENDBRANCH   6  14
BRANCH   1  17
ATOM     17  C   UNL     1      43.451   4.513  10.645  0.00  0.00    +0.000 C 
BRANCH  17  18
ATOM     18  O   UNL     1      43.675   3.247  10.023  0.00  0.00    +0.000 OA
BRANCH  18  23
ATOM     19  C   UNL     1      46.404   2.134   7.776  0.00  0.00    +0.000 A 
ATOM     20  C   UNL     1      46.732   3.388   7.281  0.00  0.00    +0.000 A 
ATOM     21  N   UNL     1      46.080   4.522   7.631  0.00  0.00    +0.000 NA
ATOM     22  C   UNL     1      45.078   4.390   8.535  0.00  0.00    +0.000 A 
ATOM     23  C   UNL     1      44.689   3.183   9.108  0.00  0.00    +0.000 A 
ATOM     24  C   UNL     1      45.370   2.033   8.713  0.00  0.00    +0.000 A 
BRANCH  19  26
ATOM     25  N   UNL     1      46.737  -0.271   7.716  0.00  0.00    +0.000 N 
ATOM     26  C   UNL     1      47.180   0.961   7.325  0.00  0.00    +0.000 C 
ATOM     27  O   UNL     1      48.164   1.081   6.608  0.00  0.00    +0.000 OA
ATOM     28  H   UNL     1      47.211  -1.064   7.298  0.00  0.00    +0.000 HD
ATOM     29  H   UNL     1      45.796  -0.428   8.050  0.00  0.00    +0.000 HD
ENDBRANCH  19  26
ENDBRANCH  18  23
ENDBRANCH  17  18
ENDBRANCH   1  17
TORSDOF 6
ENDMDL
MODEL 3
REMARK VINA RESULT:    -8.661      1.579      2.142
REMARK INTER + INTRA:         -12.049
REMARK INTER:                 -11.461
REMARK INTRA:                  -0.588
REMARK UNBOUND:                -0.603
REMARK  Name = 
REMARK  6 active torsions:
REMARK  status: ('A' for Active; 'I' for Inactive)
REMARK    1  A    between atoms: C_2  and  C_4
REMARK    2  A    between atoms: C_8  and  O_9
REMARK    3  A    between atoms: O_9  and  C_10
REMARK    4  A    between atoms: C_10  and  C_11
REMARK    5  A    between atoms: C_13  and  C_14
REMARK    6  A    between atoms: C_23  and  N_24
REMARK                            x       y       z     vdW  Elec       q    Type
REMARK                         _______ _______ _______ _____ _____    ______ ____
ROOT
ATOM      1  C   UNL     1      44.644   4.782  11.514  0.00  0.00    +0.000 A 
ATOM      2  N   UNL     1      45.323   5.962  11.364  0.00  0.00    +0.000 NA
ATOM      3  C   UNL     1      46.302   6.226  12.264  0.00  0.00    +0.000 A 
ATOM      4  C   UNL     1      46.553   5.324  13.296  0.00  0.00    +0.000 A 
ATOM      5  N   UNL     1      45.881   4.157  13.462  0.00  0.00    +0.000 NA
ATOM      6  C   UNL     1      44.931   3.884  12.550  0.00  0.00    +0.000 A 
ENDROOT
BRANCH   3   7
ATOM      7  C   UNL     1      47.100   7.448  12.051  0.00  0.00    +0.000 A 
ATOM      8  C   UNL     1      46.558   8.735  12.237  0.00  0.00    +0.000 A 
ATOM      9  C   UNL     1      47.347   9.884  12.118  0.00  0.00    +0.000 A 
ATOM     10  C   UNL     1      48.696   9.772  11.798  0.00  0.00    +0.000 A 
ATOM     11  C   UNL     1      49.246   8.513  11.576  0.00  0.00    +0.000 A 
ATOM     12 CL   UNL     1      50.913   8.372  11.174  0.00  0.00    +0.000 Cl
ATOM     13  C   UNL     1      48.460   7.364  11.694  0.00  0.00    +0.000 A 
ENDBRANCH   3   7
BRANCH   6  14
ATOM     14  N   UNL     1      44.326   2.642  12.700  0.00  0.00    +0.000 N 
ATOM     15  H   UNL     1      44.273   2.222  11.775  0.00  0.00    +0.000 HD
ATOM     16  H   UNL     1      44.782   2.031  13.364  0.00  0.00    +0.000 HD
ENDBRANCH   6  14
BRANCH   1  17
ATOM     17  C   UNL     1      43.568   4.490  10.499  0.00  0.00    +0.000 C 
BRANCH  17  18
ATOM     18  O   UNL     1      44.091   4.615   9.175  0.00  0.00    +0.000 OA
BRANCH  18  23
ATOM     19  C   UNL     1      46.536   2.495   7.369  0.00  0.00    +0.000 A 
ATOM     20  C   UNL     1      46.166   1.289   7.946  0.00  0.00    +0.000 A 
ATOM     21  N   UNL     1      45.204   1.179   8.893  0.00  0.00    +0.000 NA
ATOM     22  C   UNL     1      44.572   2.324   9.250  0.00  0.00    +0.000 A 
ATOM     23  C   UNL     1      44.851   3.577   8.713  0.00  0.00    +0.000 A 
ATOM     24  C   UNL     1      45.859   3.658   7.754  0.00  0.00    +0.000 A 
BRANCH  19  26
ATOM     25  N   UNL     1      47.404   3.284   5.242  0.00  0.00    +0.000 N 
ATOM     26  C   UNL     1      47.602   2.503   6.346  0.00  0.00    +0.000 C 
ATOM     27  O   UNL     1      48.631   1.859   6.490  0.00  0.00    +0.000 OA
ATOM     28  H   UNL     1      48.196   3.369   4.614  0.00  0.00    +0.000 HD
ATOM     29  H   UNL     1      46.726   4.033   5.222  0.00  0.00    +0.000 HD
ENDBRANCH  19  26
ENDBRANCH  18  23
ENDBRANCH  17  18
ENDBRANCH   1  17
TORSDOF 6
ENDMDL
MODEL 4
REMARK VINA RESULT:    -8.637      3.794      6.945
REMARK INTER + INTRA:         -12.018
REMARK INTER:                 -11.474
REMARK INTRA:                  -0.543
REMARK UNBOUND:                -0.603
REMARK  Name = 
REMARK  6 active torsions:
REMARK  status: ('A' for Active; 'I' for Inactive)
REMARK    1  A    between atoms: C_2  and  C_4
REMARK    2  A    between atoms: C_8  and  O_9
REMARK    3  A    between atoms: O_9  and  C_10
REMARK    4  A    between atoms: C_10  and  C_11
REMARK    5  A    between atoms: C_13  and  C_14
REMARK    6  A    between atoms: C_23  and  N_24
REMARK                            x       y       z     vdW  Elec       q    Type
REMARK                         _______ _______ _______ _____ _____    ______ ____
ROOT
ATOM      1  C   UNL     1      44.492   5.585  11.382  0.00  0.00    +0.000 A 
ATOM      2  N   UNL     1      45.205   5.016  10.360  0.00  0.00    +0.000 NA
ATOM      3  C   UNL     1      44.801   3.793   9.935  0.00  0.00    +0.000 A 
ATOM      4  C   UNL     1      43.722   3.168  10.556  0.00  0.00    +0.000 A 
ATOM      5  N   UNL     1      43.015   3.716  11.576  0.00  0.00    +0.000 NA
ATOM      6  C   UNL     1      43.399   4.941  11.976  0.00  0.00    +0.000 A 
ENDROOT
BRANCH   3   7
ATOM      7  C   UNL     1      45.505   3.219   8.773  0.00  0.00    +0.000 A 
ATOM      8  C   UNL     1      46.023   4.025   7.740  0.00  0.00    +0.000 A 
ATOM      9  C   UNL     1      46.764   3.478   6.688  0.00  0.00    +0.000 A 
ATOM     10  C   UNL     1      46.995   2.107   6.638  0.00  0.00    +0.000 A 
ATOM     11  C   UNL     1      46.464   1.286   7.629  0.00  0.00    +0.000 A 
ATOM     12 CL   UNL     1      46.743  -0.410   7.566  0.00  0.00    +0.000 Cl
ATOM     13  C   UNL     1      45.722   1.830   8.680  0.00  0.00    +0.000 A 
ENDBRANCH   3   7
BRANCH   6  14
ATOM     14  N   UNL     1      42.597   5.506  12.960  0.00  0.00    +0.000 N 
ATOM     15  H   UNL     1      41.972   6.162  12.495  0.00  0.00    +0.000 HD
ATOM     16  H   UNL     1      42.089   4.837  13.521  0.00  0.00    +0.000 HD
ENDBRANCH   6  14
BRANCH   1  17
ATOM     17  C   UNL     1      44.939   6.951  11.837  0.00  0.00    +0.000 C 
BRANCH  17  18
ATOM     18  O   UNL     1      46.366   7.024  11.853  0.00  0.00    +0.000 OA
BRANCH  18  23
ATOM     19  C   UNL     1      47.546   5.155  14.828  0.00  0.00    +0.000 A 
ATOM     20  C   UNL     1      48.334   6.167  15.357  0.00  0.00    +0.000 A 
ATOM     21  N   UNL     1      48.498   7.372  14.761  0.00  0.00    +0.000 NA
ATOM     22  C   UNL     1      47.821   7.573  13.604  0.00  0.00    +0.000 A 
ATOM     23  C   UNL     1      46.989   6.633  13.005  0.00  0.00    +0.000 A 
ATOM     24  C   UNL     1      46.855   5.397  13.635  0.00  0.00    +0.000 A 
BRANCH  19  26
ATOM     25  N   UNL     1      46.851   3.909  16.793  0.00  0.00    +0.000 N 
ATOM     26  C   UNL     1      47.438   3.876  15.559  0.00  0.00    +0.000 C 
ATOM     27  O   UNL     1      47.831   2.825  15.073  0.00  0.00    +0.000 OA
ATOM     28  H   UNL     1      46.678   3.006  17.223  0.00  0.00    +0.000 HD
ATOM     29  H   UNL     1      46.268   4.676  17.097  0.00  0.00    +0.000 HD
ENDBRANCH  19  26
ENDBRANCH  18  23
ENDBRANCH  17  18
ENDBRANCH   1  17
TORSDOF 6
ENDMDL
MODEL 5
REMARK VINA RESULT:    -8.573      1.956      2.420
REMARK INTER + INTRA:         -11.932
REMARK INTER:                 -11.260
REMARK INTRA:                  -0.672
REMARK UNBOUND:                -0.603
REMARK  Name = 
REMARK  6 active torsions:
REMARK  status: ('A' for Active; 'I' for Inactive)
REMARK    1  A    between atoms: C_2  and  C_4
REMARK    2  A    between atoms: C_8  and  O_9
REMARK    3  A    between atoms: O_9  and  C_10
REMARK    4  A    between atoms: C_10  and  C_11
REMARK    5  A    between atoms: C_13  and  C_14
REMARK    6  A    between atoms: C_23  and  N_24
REMARK                            x       y       z     vdW  Elec       q    Type
REMARK                         _______ _______ _______ _____ _____    ______ ____
ROOT
ATOM      1  C   UNL     1      44.639   4.718  11.873  0.00  0.00    +0.000 A 
ATOM      2  N   UNL     1      45.932   5.109  12.100  0.00  0.00    +0.000 NA
ATOM      3  C   UNL     1      46.157   6.440  12.234  0.00  0.00    +0.000 A 
ATOM      4  C   UNL     1      45.097   7.335  12.109  0.00  0.00    +0.000 A 
ATOM      5  N   UNL     1      43.815   6.962  11.873  0.00  0.00    +0.000 NA
ATOM      6  C   UNL     1      43.589   5.640  11.771  0.00  0.00    +0.000 A 
ENDROOT
BRANCH   3   7
ATOM      7  C   UNL     1      47.530   6.859  12.574  0.00  0.00    +0.000 A 
ATOM      8  C   UNL     1      48.361   7.516  11.646  0.00  0.00    +0.000 A 
ATOM      9  C   UNL     1      49.629   7.987  12.006  0.00  0.00    +0.000 A 
ATOM     10  C   UNL     1      50.098   7.800  13.302  0.00  0.00    +0.000 A 
ATOM     11  C   UNL     1      49.308   7.124  14.227  0.00  0.00    +0.000 A 
ATOM     12 CL   UNL     1      49.890   6.887  15.829  0.00  0.00    +0.000 Cl
ATOM     13  C   UNL     1      48.043   6.651  13.870  0.00  0.00    +0.000 A 
ENDBRANCH   3   7
BRANCH   6  14
ATOM     14  N   UNL     1      42.253   5.292  11.619  0.00  0.00    +0.000 N 
ATOM     15  H   UNL     1      41.700   6.068  11.977  0.00  0.00    +0.000 HD
ATOM     16  H   UNL     1      41.989   5.047  10.674  0.00  0.00    +0.000 HD
ENDBRANCH   6  14
BRANCH   1  17
ATOM     17  C   UNL     1      44.396   3.236  11.742  0.00  0.00    +0.000 C 
BRANCH  17  18
ATOM     18  O   UNL     1      43.829   2.939  10.466  0.00  0.00    +0.000 OA
BRANCH  18  23
ATOM     19  C   UNL     1      46.281   2.049   7.834  0.00  0.00    +0.000 A 
ATOM     20  C   UNL     1      46.355   3.304   7.246  0.00  0.00    +0.000 A 
ATOM     21  N   UNL     1      45.623   4.365   7.661  0.00  0.00    +0.000 NA
ATOM     22  C   UNL     1      44.807   4.161   8.724  0.00  0.00    +0.000 A 
ATOM     23  C   UNL     1      44.680   2.950   9.397  0.00  0.00    +0.000 A 
ATOM     24  C   UNL     1      45.435   1.873   8.934  0.00  0.00    +0.000 A 
BRANCH  19  26
ATOM     25  N   UNL     1      46.800  -0.318   7.668  0.00  0.00    +0.000 N 
ATOM     26  C   UNL     1      47.123   0.959   7.301  0.00  0.00    +0.000 C 
ATOM     27  O   UNL     1      48.055   1.182   6.540  0.00  0.00    +0.000 OA
ATOM     28  H   UNL     1      47.313  -1.055   7.197  0.00  0.00    +0.000 HD
ATOM     29  H   UNL     1      45.894  -0.562   8.043  0.00  0.00    +0.000 HD
ENDBRANCH  19  26
ENDBRANCH  18  23
ENDBRANCH  17  18
ENDBRANCH   1  17
TORSDOF 6
ENDMDL
MODEL 6
REMARK VINA RESULT:    -8.557      3.786      7.021
REMARK INTER + INTRA:         -11.912
REMARK INTER:                 -10.973
REMARK INTRA:                  -0.939
REMARK UNBOUND:                -0.603
REMARK  Name = 
REMARK  6 active torsions:
REMARK  status: ('A' for Active; 'I' for Inactive)
REMARK    1  A    between atoms: C_2  and  C_4
REMARK    2  A    between atoms: C_8  and  O_9
REMARK    3  A    between atoms: O_9  and  C_10
REMARK    4  A    between atoms: C_10  and  C_11
REMARK    5  A    between atoms: C_13  and  C_14
REMARK    6  A    between atoms: C_23  and  N_24
REMARK                            x       y       z     vdW  Elec       q    Type
REMARK                         _______ _______ _______ _____ _____    ______ ____
ROOT
ATOM      1  C   UNL     1      44.325   5.678  11.268  0.00  0.00    +0.000 A 
ATOM      2  N   UNL     1      45.031   5.117  10.238  0.00  0.00    +0.000 NA
ATOM      3  C   UNL     1      44.795   3.808   9.971  0.00  0.00    +0.000 A 
ATOM      4  C   UNL     1      43.887   3.097  10.752  0.00  0.00    +0.000 A 
ATOM      5  N   UNL     1      43.189   3.638  11.783  0.00  0.00    +0.000 NA
ATOM      6  C   UNL     1      43.403   4.943  12.026  0.00  0.00    +0.000 A 
ENDROOT
BRANCH   3   7
ATOM      7  C   UNL     1      45.481   3.226   8.802  0.00  0.00    +0.000 A 
ATOM      8  C   UNL     1      45.982   4.024   7.756  0.00  0.00    +0.000 A 
ATOM      9  C   UNL     1      46.708   3.469   6.696  0.00  0.00    +0.000 A 
ATOM     10  C   UNL     1      46.939   2.098   6.654  0.00  0.00    +0.000 A 
ATOM     11  C   UNL     1      46.425   1.285   7.659  0.00  0.00    +0.000 A 
ATOM     12 CL   UNL     1      46.705  -0.412   7.606  0.00  0.00    +0.000 Cl
ATOM     13  C   UNL     1      45.699   1.836   8.718  0.00  0.00    +0.000 A 
ENDBRANCH   3   7
BRANCH   6  14
ATOM     14  N   UNL     1      42.607   5.482  13.028  0.00  0.00    +0.000 N 
ATOM     15  H   UNL     1      42.462   4.750  13.721  0.00  0.00    +0.000 HD
ATOM     16  H   UNL     1      42.974   6.326  13.447  0.00  0.00    +0.000 HD
ENDBRANCH   6  14
BRANCH   1  17
ATOM     17  C   UNL     1      44.583   7.136  11.547  0.00  0.00    +0.000 C 
BRANCH  17  18
ATOM     18  O   UNL     1      45.270   7.288  12.790  0.00  0.00    +0.000 OA
BRANCH  18  23
ATOM     19  C   UNL     1      48.782   8.272  12.132  0.00  0.00    +0.000 A 
ATOM     20  C   UNL     1      49.377   7.176  12.740  0.00  0.00    +0.000 A 
ATOM     21  N   UNL     1      48.677   6.195  13.357  0.00  0.00    +0.000 NA
ATOM     22  C   UNL     1      47.327   6.310  13.337  0.00  0.00    +0.000 A 
ATOM     23  C   UNL     1      46.634   7.355  12.734  0.00  0.00    +0.000 A 
ATOM     24  C   UNL     1      47.385   8.358  12.122  0.00  0.00    +0.000 A 
BRANCH  19  26
ATOM     25  N   UNL     1      50.956   8.967  11.300  0.00  0.00    +0.000 N 
ATOM     26  C   UNL     1      49.640   9.288  11.488  0.00  0.00    +0.000 C 
ATOM     27  O   UNL     1      49.191  10.362  11.113  0.00  0.00    +0.000 OA
ATOM     28  H   UNL     1      51.496   9.626  10.750  0.00  0.00    +0.000 HD
ATOM     29  H   UNL     1      51.291   8.014  11.325  0.00  0.00    +0.000 HD
ENDBRANCH  19  26
ENDBRANCH  18  23
ENDBRANCH  17  18
ENDBRANCH   1  17
TORSDOF 6
ENDMDL
MODEL 7
REMARK VINA RESULT:    -7.910      4.110      7.571
REMARK INTER + INTRA:         -11.057
REMARK INTER:                 -10.474
REMARK INTRA:                  -0.582
REMARK UNBOUND:                -0.603
REMARK  Name = 
REMARK  6 active torsions:
REMARK  status: ('A' for Active; 'I' for Inactive)
REMARK    1  A    between atoms: C_2  and  C_4
REMARK    2  A    between atoms: C_8  and  O_9
REMARK    3  A    between atoms: O_9  and  C_10
REMARK    4  A    between atoms: C_10  and  C_11
REMARK    5  A    between atoms: C_13  and  C_14
REMARK    6  A    between atoms: C_23  and  N_24
REMARK                            x       y       z     vdW  Elec       q    Type
REMARK                         _______ _______ _______ _____ _____    ______ ____
ROOT
ATOM      1  C   UNL     1      44.484   4.188  12.229  0.00  0.00    +0.000 A 
ATOM      2  N   UNL     1      45.151   3.586  11.195  0.00  0.00    +0.000 NA
ATOM      3  C   UNL     1      44.730   3.876   9.939  0.00  0.00    +0.000 A 
ATOM      4  C   UNL     1      43.645   4.731   9.755  0.00  0.00    +0.000 A 
ATOM      5  N   UNL     1      42.969   5.325  10.770  0.00  0.00    +0.000 NA
ATOM      6  C   UNL     1      43.408   5.059  12.013  0.00  0.00    +0.000 A 
ENDROOT
BRANCH   3   7
ATOM      7  C   UNL     1      45.505   3.307   8.821  0.00  0.00    +0.000 A 
ATOM      8  C   UNL     1      46.127   4.120   7.854  0.00  0.00    +0.000 A 
ATOM      9  C   UNL     1      46.933   3.574   6.848  0.00  0.00    +0.000 A 
ATOM     10  C   UNL     1      47.125   2.198   6.782  0.00  0.00    +0.000 A 
ATOM     11  C   UNL     1      46.493   1.372   7.706  0.00  0.00    +0.000 A 
ATOM     12 CL   UNL     1      46.724  -0.331   7.622  0.00  0.00    +0.000 Cl
ATOM     13  C   UNL     1      45.687   1.914   8.710  0.00  0.00    +0.000 A 
ENDBRANCH   3   7
BRANCH   6  14
ATOM     14  N   UNL     1      42.749   5.753  13.020  0.00  0.00    +0.000 N 
ATOM     15  H   UNL     1      43.184   6.671  13.083  0.00  0.00    +0.000 HD
ATOM     16  H   UNL     1      41.748   5.820  12.897  0.00  0.00    +0.000 HD
ENDBRANCH   6  14
BRANCH   1  17
ATOM     17  C   UNL     1      44.970   3.871  13.620  0.00  0.00    +0.000 C 
BRANCH  17  18
ATOM     18  O   UNL     1      46.375   3.616  13.606  0.00  0.00    +0.000 OA
BRANCH  18  23
ATOM     19  C   UNL     1      48.159   4.520  16.726  0.00  0.00    +0.000 A 
ATOM     20  C   UNL     1      48.619   5.757  16.300  0.00  0.00    +0.000 A 
ATOM     21  N   UNL     1      48.393   6.250  15.059  0.00  0.00    +0.000 NA
ATOM     22  C   UNL     1      47.651   5.479  14.227  0.00  0.00    +0.000 A 
ATOM     23  C   UNL     1      47.123   4.237  14.566  0.00  0.00    +0.000 A 
ATOM     24  C   UNL     1      47.389   3.751  15.845  0.00  0.00    +0.000 A 
BRANCH  19  26
ATOM     25  N   UNL     1      49.208   2.938  18.241  0.00  0.00    +0.000 N 
ATOM     26  C   UNL     1      48.465   4.077  18.101  0.00  0.00    +0.000 C 
ATOM     27  O   UNL     1      48.095   4.714  19.077  0.00  0.00    +0.000 OA
ATOM     28  H   UNL     1      49.509   2.720  19.185  0.00  0.00    +0.000 HD
ATOM     29  H   UNL     1      49.764   2.557  17.488  0.00  0.00    +0.000 HD
ENDBRANCH  19  26
ENDBRANCH  18  23
ENDBRANCH  17  18
ENDBRANCH   1  17
TORSDOF 6
ENDMDL
MODEL 8
REMARK VINA RESULT:    -7.591      2.102      2.938
REMARK INTER + INTRA:         -10.636
REMARK INTER:                  -9.760
REMARK INTRA:                  -0.875
REMARK UNBOUND:                -0.603
REMARK  Name = 
REMARK  6 active torsions:
REMARK  status: ('A' for Active; 'I' for Inactive)
REMARK    1  A    between atoms: C_2  and  C_4
REMARK    2  A    between atoms: C_8  and  O_9
REMARK    3  A    between atoms: O_9  and  C_10
REMARK    4  A    between atoms: C_10  and  C_11
REMARK    5  A    between atoms: C_13  and  C_14
REMARK    6  A    between atoms: C_23  and  N_24
REMARK                            x       y       z     vdW  Elec       q    Type
REMARK                         _______ _______ _______ _____ _____    ______ ____
ROOT
ATOM      1  C   UNL     1      45.850   6.212  12.832  0.00  0.00    +0.000 A 
ATOM      2  N   UNL     1      46.415   7.367  12.361  0.00  0.00    +0.000 NA
ATOM      3  C   UNL     1      47.744   7.533  12.577  0.00  0.00    +0.000 A 
ATOM      4  C   UNL     1      48.457   6.562  13.275  0.00  0.00    +0.000 A 
ATOM      5  N   UNL     1      47.907   5.419  13.757  0.00  0.00    +0.000 NA
ATOM      6  C   UNL     1      46.596   5.242  13.515  0.00  0.00    +0.000 A 
ENDROOT
BRANCH   3   7
ATOM      7  C   UNL     1      48.376   8.729  11.988  0.00  0.00    +0.000 A 
ATOM      8  C   UNL     1      47.672   9.937  11.815  0.00  0.00    +0.000 A 
ATOM      9  C   UNL     1      48.305  11.090  11.338  0.00  0.00    +0.000 A 
ATOM     10  C   UNL     1      49.657  11.057  11.012  0.00  0.00    +0.000 A 
ATOM     11  C   UNL     1      50.365   9.866  11.143  0.00  0.00    +0.000 A 
ATOM     12 CL   UNL     1      52.036   9.822  10.735  0.00  0.00    +0.000 Cl
ATOM     13  C   UNL     1      49.736   8.713  11.618  0.00  0.00    +0.000 A 
ENDBRANCH   3   7
BRANCH   6  14
ATOM     14  N   UNL     1      46.089   4.022  13.944  0.00  0.00    +0.000 N 
ATOM     15  H   UNL     1      46.501   3.832  14.855  0.00  0.00    +0.000 HD
ATOM     16  H   UNL     1      45.080   3.974  13.971  0.00  0.00    +0.000 HD
ENDBRANCH   6  14
BRANCH   1  17
ATOM     17  C   UNL     1      44.377   6.028  12.573  0.00  0.00    +0.000 C 
BRANCH  17  18
ATOM     18  O   UNL     1      44.117   6.034  11.169  0.00  0.00    +0.000 OA
BRANCH  18  23
ATOM     19  C   UNL     1      45.356   3.471   8.796  0.00  0.00    +0.000 A 
ATOM     20  C   UNL     1      44.622   2.409   9.303  0.00  0.00    +0.000 A 
ATOM     21  N   UNL     1      43.802   2.514  10.376  0.00  0.00    +0.000 NA
ATOM     22  C   UNL     1      43.697   3.742  10.940  0.00  0.00    +0.000 A 
ATOM     23  C   UNL     1      44.370   4.874  10.491  0.00  0.00    +0.000 A 
ATOM     24  C   UNL     1      45.219   4.728   9.396  0.00  0.00    +0.000 A 
BRANCH  19  26
ATOM     25  N   UNL     1      46.798   2.013   7.495  0.00  0.00    +0.000 N 
ATOM     26  C   UNL     1      46.223   3.246   7.621  0.00  0.00    +0.000 C 
ATOM     27  O   UNL     1      46.400   4.116   6.780  0.00  0.00    +0.000 OA
ATOM     28  H   UNL     1      47.289   1.842   6.624  0.00  0.00    +0.000 HD
ATOM     29  H   UNL     1      46.456   1.201   7.991  0.00  0.00    +0.000 HD
ENDBRANCH  19  26
ENDBRANCH  18  23
ENDBRANCH  17  18
ENDBRANCH   1  17
TORSDOF 6
ENDMDL
MODEL 9
REMARK VINA RESULT:    -7.488      2.860      4.223
REMARK INTER + INTRA:         -10.499
REMARK INTER:                 -10.040
REMARK INTRA:                  -0.458
REMARK UNBOUND:                -0.603
REMARK  Name = 
REMARK  6 active torsions:
REMARK  status: ('A' for Active; 'I' for Inactive)
REMARK    1  A    between atoms: C_2  and  C_4
REMARK    2  A    between atoms: C_8  and  O_9
REMARK    3  A    between atoms: O_9  and  C_10
REMARK    4  A    between atoms: C_10  and  C_11
REMARK    5  A    between atoms: C_13  and  C_14
REMARK    6  A    between atoms: C_23  and  N_24
REMARK                            x       y       z     vdW  Elec       q    Type
REMARK                         _______ _______ _______ _____ _____    ______ ____
ROOT
ATOM      1  C   UNL     1      45.273   4.907  12.354  0.00  0.00    +0.000 A 
ATOM      2  N   UNL     1      45.729   4.317  13.502  0.00  0.00    +0.000 NA
ATOM      3  C   UNL     1      46.843   4.848  14.066  0.00  0.00    +0.000 A 
ATOM      4  C   UNL     1      47.478   5.927  13.455  0.00  0.00    +0.000 A 
ATOM      5  N   UNL     1      47.043   6.513  12.312  0.00  0.00    +0.000 NA
ATOM      6  C   UNL     1      45.922   6.004  11.772  0.00  0.00    +0.000 A 
ENDROOT
BRANCH   3   7
ATOM      7  C   UNL     1      47.282   4.278  15.353  0.00  0.00    +0.000 A 
ATOM      8  C   UNL     1      47.837   2.987  15.448  0.00  0.00    +0.000 A 
ATOM      9  C   UNL     1      48.331   2.490  16.659  0.00  0.00    +0.000 A 
ATOM     10  C   UNL     1      48.271   3.272  17.807  0.00  0.00    +0.000 A 
ATOM     11  C   UNL     1      47.696   4.538  17.746  0.00  0.00    +0.000 A 
ATOM     12 CL   UNL     1      47.616   5.504  19.168  0.00  0.00    +0.000 Cl
ATOM     13  C   UNL     1      47.201   5.036  16.539  0.00  0.00    +0.000 A 
ENDBRANCH   3   7
BRANCH   6  14
ATOM     14  N   UNL     1      45.458   6.685  10.653  0.00  0.00    +0.000 N 
ATOM     15  H   UNL     1      44.913   7.476  10.990  0.00  0.00    +0.000 HD
ATOM     16  H   UNL     1      46.181   6.975  10.009  0.00  0.00    +0.000 HD
ENDBRANCH   6  14
BRANCH   1  17
ATOM     17  C   UNL     1      44.026   4.319  11.744  0.00  0.00    +0.000 C 
BRANCH  17  18
ATOM     18  O   UNL     1      44.302   3.026  11.205  0.00  0.00    +0.000 OA
BRANCH  18  23
ATOM     19  C   UNL     1      46.094   2.108   8.093  0.00  0.00    +0.000 A 
ATOM     20  C   UNL     1      45.704   3.211   7.347  0.00  0.00    +0.000 A 
ATOM     21  N   UNL     1      44.879   4.176   7.818  0.00  0.00    +0.000 NA
ATOM     22  C   UNL     1      44.453   4.037   9.098  0.00  0.00    +0.000 A 
ATOM     23  C   UNL     1      44.806   2.983   9.935  0.00  0.00    +0.000 A 
ATOM     24  C   UNL     1      45.643   1.998   9.413  0.00  0.00    +0.000 A 
BRANCH  19  26
ATOM     25  N   UNL     1      46.698  -0.208   7.678  0.00  0.00    +0.000 N 
ATOM     26  C   UNL     1      46.996   1.111   7.481  0.00  0.00    +0.000 C 
ATOM     27  O   UNL     1      47.956   1.449   6.801  0.00  0.00    +0.000 OA
ATOM     28  H   UNL     1      47.257  -0.870   7.150  0.00  0.00    +0.000 HD
ATOM     29  H   UNL     1      45.784  -0.520   7.973  0.00  0.00    +0.000 HD
ENDBRANCH  19  26
ENDBRANCH  18  23
ENDBRANCH  17  18
ENDBRANCH   1  17
TORSDOF 6
ENDMDL
