MODEL 1
REMARK VINA RESULT:    -7.927      0.000      0.000
REMARK INTER + INTRA:         -11.021
REMARK INTER:                 -10.476
REMARK INTRA:                  -0.545
REMARK UNBOUND:                -0.545
REMARK  Name = 
REMARK  7 active torsions:
REMARK  status: ('A' for Active; 'I' for Inactive)
REMARK    1  A    between atoms: C_1  and  O_2
REMARK    2  A    between atoms: O_2  and  C_3
REMARK    3  A    between atoms: N_5  and  C_6
REMARK    4  A    between atoms: C_6  and  C_7
REMARK    5  A    between atoms: C_10  and  C_11
REMARK    6  A    between atoms: C_11  and  C_12
REMARK    7  A    between atoms: C_12  and  N_13
REMARK                            x       y       z     vdW  Elec       q    Type
REMARK                         _______ _______ _______ _____ _____    ______ ____
ROOT
ATOM      1  C   UNL     1      44.389   4.868  11.368  0.00  0.00    +0.000 C 
ENDROOT
BRANCH   1   4
ATOM      2  C   UNL     1      46.938   4.126  13.843  0.00  0.00    +0.000 A 
ATOM      3  C   UNL     1      45.897   3.756  13.026  0.00  0.00    +0.000 A 
ATOM      4  N   UNL     1      45.484   4.865  12.333  0.00  0.00    +0.000 N 
ATOM      5  C   UNL     1      46.297   5.943  12.639  0.00  0.00    +0.000 A 
ATOM      6  C   UNL     1      46.301   7.262  12.151  0.00  0.00    +0.000 A 
ATOM      7  C   UNL     1      47.257   8.152  12.639  0.00  0.00    +0.000 A 
ATOM      8  C   UNL     1      48.193   7.744  13.579  0.00  0.00    +0.000 A 
ATOM      9  C   UNL     1      48.191   6.430  14.058  0.00  0.00    +0.000 A 
ATOM     10  C   UNL     1      47.227   5.503  13.598  0.00  0.00    +0.000 A 
BRANCH   2  12
ATOM     11  C   UNL     1      47.521   3.517  16.017  0.00  0.00    +0.000 C 
ATOM     12  O   UNL     1      47.530   3.201  14.633  0.00  0.00    +0.000 OA
ENDBRANCH   2  12
ENDBRANCH   1   4
BRANCH   1  13
ATOM     13  C   UNL     1      44.836   4.353  10.028  0.00  0.00    +0.000 A 
ATOM     14  C   UNL     1      44.525   3.066   9.585  0.00  0.00    +0.000 A 
ATOM     15  C   UNL     1      45.033   2.604   8.373  0.00  0.00    +0.000 A 
ATOM     16  C   UNL     1      45.841   3.448   7.617  0.00  0.00    +0.000 A 
ATOM     17  N   UNL     1      46.129   4.711   8.009  0.00  0.00    +0.000 NA
ATOM     18  C   UNL     1      45.628   5.132   9.193  0.00  0.00    +0.000 A 
BRANCH  16  19
ATOM     19  C   UNL     1      46.493   2.956   6.350  0.00  0.00    +0.000 C 
BRANCH  19  20
ATOM     20  C   UNL     1      47.480   1.824   6.654  0.00  0.00    +0.000 C 
BRANCH  20  21
ATOM     21  N   UNL     1      48.580   1.792   5.689  0.00  0.00    +0.000 NA
ATOM     22  H   UNL     1      48.213   1.772   4.741  0.00  0.00    +0.000 HD
ATOM     23  H   UNL     1      49.107   0.930   5.813  0.00  0.00    +0.000 HD
ENDBRANCH  20  21
ENDBRANCH  19  20
ENDBRANCH  16  19
ENDBRANCH   1  13
TORSDOF 6
ENDMDL
MODEL 2
REMARK VINA RESULT:    -7.603      0.928      1.208
REMARK INTER + INTRA:         -10.594
REMARK INTER:                 -10.217
REMARK INTRA:                  -0.376
REMARK UNBOUND:                -0.545
REMARK  Name = 
REMARK  7 active torsions:
REMARK  status: ('A' for Active; 'I' for Inactive)
REMARK    1  A    between atoms: C_1  and  O_2
REMARK    2  A    between atoms: O_2  and  C_3
REMARK    3  A    between atoms: N_5  and  C_6
REMARK    4  A    between atoms: C_6  and  C_7
REMARK    5  A    between atoms: C_10  and  C_11
REMARK    6  A    between atoms: C_11  and  C_12
REMARK    7  A    between atoms: C_12  and  N_13
REMARK                            x       y       z     vdW  Elec       q    Type
REMARK                         _______ _______ _______ _____ _____    ______ ____
ROOT
ATOM      1  C   UNL     1      44.106   4.347  11.596  0.00  0.00    +0.000 C 
ENDROOT
BRANCH   1   4
ATOM      2  C   UNL     1      46.835   5.377  13.755  0.00  0.00    +0.000 A 
ATOM      3  C   UNL     1      46.047   4.415  13.174  0.00  0.00    +0.000 A 
ATOM      4  N   UNL     1      45.125   5.043  12.376  0.00  0.00    +0.000 N 
ATOM      5  C   UNL     1      45.354   6.408  12.376  0.00  0.00    +0.000 A 
ATOM      6  C   UNL     1      44.712   7.450  11.681  0.00  0.00    +0.000 A 
ATOM      7  C   UNL     1      45.165   8.756  11.869  0.00  0.00    +0.000 A 
ATOM      8  C   UNL     1      46.232   9.022  12.715  0.00  0.00    +0.000 A 
ATOM      9  C   UNL     1      46.872   7.985  13.399  0.00  0.00    +0.000 A 
ATOM     10  C   UNL     1      46.432   6.649  13.246  0.00  0.00    +0.000 A 
BRANCH   2  12
ATOM     11  C   UNL     1      47.415   4.228  15.700  0.00  0.00    +0.000 C 
ATOM     12  O   UNL     1      47.834   5.009  14.592  0.00  0.00    +0.000 OA
ENDBRANCH   2  12
ENDBRANCH   1   4
BRANCH   1  13
ATOM     13  C   UNL     1      44.634   3.927  10.253  0.00  0.00    +0.000 A 
ATOM     14  C   UNL     1      44.604   2.597   9.827  0.00  0.00    +0.000 A 
ATOM     15  C   UNL     1      45.182   2.242   8.609  0.00  0.00    +0.000 A 
ATOM     16  C   UNL     1      45.774   3.233   7.833  0.00  0.00    +0.000 A 
ATOM     17  N   UNL     1      45.786   4.533   8.209  0.00  0.00    +0.000 NA
ATOM     18  C   UNL     1      45.224   4.849   9.398  0.00  0.00    +0.000 A 
BRANCH  16  19
ATOM     19  C   UNL     1      46.499   2.880   6.558  0.00  0.00    +0.000 C 
BRANCH  19  20
ATOM     20  C   UNL     1      47.897   2.334   6.865  0.00  0.00    +0.000 C 
BRANCH  20  21
ATOM     21  N   UNL     1      48.565   1.848   5.655  0.00  0.00    +0.000 NA
ATOM     22  H   UNL     1      49.412   1.342   5.903  0.00  0.00    +0.000 HD
ATOM     23  H   UNL     1      48.859   2.645   5.094  0.00  0.00    +0.000 HD
ENDBRANCH  20  21
ENDBRANCH  19  20
ENDBRANCH  16  19
ENDBRANCH   1  13
TORSDOF 6
ENDMDL
MODEL 3
REMARK VINA RESULT:    -7.397      1.806      3.059
REMARK INTER + INTRA:         -10.321
REMARK INTER:                  -9.597
REMARK INTRA:                  -0.724
REMARK UNBOUND:                -0.545
REMARK  Name = 
REMARK  7 active torsions:
REMARK  status: ('A' for Active; 'I' for Inactive)
REMARK    1  A    between atoms: C_1  and  O_2
REMARK    2  A    between atoms: O_2  and  C_3
REMARK    3  A    between atoms: N_5  and  C_6
REMARK    4  A    between atoms: C_6  and  C_7
REMARK    5  A    between atoms: C_10  and  C_11
REMARK    6  A    between atoms: C_11  and  C_12
REMARK    7  A    between atoms: C_12  and  N_13
REMARK                            x       y       z     vdW  Elec       q    Type
REMARK                         _______ _______ _______ _____ _____    ______ ____
ROOT
ATOM      1  C   UNL     1      43.779   4.778  10.309  0.00  0.00    +0.000 C 
ENDROOT
BRANCH   1   4
ATOM      2  C   UNL     1      45.673   7.321  12.077  0.00  0.00    +0.000 A 
ATOM      3  C   UNL     1      44.746   6.931  11.141  0.00  0.00    +0.000 A 
ATOM      4  N   UNL     1      44.659   5.563  11.170  0.00  0.00    +0.000 N 
ATOM      5  C   UNL     1      45.472   5.060  12.172  0.00  0.00    +0.000 A 
ATOM      6  C   UNL     1      45.678   3.742  12.616  0.00  0.00    +0.000 A 
ATOM      7  C   UNL     1      46.565   3.523  13.670  0.00  0.00    +0.000 A 
ATOM      8  C   UNL     1      47.222   4.584  14.277  0.00  0.00    +0.000 A 
ATOM      9  C   UNL     1      47.009   5.894  13.839  0.00  0.00    +0.000 A 
ATOM     10  C   UNL     1      46.130   6.154  12.762  0.00  0.00    +0.000 A 
BRANCH   2  12
ATOM     11  C   UNL     1      44.883   9.505  11.866  0.00  0.00    +0.000 C 
ATOM     12  O   UNL     1      45.939   8.637  12.247  0.00  0.00    +0.000 OA
ENDBRANCH   2  12
ENDBRANCH   1   4
BRANCH   1  13
ATOM     13  C   UNL     1      44.562   3.847   9.426  0.00  0.00    +0.000 A 
ATOM     14  C   UNL     1      44.486   2.459   9.559  0.00  0.00    +0.000 A 
ATOM     15  C   UNL     1      45.294   1.638   8.774  0.00  0.00    +0.000 A 
ATOM     16  C   UNL     1      46.161   2.226   7.859  0.00  0.00    +0.000 A 
ATOM     17  N   UNL     1      46.228   3.567   7.688  0.00  0.00    +0.000 NA
ATOM     18  C   UNL     1      45.438   4.341   8.467  0.00  0.00    +0.000 A 
BRANCH  16  19
ATOM     19  C   UNL     1      47.124   1.383   7.062  0.00  0.00    +0.000 C 
BRANCH  19  20
ATOM     20  C   UNL     1      48.307   2.227   6.575  0.00  0.00    +0.000 C 
BRANCH  20  21
ATOM     21  N   UNL     1      48.212   2.515   5.143  0.00  0.00    +0.000 NA
ATOM     22  H   UNL     1      47.249   2.725   4.891  0.00  0.00    +0.000 HD
ATOM     23  H   UNL     1      48.473   1.683   4.618  0.00  0.00    +0.000 HD
ENDBRANCH  20  21
ENDBRANCH  19  20
ENDBRANCH  16  19
ENDBRANCH   1  13
TORSDOF 6
ENDMDL
MODEL 4
REMARK VINA RESULT:    -6.760      2.173      3.272
REMARK INTER + INTRA:          -9.479
REMARK INTER:                  -9.137
REMARK INTRA:                  -0.342
REMARK UNBOUND:                -0.545
REMARK  Name = 
REMARK  7 active torsions:
REMARK  status: ('A' for Active; 'I' for Inactive)
REMARK    1  A    between atoms: C_1  and  O_2
REMARK    2  A    between atoms: O_2  and  C_3
REMARK    3  A    between atoms: N_5  and  C_6
REMARK    4  A    between atoms: C_6  and  C_7
REMARK    5  A    between atoms: C_10  and  C_11
REMARK    6  A    between atoms: C_11  and  C_12
REMARK    7  A    between atoms: C_12  and  N_13
REMARK                            x       y       z     vdW  Elec       q    Type
REMARK                         _______ _______ _______ _____ _____    ______ ____
ROOT
ATOM      1  C   UNL     1      44.748   4.899  11.624  0.00  0.00    +0.000 C 
ENDROOT
BRANCH   1   4
ATOM      2  C   UNL     1      44.984   8.518  11.767  0.00  0.00    +0.000 A 
ATOM      3  C   UNL     1      44.283   7.357  11.554  0.00  0.00    +0.000 A 
ATOM      4  N   UNL     1      45.133   6.301  11.762  0.00  0.00    +0.000 N 
ATOM      5  C   UNL     1      46.368   6.765  12.181  0.00  0.00    +0.000 A 
ATOM      6  C   UNL     1      47.532   6.072  12.560  0.00  0.00    +0.000 A 
ATOM      7  C   UNL     1      48.650   6.809  12.951  0.00  0.00    +0.000 A 
ATOM      8  C   UNL     1      48.612   8.196  12.978  0.00  0.00    +0.000 A 
ATOM      9  C   UNL     1      47.452   8.882  12.607  0.00  0.00    +0.000 A 
ATOM     10  C   UNL     1      46.303   8.170  12.189  0.00  0.00    +0.000 A 
BRANCH   2  12
ATOM     11  C   UNL     1      44.065  10.068  10.287  0.00  0.00    +0.000 C 
ATOM     12  O   UNL     1      44.361   9.712  11.628  0.00  0.00    +0.000 OA
ENDBRANCH   2  12
ENDBRANCH   1   4
BRANCH   1  13
ATOM     13  C   UNL     1      45.099   4.364  10.264  0.00  0.00    +0.000 A 
ATOM     14  C   UNL     1      44.887   3.029   9.914  0.00  0.00    +0.000 A 
ATOM     15  C   UNL     1      45.306   2.559   8.671  0.00  0.00    +0.000 A 
ATOM     16  C   UNL     1      45.925   3.442   7.793  0.00  0.00    +0.000 A 
ATOM     17  N   UNL     1      46.111   4.748   8.096  0.00  0.00    +0.000 NA
ATOM     18  C   UNL     1      45.701   5.177   9.312  0.00  0.00    +0.000 A 
BRANCH  16  19
ATOM     19  C   UNL     1      46.483   2.955   6.479  0.00  0.00    +0.000 C 
BRANCH  19  20
ATOM     20  C   UNL     1      47.475   1.809   6.706  0.00  0.00    +0.000 C 
BRANCH  20  21
ATOM     21  N   UNL     1      48.571   1.843   5.736  0.00  0.00    +0.000 NA
ATOM     22  H   UNL     1      49.283   2.504   6.037  0.00  0.00    +0.000 HD
ATOM     23  H   UNL     1      48.217   2.185   4.845  0.00  0.00    +0.000 HD
ENDBRANCH  20  21
ENDBRANCH  19  20
ENDBRANCH  16  19
ENDBRANCH   1  13
TORSDOF 6
ENDMDL
MODEL 5
REMARK VINA RESULT:    -5.967      1.801      2.587
REMARK INTER + INTRA:          -8.430
REMARK INTER:                  -7.727
REMARK INTRA:                  -0.703
REMARK UNBOUND:                -0.545
REMARK  Name = 
REMARK  7 active torsions:
REMARK  status: ('A' for Active; 'I' for Inactive)
REMARK    1  A    between atoms: C_1  and  O_2
REMARK    2  A    between atoms: O_2  and  C_3
REMARK    3  A    between atoms: N_5  and  C_6
REMARK    4  A    between atoms: C_6  and  C_7
REMARK    5  A    between atoms: C_10  and  C_11
REMARK    6  A    between atoms: C_11  and  C_12
REMARK    7  A    between atoms: C_12  and  N_13
REMARK                            x       y       z     vdW  Elec       q    Type
REMARK                         _______ _______ _______ _____ _____    ______ ____
ROOT
ATOM      1  C   UNL     1      44.287   5.888  12.246  0.00  0.00    +0.000 C 
ENDROOT
BRANCH   1   4
ATOM      2  C   UNL     1      47.428   7.377  13.290  0.00  0.00    +0.000 A 
ATOM      3  C   UNL     1      46.584   6.303  13.147  0.00  0.00    +0.000 A 
ATOM      4  N   UNL     1      45.427   6.745  12.556  0.00  0.00    +0.000 N 
ATOM      5  C   UNL     1      45.540   8.089  12.247  0.00  0.00    +0.000 A 
ATOM      6  C   UNL     1      44.649   8.962  11.597  0.00  0.00    +0.000 A 
ATOM      7  C   UNL     1      45.033  10.290  11.409  0.00  0.00    +0.000 A 
ATOM      8  C   UNL     1      46.272  10.739  11.843  0.00  0.00    +0.000 A 
ATOM      9  C   UNL     1      47.159   9.867  12.482  0.00  0.00    +0.000 A 
ATOM     10  C   UNL     1      46.798   8.518  12.705  0.00  0.00    +0.000 A 
BRANCH   2  12
ATOM     11  C   UNL     1      48.623   6.621  15.144  0.00  0.00    +0.000 C 
ATOM     12  O   UNL     1      48.648   7.200  13.849  0.00  0.00    +0.000 OA
ENDBRANCH   2  12
ENDBRANCH   1   4
BRANCH   1  13
ATOM     13  C   UNL     1      44.567   5.008  11.060  0.00  0.00    +0.000 A 
ATOM     14  C   UNL     1      44.133   3.682  11.001  0.00  0.00    +0.000 A 
ATOM     15  C   UNL     1      44.489   2.880   9.918  0.00  0.00    +0.000 A 
ATOM     16  C   UNL     1      45.270   3.427   8.905  0.00  0.00    +0.000 A 
ATOM     17  N   UNL     1      45.673   4.719   8.923  0.00  0.00    +0.000 NA
ATOM     18  C   UNL     1      45.319   5.473   9.988  0.00  0.00    +0.000 A 
BRANCH  16  19
ATOM     19  C   UNL     1      45.761   2.569   7.766  0.00  0.00    +0.000 C 
BRANCH  19  20
ATOM     20  C   UNL     1      47.073   3.124   7.199  0.00  0.00    +0.000 C 
BRANCH  20  21
ATOM     21  N   UNL     1      46.832   4.095   6.130  0.00  0.00    +0.000 NA
ATOM     22  H   UNL     1      46.373   4.921   6.505  0.00  0.00    +0.000 HD
ATOM     23  H   UNL     1      46.190   3.690   5.451  0.00  0.00    +0.000 HD
ENDBRANCH  20  21
ENDBRANCH  19  20
ENDBRANCH  16  19
ENDBRANCH   1  13
TORSDOF 6
ENDMDL
MODEL 6
REMARK VINA RESULT:    -5.736      3.881      6.488
REMARK INTER + INTRA:          -8.125
REMARK INTER:                  -7.762
REMARK INTRA:                  -0.364
REMARK UNBOUND:                -0.545
REMARK  Name = 
REMARK  7 active torsions:
REMARK  status: ('A' for Active; 'I' for Inactive)
REMARK    1  A    between atoms: C_1  and  O_2
REMARK    2  A    between atoms: O_2  and  C_3
REMARK    3  A    between atoms: N_5  and  C_6
REMARK    4  A    between atoms: C_6  and  C_7
REMARK    5  A    between atoms: C_10  and  C_11
REMARK    6  A    between atoms: C_11  and  C_12
REMARK    7  A    between atoms: C_12  and  N_13
REMARK                            x       y       z     vdW  Elec       q    Type
REMARK                         _______ _______ _______ _____ _____    ______ ____
ROOT
ATOM      1  C   UNL     1      47.750   6.532  12.540  0.00  0.00    +0.000 C 
ENDROOT
BRANCH   1   4
ATOM      2  C   UNL     1      44.311   6.689  11.390  0.00  0.00    +0.000 A 
ATOM      3  C   UNL     1      45.418   5.993  11.811  0.00  0.00    +0.000 A 
ATOM      4  N   UNL     1      46.416   6.896  12.075  0.00  0.00    +0.000 N 
ATOM      5  C   UNL     1      45.943   8.185  11.899  0.00  0.00    +0.000 A 
ATOM      6  C   UNL     1      46.567   9.430  12.094  0.00  0.00    +0.000 A 
ATOM      7  C   UNL     1      45.837  10.591  11.842  0.00  0.00    +0.000 A 
ATOM      8  C   UNL     1      44.517  10.521  11.416  0.00  0.00    +0.000 A 
ATOM      9  C   UNL     1      43.897   9.283  11.229  0.00  0.00    +0.000 A 
ATOM     10  C   UNL     1      44.610   8.083  11.460  0.00  0.00    +0.000 A 
BRANCH   2  12
ATOM     11  C   UNL     1      42.582   5.323  12.152  0.00  0.00    +0.000 C 
ATOM     12  O   UNL     1      43.181   6.018  11.069  0.00  0.00    +0.000 OA
ENDBRANCH   2  12
ENDBRANCH   1   4
BRANCH   1  13
ATOM     13  C   UNL     1      47.691   5.756  13.826  0.00  0.00    +0.000 A 
ATOM     14  C   UNL     1      48.223   6.253  15.018  0.00  0.00    +0.000 A 
ATOM     15  C   UNL     1      48.220   5.463  16.166  0.00  0.00    +0.000 A 
ATOM     16  C   UNL     1      47.672   4.186  16.101  0.00  0.00    +0.000 A 
ATOM     17  N   UNL     1      47.120   3.695  14.966  0.00  0.00    +0.000 NA
ATOM     18  C   UNL     1      47.143   4.480  13.865  0.00  0.00    +0.000 A 
BRANCH  16  19
ATOM     19  C   UNL     1      47.737   3.260  17.290  0.00  0.00    +0.000 C 
BRANCH  19  20
ATOM     20  C   UNL     1      49.110   2.583  17.372  0.00  0.00    +0.000 C 
BRANCH  20  21
ATOM     21  N   UNL     1      49.408   1.817  16.161  0.00  0.00    +0.000 NA
ATOM     22  H   UNL     1      49.502   0.829  16.386  0.00  0.00    +0.000 HD
ATOM     23  H   UNL     1      50.309   2.116  15.791  0.00  0.00    +0.000 HD
ENDBRANCH  20  21
ENDBRANCH  19  20
ENDBRANCH  16  19
ENDBRANCH   1  13
TORSDOF 6
ENDMDL
MODEL 7
REMARK VINA RESULT:    -5.588      3.185      6.163
REMARK INTER + INTRA:          -7.930
REMARK INTER:                  -7.116
REMARK INTRA:                  -0.814
REMARK UNBOUND:                -0.545
REMARK  Name = 
REMARK  7 active torsions:
REMARK  status: ('A' for Active; 'I' for Inactive)
REMARK    1  A    between atoms: C_1  and  O_2
REMARK    2  A    between atoms: O_2  and  C_3
REMARK    3  A    between atoms: N_5  and  C_6
REMARK    4  A    between atoms: C_6  and  C_7
REMARK    5  A    between atoms: C_10  and  C_11
REMARK    6  A    between atoms: C_11  and  C_12
REMARK    7  A    between atoms: C_12  and  N_13
REMARK                            x       y       z     vdW  Elec       q    Type
REMARK                         _______ _______ _______ _____ _____    ______ ____
ROOT
ATOM      1  C   UNL     1      46.512   7.688  12.697  0.00  0.00    +0.000 C 
ENDROOT
BRANCH   1   4
ATOM      2  C   UNL     1      46.702   4.177  13.598  0.00  0.00    +0.000 A 
ATOM      3  C   UNL     1      47.087   5.488  13.741  0.00  0.00    +0.000 A 
ATOM      4  N   UNL     1      46.373   6.243  12.846  0.00  0.00    +0.000 N 
ATOM      5  C   UNL     1      45.470   5.441  12.169  0.00  0.00    +0.000 A 
ATOM      6  C   UNL     1      44.498   5.761  11.203  0.00  0.00    +0.000 A 
ATOM      7  C   UNL     1      43.707   4.735  10.687  0.00  0.00    +0.000 A 
ATOM      8  C   UNL     1      43.866   3.428  11.123  0.00  0.00    +0.000 A 
ATOM      9  C   UNL     1      44.827   3.114  12.088  0.00  0.00    +0.000 A 
ATOM     10  C   UNL     1      45.660   4.124  12.623  0.00  0.00    +0.000 A 
BRANCH   2  12
ATOM     11  C   UNL     1      47.500   3.629  15.719  0.00  0.00    +0.000 C 
ATOM     12  O   UNL     1      47.264   3.226  14.379  0.00  0.00    +0.000 OA
ENDBRANCH   2  12
ENDBRANCH   1   4
BRANCH   1  13
ATOM     13  C   UNL     1      47.948   8.085  12.498  0.00  0.00    +0.000 A 
ATOM     14  C   UNL     1      48.724   7.566  11.459  0.00  0.00    +0.000 A 
ATOM     15  C   UNL     1      50.074   7.898  11.364  0.00  0.00    +0.000 A 
ATOM     16  C   UNL     1      50.623   8.756  12.312  0.00  0.00    +0.000 A 
ATOM     17  N   UNL     1      49.883   9.298  13.308  0.00  0.00    +0.000 NA
ATOM     18  C   UNL     1      48.577   8.954  13.381  0.00  0.00    +0.000 A 
BRANCH  16  19
ATOM     19  C   UNL     1      52.099   9.063  12.308  0.00  0.00    +0.000 C 
BRANCH  19  20
ATOM     20  C   UNL     1      52.692   8.885  13.709  0.00  0.00    +0.000 C 
BRANCH  20  21
ATOM     21  N   UNL     1      52.166   7.690  14.371  0.00  0.00    +0.000 NA
ATOM     22  H   UNL     1      51.608   7.145  13.718  0.00  0.00    +0.000 HD
ATOM     23  H   UNL     1      51.538   7.974  15.121  0.00  0.00    +0.000 HD
ENDBRANCH  20  21
ENDBRANCH  19  20
ENDBRANCH  16  19
ENDBRANCH   1  13
TORSDOF 6
ENDMDL
MODEL 8
REMARK VINA RESULT:    -5.425      2.542      6.220
REMARK INTER + INTRA:          -7.715
REMARK INTER:                  -6.981
REMARK INTRA:                  -0.734
REMARK UNBOUND:                -0.545
REMARK  Name = 
REMARK  7 active torsions:
REMARK  status: ('A' for Active; 'I' for Inactive)
REMARK    1  A    between atoms: C_1  and  O_2
REMARK    2  A    between atoms: O_2  and  C_3
REMARK    3  A    between atoms: N_5  and  C_6
REMARK    4  A    between atoms: C_6  and  C_7
REMARK    5  A    between atoms: C_10  and  C_11
REMARK    6  A    between atoms: C_11  and  C_12
REMARK    7  A    between atoms: C_12  and  N_13
REMARK                            x       y       z     vdW  Elec       q    Type
REMARK                         _______ _______ _______ _____ _____    ______ ____
ROOT
ATOM      1  C   UNL     1      45.050   6.905  11.176  0.00  0.00    +0.000 C 
ENDROOT
BRANCH   1   4
ATOM      2  C   UNL     1      43.642   3.569  10.924  0.00  0.00    +0.000 A 
ATOM      3  C   UNL     1      43.733   4.804  11.517  0.00  0.00    +0.000 A 
ATOM      4  N   UNL     1      44.671   5.537  10.835  0.00  0.00    +0.000 N 
ATOM      5  C   UNL     1      45.141   4.811   9.754  0.00  0.00    +0.000 A 
ATOM      6  C   UNL     1      46.060   5.152   8.746  0.00  0.00    +0.000 A 
ATOM      7  C   UNL     1      46.347   4.211   7.757  0.00  0.00    +0.000 A 
ATOM      8  C   UNL     1      45.731   2.967   7.761  0.00  0.00    +0.000 A 
ATOM      9  C   UNL     1      44.812   2.634   8.760  0.00  0.00    +0.000 A 
ATOM     10  C   UNL     1      44.507   3.556   9.789  0.00  0.00    +0.000 A 
BRANCH   2  12
ATOM     11  C   UNL     1      43.377   1.619  12.176  0.00  0.00    +0.000 C 
ATOM     12  O   UNL     1      42.773   2.654  11.414  0.00  0.00    +0.000 OA
ENDBRANCH   2  12
ENDBRANCH   1   4
BRANCH   1  13
ATOM     13  C   UNL     1      46.266   6.935  12.059  0.00  0.00    +0.000 A 
ATOM     14  C   UNL     1      46.682   5.818  12.788  0.00  0.00    +0.000 A 
ATOM     15  C   UNL     1      47.766   5.918  13.658  0.00  0.00    +0.000 A 
ATOM     16  C   UNL     1      48.422   7.139  13.776  0.00  0.00    +0.000 A 
ATOM     17  N   UNL     1      48.059   8.226  13.055  0.00  0.00    +0.000 NA
ATOM     18  C   UNL     1      47.000   8.103  12.223  0.00  0.00    +0.000 A 
BRANCH  16  19
ATOM     19  C   UNL     1      49.535   7.319  14.778  0.00  0.00    +0.000 C 
BRANCH  19  20
ATOM     20  C   UNL     1      50.686   8.126  14.168  0.00  0.00    +0.000 C 
BRANCH  20  21
ATOM     21  N   UNL     1      50.969   7.709  12.793  0.00  0.00    +0.000 NA
ATOM     22  H   UNL     1      51.953   7.854  12.580  0.00  0.00    +0.000 HD
ATOM     23  H   UNL     1      50.445   8.300  12.151  0.00  0.00    +0.000 HD
ENDBRANCH  20  21
ENDBRANCH  19  20
ENDBRANCH  16  19
ENDBRANCH   1  13
TORSDOF 6
ENDMDL
MODEL 9
REMARK VINA RESULT:    -5.423      3.291      4.535
REMARK INTER + INTRA:          -7.712
REMARK INTER:                  -6.798
REMARK INTRA:                  -0.914
REMARK UNBOUND:                -0.545
REMARK  Name = 
REMARK  7 active torsions:
REMARK  status: ('A' for Active; 'I' for Inactive)
REMARK    1  A    between atoms: C_1  and  O_2
REMARK    2  A    between atoms: O_2  and  C_3
REMARK    3  A    between atoms: N_5  and  C_6
REMARK    4  A    between atoms: C_6  and  C_7
REMARK    5  A    between atoms: C_10  and  C_11
REMARK    6  A    between atoms: C_11  and  C_12
REMARK    7  A    between atoms: C_12  and  N_13
REMARK                            x       y       z     vdW  Elec       q    Type
REMARK                         _______ _______ _______ _____ _____    ______ ____
ROOT
ATOM      1  C   UNL     1      46.525   8.345  13.094  0.00  0.00    +0.000 C 
ENDROOT
BRANCH   1   4
ATOM      2  C   UNL     1      49.681   7.334  14.575  0.00  0.00    +0.000 A 
ATOM      3  C   UNL     1      48.310   7.301  14.504  0.00  0.00    +0.000 A 
ATOM      4  N   UNL     1      47.916   8.118  13.475  0.00  0.00    +0.000 N 
ATOM      5  C   UNL     1      49.028   8.629  12.827  0.00  0.00    +0.000 A 
ATOM      6  C   UNL     1      49.134   9.462  11.699  0.00  0.00    +0.000 A 
ATOM      7  C   UNL     1      50.405   9.821  11.251  0.00  0.00    +0.000 A 
ATOM      8  C   UNL     1      51.542   9.357  11.896  0.00  0.00    +0.000 A 
ATOM      9  C   UNL     1      51.434   8.523  13.013  0.00  0.00    +0.000 A 
ATOM     10  C   UNL     1      50.162   8.151  13.507  0.00  0.00    +0.000 A 
BRANCH   2  12
ATOM     11  C   UNL     1      49.487   6.132  16.564  0.00  0.00    +0.000 C 
ATOM     12  O   UNL     1      50.321   6.599  15.515  0.00  0.00    +0.000 OA
ENDBRANCH   2  12
ENDBRANCH   1   4
BRANCH   1  13
ATOM     13  C   UNL     1      45.940   7.141  12.410  0.00  0.00    +0.000 A 
ATOM     14  C   UNL     1      46.414   6.683  11.179  0.00  0.00    +0.000 A 
ATOM     15  C   UNL     1      45.785   5.615  10.543  0.00  0.00    +0.000 A 
ATOM     16  C   UNL     1      44.691   5.015  11.160  0.00  0.00    +0.000 A 
ATOM     17  N   UNL     1      44.234   5.419  12.369  0.00  0.00    +0.000 NA
ATOM     18  C   UNL     1      44.859   6.463  12.961  0.00  0.00    +0.000 A 
BRANCH  16  19
ATOM     19  C   UNL     1      43.919   3.923  10.464  0.00  0.00    +0.000 C 
BRANCH  19  20
ATOM     20  C   UNL     1      43.358   2.924  11.482  0.00  0.00    +0.000 C 
BRANCH  20  21
ATOM     21  N   UNL     1      44.381   2.495  12.437  0.00  0.00    +0.000 NA
ATOM     22  H   UNL     1      44.547   1.495  12.348  0.00  0.00    +0.000 HD
ATOM     23  H   UNL     1      44.038   2.647  13.384  0.00  0.00    +0.000 HD
ENDBRANCH  20  21
ENDBRANCH  19  20
ENDBRANCH  16  19
ENDBRANCH   1  13
TORSDOF 6
ENDMDL
