MODEL 1
REMARK VINA RESULT:    -7.808      0.000      0.000
REMARK INTER + INTRA:         -10.391
REMARK INTER:                  -9.862
REMARK INTRA:                  -0.529
REMARK UNBOUND:                -0.529
REMARK  Name = 
REMARK  5 active torsions:
REMARK  status: ('A' for Active; 'I' for Inactive)
REMARK    1  A    between atoms: N_1  and  C_2
REMARK    2  A    between atoms: C_2  and  C_3
REMARK    3  A    between atoms: C_3  and  C_4
REMARK    4  A    between atoms: C_7  and  C_8
REMARK    5  A    between atoms: C_8  and  C_9
REMARK                            x       y       z     vdW  Elec       q    Type
REMARK                         _______ _______ _______ _____ _____    ______ ____
ROOT
ATOM      1  C   UNL     1      46.139   2.267   7.768  0.00  0.00    +0.000 A 
ATOM      2  C   UNL     1      45.351   1.675   8.763  0.00  0.00    +0.000 A 
ATOM      3  C   UNL     1      44.581   2.462   9.627  0.00  0.00    +0.000 A 
ATOM      4  C   UNL     1      44.580   3.859   9.510  0.00  0.00    +0.000 A 
ATOM      5  C   UNL     1      45.360   4.447   8.503  0.00  0.00    +0.000 A 
ATOM      6  C   UNL     1      46.128   3.661   7.640  0.00  0.00    +0.000 A 
ENDROOT
BRANCH   1   7
ATOM      7  C   UNL     1      46.981   1.423   6.841  0.00  0.00    +0.000 C 
BRANCH   7   8
ATOM      8  C   UNL     1      48.279   2.127   6.432  0.00  0.00    +0.000 C 
BRANCH   8   9
ATOM      9  N   UNL     1      48.271   2.464   5.008  0.00  0.00    +0.000 NA
ATOM     10  H   UNL     1      48.323   3.476   4.904  0.00  0.00    +0.000 HD
ATOM     11  H   UNL     1      47.385   2.180   4.593  0.00  0.00    +0.000 HD
ENDBRANCH   8   9
ENDBRANCH   7   8
ENDBRANCH   1   7
BRANCH   4  12
ATOM     12  C   UNL     1      43.762   4.724  10.441  0.00  0.00    +0.000 C 
BRANCH  12  13
ATOM     13  C   UNL     1      44.463   4.714  11.754  0.00  0.00    +0.000 A 
ATOM     14  C   UNL     1      44.094   4.027  12.897  0.00  0.00    +0.000 A 
ATOM     15  O   UNL     1      44.976   4.240  13.911  0.00  0.00    +0.000 OA
ATOM     16  C   UNL     1      45.929   5.078  13.426  0.00  0.00    +0.000 A 
ATOM     17  C   UNL     1      47.049   5.542  14.103  0.00  0.00    +0.000 A 
ATOM     18  C   UNL     1      47.860   6.383  13.353  0.00  0.00    +0.000 A 
ATOM     19  F   UNL     1      48.986   6.870  13.891  0.00  0.00    +0.000 F 
ATOM     20  C   UNL     1      47.515   6.715  12.047  0.00  0.00    +0.000 A 
ATOM     21  N   UNL     1      46.417   6.271  11.381  0.00  0.00    +0.000 NA
ATOM     22  C   UNL     1      45.642   5.423  12.110  0.00  0.00    +0.000 A 
ENDBRANCH  12  13
ENDBRANCH   4  12
TORSDOF 5
ENDMDL
MODEL 2
REMARK VINA RESULT:    -7.581      1.436      2.080
REMARK INTER + INTRA:         -10.105
REMARK INTER:                  -9.600
REMARK INTRA:                  -0.505
REMARK UNBOUND:                -0.529
REMARK  Name = 
REMARK  5 active torsions:
REMARK  status: ('A' for Active; 'I' for Inactive)
REMARK    1  A    between atoms: N_1  and  C_2
REMARK    2  A    between atoms: C_2  and  C_3
REMARK    3  A    between atoms: C_3  and  C_4
REMARK    4  A    between atoms: C_7  and  C_8
REMARK    5  A    between atoms: C_8  and  C_9
REMARK                            x       y       z     vdW  Elec       q    Type
REMARK                         _______ _______ _______ _____ _____    ______ ____
ROOT
ATOM      1  C   UNL     1      46.200   2.280   7.851  0.00  0.00    +0.000 A 
ATOM      2  C   UNL     1      46.261   3.677   7.766  0.00  0.00    +0.000 A 
ATOM      3  C   UNL     1      45.463   4.478   8.591  0.00  0.00    +0.000 A 
ATOM      4  C   UNL     1      44.590   3.897   9.522  0.00  0.00    +0.000 A 
ATOM      5  C   UNL     1      44.542   2.498   9.613  0.00  0.00    +0.000 A 
ATOM      6  C   UNL     1      45.340   1.699   8.790  0.00  0.00    +0.000 A 
ENDROOT
BRANCH   1   7
ATOM      7  C   UNL     1      47.050   1.411   6.955  0.00  0.00    +0.000 C 
BRANCH   7   8
ATOM      8  C   UNL     1      48.315   2.131   6.476  0.00  0.00    +0.000 C 
BRANCH   8   9
ATOM      9  N   UNL     1      48.299   2.322   5.025  0.00  0.00    +0.000 NA
ATOM     10  H   UNL     1      47.357   2.151   4.676  0.00  0.00    +0.000 HD
ATOM     11  H   UNL     1      48.897   1.626   4.582  0.00  0.00    +0.000 HD
ENDBRANCH   8   9
ENDBRANCH   7   8
ENDBRANCH   1   7
BRANCH   4  12
ATOM     12  C   UNL     1      43.714   4.748  10.414  0.00  0.00    +0.000 C 
BRANCH  12  13
ATOM     13  C   UNL     1      44.631   5.525  11.290  0.00  0.00    +0.000 A 
ATOM     14  C   UNL     1      44.878   6.886  11.253  0.00  0.00    +0.000 A 
ATOM     15  O   UNL     1      45.768   7.258  12.212  0.00  0.00    +0.000 OA
ATOM     16  C   UNL     1      46.111   6.126  12.881  0.00  0.00    +0.000 A 
ATOM     17  C   UNL     1      46.972   6.033  13.966  0.00  0.00    +0.000 A 
ATOM     18  C   UNL     1      47.130   4.744  14.459  0.00  0.00    +0.000 A 
ATOM     19  F   UNL     1      47.915   4.533  15.524  0.00  0.00    +0.000 F 
ATOM     20  C   UNL     1      46.474   3.674  13.858  0.00  0.00    +0.000 A 
ATOM     21  N   UNL     1      45.636   3.758  12.792  0.00  0.00    +0.000 NA
ATOM     22  C   UNL     1      45.460   5.026  12.333  0.00  0.00    +0.000 A 
ENDBRANCH  12  13
ENDBRANCH   4  12
TORSDOF 5
ENDMDL
MODEL 3
REMARK VINA RESULT:    -7.570      1.989      2.388
REMARK INTER + INTRA:         -10.091
REMARK INTER:                  -9.584
REMARK INTRA:                  -0.506
REMARK UNBOUND:                -0.529
REMARK  Name = 
REMARK  5 active torsions:
REMARK  status: ('A' for Active; 'I' for Inactive)
REMARK    1  A    between atoms: N_1  and  C_2
REMARK    2  A    between atoms: C_2  and  C_3
REMARK    3  A    between atoms: C_3  and  C_4
REMARK    4  A    between atoms: C_7  and  C_8
REMARK    5  A    between atoms: C_8  and  C_9
REMARK                            x       y       z     vdW  Elec       q    Type
REMARK                         _______ _______ _______ _____ _____    ______ ____
ROOT
ATOM      1  C   UNL     1      45.914   2.429   8.078  0.00  0.00    +0.000 A 
ATOM      2  C   UNL     1      45.936   3.828   8.025  0.00  0.00    +0.000 A 
ATOM      3  C   UNL     1      45.151   4.588   8.900  0.00  0.00    +0.000 A 
ATOM      4  C   UNL     1      44.330   3.962   9.849  0.00  0.00    +0.000 A 
ATOM      5  C   UNL     1      44.321   2.561   9.907  0.00  0.00    +0.000 A 
ATOM      6  C   UNL     1      45.106   1.803   9.034  0.00  0.00    +0.000 A 
ENDROOT
BRANCH   1   7
ATOM      7  C   UNL     1      46.750   1.604   7.128  0.00  0.00    +0.000 C 
BRANCH   7   8
ATOM      8  C   UNL     1      48.013   2.344   6.673  0.00  0.00    +0.000 C 
BRANCH   8   9
ATOM      9  N   UNL     1      48.451   1.880   5.355  0.00  0.00    +0.000 NA
ATOM     10  H   UNL     1      49.255   2.431   5.058  0.00  0.00    +0.000 HD
ATOM     11  H   UNL     1      47.717   2.054   4.669  0.00  0.00    +0.000 HD
ENDBRANCH   8   9
ENDBRANCH   7   8
ENDBRANCH   1   7
BRANCH   4  12
ATOM     12  C   UNL     1      43.469   4.768  10.795  0.00  0.00    +0.000 C 
BRANCH  12  13
ATOM     13  C   UNL     1      44.399   5.498  11.697  0.00  0.00    +0.000 A 
ATOM     14  C   UNL     1      45.215   4.960  12.676  0.00  0.00    +0.000 A 
ATOM     15  O   UNL     1      45.944   5.923  13.303  0.00  0.00    +0.000 OA
ATOM     16  C   UNL     1      45.596   7.105  12.730  0.00  0.00    +0.000 A 
ATOM     17  C   UNL     1      46.113   8.357  13.032  0.00  0.00    +0.000 A 
ATOM     18  C   UNL     1      45.578   9.392  12.277  0.00  0.00    +0.000 A 
ATOM     19  F   UNL     1      46.021  10.643  12.459  0.00  0.00    +0.000 F 
ATOM     20  C   UNL     1      44.591   9.136  11.330  0.00  0.00    +0.000 A 
ATOM     21  N   UNL     1      44.076   7.915  11.034  0.00  0.00    +0.000 NA
ATOM     22  C   UNL     1      44.625   6.901  11.755  0.00  0.00    +0.000 A 
ENDBRANCH  12  13
ENDBRANCH   4  12
TORSDOF 5
ENDMDL
MODEL 4
REMARK VINA RESULT:    -7.102      2.976      6.504
REMARK INTER + INTRA:          -9.499
REMARK INTER:                  -8.990
REMARK INTRA:                  -0.509
REMARK UNBOUND:                -0.529
REMARK  Name = 
REMARK  5 active torsions:
REMARK  status: ('A' for Active; 'I' for Inactive)
REMARK    1  A    between atoms: N_1  and  C_2
REMARK    2  A    between atoms: C_2  and  C_3
REMARK    3  A    between atoms: C_3  and  C_4
REMARK    4  A    between atoms: C_7  and  C_8
REMARK    5  A    between atoms: C_8  and  C_9
REMARK                            x       y       z     vdW  Elec       q    Type
REMARK                         _______ _______ _______ _____ _____    ______ ____
ROOT
ATOM      1  C   UNL     1      46.789   6.079  12.938  0.00  0.00    +0.000 A 
ATOM      2  C   UNL     1      46.812   6.623  11.648  0.00  0.00    +0.000 A 
ATOM      3  C   UNL     1      45.944   6.151  10.657  0.00  0.00    +0.000 A 
ATOM      4  C   UNL     1      45.030   5.126  10.940  0.00  0.00    +0.000 A 
ATOM      5  C   UNL     1      45.001   4.592  12.236  0.00  0.00    +0.000 A 
ATOM      6  C   UNL     1      45.867   5.065  13.225  0.00  0.00    +0.000 A 
ENDROOT
BRANCH   1   7
ATOM      7  C   UNL     1      47.733   6.577  14.007  0.00  0.00    +0.000 C 
BRANCH   7   8
ATOM      8  C   UNL     1      48.034   8.073  13.866  0.00  0.00    +0.000 C 
BRANCH   8   9
ATOM      9  N   UNL     1      47.354   8.849  14.904  0.00  0.00    +0.000 NA
ATOM     10  H   UNL     1      46.999   8.215  15.617  0.00  0.00    +0.000 HD
ATOM     11  H   UNL     1      46.539   9.314  14.506  0.00  0.00    +0.000 HD
ENDBRANCH   8   9
ENDBRANCH   7   8
ENDBRANCH   1   7
BRANCH   4  12
ATOM     12  C   UNL     1      44.091   4.597   9.878  0.00  0.00    +0.000 C 
BRANCH  12  13
ATOM     13  C   UNL     1      44.713   3.356   9.344  0.00  0.00    +0.000 A 
ATOM     14  C   UNL     1      44.469   2.054   9.745  0.00  0.00    +0.000 A 
ATOM     15  O   UNL     1      45.210   1.166   9.028  0.00  0.00    +0.000 OA
ATOM     16  C   UNL     1      45.949   1.895   8.153  0.00  0.00    +0.000 A 
ATOM     17  C   UNL     1      46.829   1.403   7.198  0.00  0.00    +0.000 A 
ATOM     18  C   UNL     1      47.443   2.383   6.430  0.00  0.00    +0.000 A 
ATOM     19  F   UNL     1      48.291   2.027   5.456  0.00  0.00    +0.000 F 
ATOM     20  C   UNL     1      47.178   3.729   6.662  0.00  0.00    +0.000 A 
ATOM     21  N   UNL     1      46.324   4.218   7.598  0.00  0.00    +0.000 NA
ATOM     22  C   UNL     1      45.702   3.253   8.327  0.00  0.00    +0.000 A 
ENDBRANCH  12  13
ENDBRANCH   4  12
TORSDOF 5
ENDMDL
MODEL 5
REMARK VINA RESULT:    -6.521      2.785      6.342
REMARK INTER + INTRA:          -8.765
REMARK INTER:                  -8.313
REMARK INTRA:                  -0.453
REMARK UNBOUND:                -0.529
REMARK  Name = 
REMARK  5 active torsions:
REMARK  status: ('A' for Active; 'I' for Inactive)
REMARK    1  A    between atoms: N_1  and  C_2
REMARK    2  A    between atoms: C_2  and  C_3
REMARK    3  A    between atoms: C_3  and  C_4
REMARK    4  A    between atoms: C_7  and  C_8
REMARK    5  A    between atoms: C_8  and  C_9
REMARK                            x       y       z     vdW  Elec       q    Type
REMARK                         _______ _______ _______ _____ _____    ______ ____
ROOT
ATOM      1  C   UNL     1      47.525   6.973  13.241  0.00  0.00    +0.000 A 
ATOM      2  C   UNL     1      46.797   5.848  13.650  0.00  0.00    +0.000 A 
ATOM      3  C   UNL     1      45.602   5.499  13.012  0.00  0.00    +0.000 A 
ATOM      4  C   UNL     1      45.112   6.267  11.946  0.00  0.00    +0.000 A 
ATOM      5  C   UNL     1      45.849   7.385  11.531  0.00  0.00    +0.000 A 
ATOM      6  C   UNL     1      47.043   7.733  12.168  0.00  0.00    +0.000 A 
ENDROOT
BRANCH   1   7
ATOM      7  C   UNL     1      48.808   7.361  13.935  0.00  0.00    +0.000 C 
BRANCH   7   8
ATOM      8  C   UNL     1      48.740   8.768  14.540  0.00  0.00    +0.000 C 
BRANCH   8   9
ATOM      9  N   UNL     1      47.555   8.924  15.385  0.00  0.00    +0.000 NA
ATOM     10  H   UNL     1      47.073   9.784  15.129  0.00  0.00    +0.000 HD
ATOM     11  H   UNL     1      47.839   9.035  16.357  0.00  0.00    +0.000 HD
ENDBRANCH   8   9
ENDBRANCH   7   8
ENDBRANCH   1   7
BRANCH   4  12
ATOM     12  C   UNL     1      43.817   5.909  11.251  0.00  0.00    +0.000 C 
BRANCH  12  13
ATOM     13  C   UNL     1      43.978   4.518  10.748  0.00  0.00    +0.000 A 
ATOM     14  C   UNL     1      43.385   3.371  11.245  0.00  0.00    +0.000 A 
ATOM     15  O   UNL     1      43.749   2.273  10.530  0.00  0.00    +0.000 OA
ATOM     16  C   UNL     1      44.593   2.706   9.557  0.00  0.00    +0.000 A 
ATOM     17  C   UNL     1      45.188   1.932   8.570  0.00  0.00    +0.000 A 
ATOM     18  C   UNL     1      45.999   2.647   7.698  0.00  0.00    +0.000 A 
ATOM     19  F   UNL     1      46.604   2.012   6.686  0.00  0.00    +0.000 F 
ATOM     20  C   UNL     1      46.181   4.016   7.866  0.00  0.00    +0.000 A 
ATOM     21  N   UNL     1      45.607   4.777   8.834  0.00  0.00    +0.000 NA
ATOM     22  C   UNL     1      44.789   4.078   9.666  0.00  0.00    +0.000 A 
ENDBRANCH  12  13
ENDBRANCH   4  12
TORSDOF 5
ENDMDL
MODEL 6
REMARK VINA RESULT:    -6.158      1.986      2.898
REMARK INTER + INTRA:          -8.306
REMARK INTER:                  -7.884
REMARK INTRA:                  -0.422
REMARK UNBOUND:                -0.529
REMARK  Name = 
REMARK  5 active torsions:
REMARK  status: ('A' for Active; 'I' for Inactive)
REMARK    1  A    between atoms: N_1  and  C_2
REMARK    2  A    between atoms: C_2  and  C_3
REMARK    3  A    between atoms: C_3  and  C_4
REMARK    4  A    between atoms: C_7  and  C_8
REMARK    5  A    between atoms: C_8  and  C_9
REMARK                            x       y       z     vdW  Elec       q    Type
REMARK                         _______ _______ _______ _____ _____    ______ ____
ROOT
ATOM      1  C   UNL     1      44.922   2.725   9.390  0.00  0.00    +0.000 A 
ATOM      2  C   UNL     1      45.545   3.907   8.971  0.00  0.00    +0.000 A 
ATOM      3  C   UNL     1      45.336   5.108   9.658  0.00  0.00    +0.000 A 
ATOM      4  C   UNL     1      44.501   5.149  10.784  0.00  0.00    +0.000 A 
ATOM      5  C   UNL     1      43.889   3.961  11.209  0.00  0.00    +0.000 A 
ATOM      6  C   UNL     1      44.100   2.762  10.523  0.00  0.00    +0.000 A 
ENDROOT
BRANCH   1   7
ATOM      7  C   UNL     1      45.135   1.429   8.644  0.00  0.00    +0.000 C 
BRANCH   7   8
ATOM      8  C   UNL     1      46.512   1.363   7.975  0.00  0.00    +0.000 C 
BRANCH   8   9
ATOM      9  N   UNL     1      46.902  -0.021   7.702  0.00  0.00    +0.000 NA
ATOM     10  H   UNL     1      47.908  -0.062   7.552  0.00  0.00    +0.000 HD
ATOM     11  H   UNL     1      46.471  -0.333   6.833  0.00  0.00    +0.000 HD
ENDBRANCH   8   9
ENDBRANCH   7   8
ENDBRANCH   1   7
BRANCH   4  12
ATOM     12  C   UNL     1      44.257   6.440  11.533  0.00  0.00    +0.000 C 
BRANCH  12  13
ATOM     13  C   UNL     1      45.545   6.804  12.181  0.00  0.00    +0.000 A 
ATOM     14  C   UNL     1      46.349   7.895  11.899  0.00  0.00    +0.000 A 
ATOM     15  O   UNL     1      47.451   7.920  12.697  0.00  0.00    +0.000 OA
ATOM     16  C   UNL     1      47.369   6.831  13.506  0.00  0.00    +0.000 A 
ATOM     17  C   UNL     1      48.263   6.471  14.505  0.00  0.00    +0.000 A 
ATOM     18  C   UNL     1      47.921   5.308  15.183  0.00  0.00    +0.000 A 
ATOM     19  F   UNL     1      48.692   4.877  16.189  0.00  0.00    +0.000 F 
ATOM     20  C   UNL     1      46.780   4.596  14.829  0.00  0.00    +0.000 A 
ATOM     21  N   UNL     1      45.905   4.939  13.847  0.00  0.00    +0.000 NA
ATOM     22  C   UNL     1      46.228   6.094  13.207  0.00  0.00    +0.000 A 
ENDBRANCH  12  13
ENDBRANCH   4  12
TORSDOF 5
ENDMDL
MODEL 7
REMARK VINA RESULT:    -5.697      3.056      6.563
REMARK INTER + INTRA:          -7.724
REMARK INTER:                  -7.231
REMARK INTRA:                  -0.493
REMARK UNBOUND:                -0.529
REMARK  Name = 
REMARK  5 active torsions:
REMARK  status: ('A' for Active; 'I' for Inactive)
REMARK    1  A    between atoms: N_1  and  C_2
REMARK    2  A    between atoms: C_2  and  C_3
REMARK    3  A    between atoms: C_3  and  C_4
REMARK    4  A    between atoms: C_7  and  C_8
REMARK    5  A    between atoms: C_8  and  C_9
REMARK                            x       y       z     vdW  Elec       q    Type
REMARK                         _______ _______ _______ _____ _____    ______ ____
ROOT
ATOM      1  C   UNL     1      48.532   8.132  13.492  0.00  0.00    +0.000 A 
ATOM      2  C   UNL     1      47.367   8.809  13.876  0.00  0.00    +0.000 A 
ATOM      3  C   UNL     1      46.163   8.603  13.194  0.00  0.00    +0.000 A 
ATOM      4  C   UNL     1      46.099   7.710  12.114  0.00  0.00    +0.000 A 
ATOM      5  C   UNL     1      47.264   7.024  11.741  0.00  0.00    +0.000 A 
ATOM      6  C   UNL     1      48.466   7.230  12.424  0.00  0.00    +0.000 A 
ENDROOT
BRANCH   1   7
ATOM      7  C   UNL     1      49.836   8.362  14.217  0.00  0.00    +0.000 C 
BRANCH   7   8
ATOM      8  C   UNL     1      49.860   7.693  15.596  0.00  0.00    +0.000 C 
BRANCH   8   9
ATOM      9  N   UNL     1      50.723   6.511  15.596  0.00  0.00    +0.000 NA
ATOM     10  H   UNL     1      50.192   5.709  15.932  0.00  0.00    +0.000 HD
ATOM     11  H   UNL     1      51.487   6.643  16.257  0.00  0.00    +0.000 HD
ENDBRANCH   8   9
ENDBRANCH   7   8
ENDBRANCH   1   7
BRANCH   4  12
ATOM     12  C   UNL     1      44.808   7.482  11.360  0.00  0.00    +0.000 C 
BRANCH  12  13
ATOM     13  C   UNL     1      44.405   6.075  11.626  0.00  0.00    +0.000 A 
ATOM     14  C   UNL     1      43.800   5.576  12.766  0.00  0.00    +0.000 A 
ATOM     15  O   UNL     1      43.563   4.240  12.660  0.00  0.00    +0.000 OA
ATOM     16  C   UNL     1      44.023   3.861  11.438  0.00  0.00    +0.000 A 
ATOM     17  C   UNL     1      43.960   2.589  10.886  0.00  0.00    +0.000 A 
ATOM     18  C   UNL     1      44.501   2.495   9.611  0.00  0.00    +0.000 A 
ATOM     19  F   UNL     1      44.471   1.322   8.964  0.00  0.00    +0.000 F 
ATOM     20  C   UNL     1      45.066   3.610   9.000  0.00  0.00    +0.000 A 
ATOM     21  N   UNL     1      45.136   4.855   9.538  0.00  0.00    +0.000 NA
ATOM     22  C   UNL     1      44.578   4.950  10.774  0.00  0.00    +0.000 A 
ENDBRANCH  12  13
ENDBRANCH   4  12
TORSDOF 5
ENDMDL
MODEL 8
REMARK VINA RESULT:    -5.435      3.941      5.677
REMARK INTER + INTRA:          -7.393
REMARK INTER:                  -6.941
REMARK INTRA:                  -0.452
REMARK UNBOUND:                -0.529
REMARK  Name = 
REMARK  5 active torsions:
REMARK  status: ('A' for Active; 'I' for Inactive)
REMARK    1  A    between atoms: N_1  and  C_2
REMARK    2  A    between atoms: C_2  and  C_3
REMARK    3  A    between atoms: C_3  and  C_4
REMARK    4  A    between atoms: C_7  and  C_8
REMARK    5  A    between atoms: C_8  and  C_9
REMARK                            x       y       z     vdW  Elec       q    Type
REMARK                         _______ _______ _______ _____ _____    ______ ____
ROOT
ATOM      1  C   UNL     1      44.875   5.182  11.966  0.00  0.00    +0.000 A 
ATOM      2  C   UNL     1      45.509   4.813  13.159  0.00  0.00    +0.000 A 
ATOM      3  C   UNL     1      46.763   5.337  13.493  0.00  0.00    +0.000 A 
ATOM      4  C   UNL     1      47.407   6.246  12.640  0.00  0.00    +0.000 A 
ATOM      5  C   UNL     1      46.762   6.623  11.453  0.00  0.00    +0.000 A 
ATOM      6  C   UNL     1      45.509   6.099  11.120  0.00  0.00    +0.000 A 
ENDROOT
BRANCH   1   7
ATOM      7  C   UNL     1      43.527   4.609  11.595  0.00  0.00    +0.000 C 
BRANCH   7   8
ATOM      8  C   UNL     1      43.646   3.250  10.896  0.00  0.00    +0.000 C 
BRANCH   8   9
ATOM      9  N   UNL     1      43.020   2.191  11.690  0.00  0.00    +0.000 NA
ATOM     10  H   UNL     1      42.211   1.831  11.187  0.00  0.00    +0.000 HD
ATOM     11  H   UNL     1      42.664   2.581  12.561  0.00  0.00    +0.000 HD
ENDBRANCH   8   9
ENDBRANCH   7   8
ENDBRANCH   1   7
BRANCH   4  12
ATOM     12  C   UNL     1      48.765   6.814  12.981  0.00  0.00    +0.000 C 
BRANCH  12  13
ATOM     13  C   UNL     1      48.611   7.533  14.275  0.00  0.00    +0.000 A 
ATOM     14  C   UNL     1      48.101   8.804  14.474  0.00  0.00    +0.000 A 
ATOM     15  O   UNL     1      48.098   9.138  15.793  0.00  0.00    +0.000 OA
ATOM     16  C   UNL     1      48.616   8.076  16.463  0.00  0.00    +0.000 A 
ATOM     17  C   UNL     1      48.775   7.958  17.837  0.00  0.00    +0.000 A 
ATOM     18  C   UNL     1      49.325   6.750  18.245  0.00  0.00    +0.000 A 
ATOM     19  F   UNL     1      49.498   6.510  19.552  0.00  0.00    +0.000 F 
ATOM     20  C   UNL     1      49.689   5.789  17.308  0.00  0.00    +0.000 A 
ATOM     21  N   UNL     1      49.543   5.900  15.962  0.00  0.00    +0.000 NA
ATOM     22  C   UNL     1      48.976   7.072  15.569  0.00  0.00    +0.000 A 
ENDBRANCH  12  13
ENDBRANCH   4  12
TORSDOF 5
ENDMDL
MODEL 9
REMARK VINA RESULT:    -5.201      4.777      6.607
REMARK INTER + INTRA:          -7.097
REMARK INTER:                  -6.535
REMARK INTRA:                  -0.562
REMARK UNBOUND:                -0.529
REMARK  Name = 
REMARK  5 active torsions:
REMARK  status: ('A' for Active; 'I' for Inactive)
REMARK    1  A    between atoms: N_1  and  C_2
REMARK    2  A    between atoms: C_2  and  C_3
REMARK    3  A    between atoms: C_3  and  C_4
REMARK    4  A    between atoms: C_7  and  C_8
REMARK    5  A    between atoms: C_8  and  C_9
REMARK                            x       y       z     vdW  Elec       q    Type
REMARK                         _______ _______ _______ _____ _____    ______ ____
ROOT
ATOM      1  C   UNL     1      45.458   6.390  12.278  0.00  0.00    +0.000 A 
ATOM      2  C   UNL     1      46.193   5.317  12.799  0.00  0.00    +0.000 A 
ATOM      3  C   UNL     1      47.411   5.536  13.452  0.00  0.00    +0.000 A 
ATOM      4  C   UNL     1      47.917   6.835  13.602  0.00  0.00    +0.000 A 
ATOM      5  C   UNL     1      47.171   7.908  13.091  0.00  0.00    +0.000 A 
ATOM      6  C   UNL     1      45.955   7.689  12.440  0.00  0.00    +0.000 A 
ENDROOT
BRANCH   1   7
ATOM      7  C   UNL     1      44.149   6.158  11.562  0.00  0.00    +0.000 C 
BRANCH   7   8
ATOM      8  C   UNL     1      43.376   4.965  12.135  0.00  0.00    +0.000 C 
BRANCH   8   9
ATOM      9  N   UNL     1      42.629   5.346  13.335  0.00  0.00    +0.000 NA
ATOM     10  H   UNL     1      41.705   4.920  13.302  0.00  0.00    +0.000 HD
ATOM     11  H   UNL     1      42.478   6.354  13.338  0.00  0.00    +0.000 HD
ENDBRANCH   8   9
ENDBRANCH   7   8
ENDBRANCH   1   7
BRANCH   4  12
ATOM     12  C   UNL     1      49.236   7.088  14.296  0.00  0.00    +0.000 C 
BRANCH  12  13
ATOM     13  C   UNL     1      48.938   7.177  15.751  0.00  0.00    +0.000 A 
ATOM     14  C   UNL     1      48.619   8.312  16.476  0.00  0.00    +0.000 A 
ATOM     15  O   UNL     1      48.397   8.021  17.786  0.00  0.00    +0.000 OA
ATOM     16  C   UNL     1      48.577   6.681  17.921  0.00  0.00    +0.000 A 
ATOM     17  C   UNL     1      48.423   5.935  19.081  0.00  0.00    +0.000 A 
ATOM     18  C   UNL     1      48.664   4.577  18.922  0.00  0.00    +0.000 A 
ATOM     19  F   UNL     1      48.518   3.751  19.967  0.00  0.00    +0.000 F 
ATOM     20  C   UNL     1      49.049   4.070  17.685  0.00  0.00    +0.000 A 
ATOM     21  N   UNL     1      49.208   4.794  16.547  0.00  0.00    +0.000 NA
ATOM     22  C   UNL     1      48.941   6.119  16.701  0.00  0.00    +0.000 A 
ENDBRANCH  12  13
ENDBRANCH   4  12
TORSDOF 5
ENDMDL
