MODEL 1
REMARK VINA RESULT:    -9.080      0.000      0.000
REMARK INTER + INTRA:         -13.007
REMARK INTER:                 -12.265
REMARK INTRA:                  -0.742
REMARK UNBOUND:                -0.742
REMARK  Name = 
REMARK  6 active torsions:
REMARK  status: ('A' for Active; 'I' for Inactive)
REMARK    1  A    between atoms: C_2  and  C_4
REMARK    2  A    between atoms: N_8  and  C_9
REMARK    3  A    between atoms: C_9  and  C_10
REMARK    4  A    between atoms: C_10  and  C_11
REMARK    5  A    between atoms: C_15  and  O_16
REMARK    6  A    between atoms: O_16  and  C_17
REMARK                            x       y       z     vdW  Elec       q    Type
REMARK                         _______ _______ _______ _____ _____    ______ ____
ROOT
ATOM      1  C   UNL     1      43.432   4.645  11.220  0.00  0.00    +0.000 C 
ENDROOT
BRANCH   1   6
ATOM      2  C   UNL     1      46.467   2.484   7.733  0.00  0.00    +0.000 A 
ATOM      3  C   UNL     1      45.674   1.878   8.703  0.00  0.00    +0.000 A 
ATOM      4  C   UNL     1      44.781   2.663   9.440  0.00  0.00    +0.000 A 
ATOM      5  C   UNL     1      44.707   4.032   9.206  0.00  0.00    +0.000 A 
ATOM      6  N   UNL     1      43.792   4.864   9.824  0.00  0.00    +0.000 N 
ATOM      7  N   UNL     1      45.492   4.632   8.288  0.00  0.00    +0.000 NA
ATOM      8  C   UNL     1      46.358   3.856   7.581  0.00  0.00    +0.000 A 
ATOM      9  H   UNL     1      44.046   5.816   9.571  0.00  0.00    +0.000 HD
BRANCH   2  11
ATOM     10  N   UNL     1      48.530   2.393   6.451  0.00  0.00    +0.000 N 
ATOM     11  C   UNL     1      47.410   1.734   6.879  0.00  0.00    +0.000 C 
ATOM     12  O   UNL     1      47.222   0.558   6.598  0.00  0.00    +0.000 OA
ATOM     13  H   UNL     1      49.221   1.836   5.963  0.00  0.00    +0.000 HD
ATOM     14  H   UNL     1      48.844   3.258   6.868  0.00  0.00    +0.000 HD
ENDBRANCH   2  11
ENDBRANCH   1   6
BRANCH   1  15
ATOM     15  C   UNL     1      43.896   5.834  12.075  0.00  0.00    +0.000 C 
BRANCH  15  16
ATOM     16  C   UNL     1      45.281   5.638  12.644  0.00  0.00    +0.000 A 
ATOM     17  C   UNL     1      46.355   6.420  12.213  0.00  0.00    +0.000 A 
ATOM     18  C   UNL     1      47.609   6.192  12.764  0.00  0.00    +0.000 A 
ATOM     19  N   UNL     1      47.867   5.244  13.690  0.00  0.00    +0.000 NA
ATOM     20  C   UNL     1      46.815   4.505  14.096  0.00  0.00    +0.000 A 
ATOM     21  C   UNL     1      45.525   4.659  13.613  0.00  0.00    +0.000 A 
BRANCH  20  22
ATOM     22  O   UNL     1      47.011   3.535  15.063  0.00  0.00    +0.000 OA
BRANCH  22  23
ATOM     23  C   UNL     1      47.815   3.936  16.199  0.00  0.00    +0.000 C 
ATOM     24  C   UNL     1      48.395   2.807  17.071  0.00  0.00    +0.000 C 
ATOM     25  N   UNL     1      47.802   3.405  18.277  0.00  0.00    +0.000 NA
ATOM     26  C   UNL     1      47.031   4.351  17.457  0.00  0.00    +0.000 C 
ATOM     27  H   UNL     1      48.482   3.850  18.891  0.00  0.00    +0.000 HD
ENDBRANCH  22  23
ENDBRANCH  20  22
ENDBRANCH  15  16
ENDBRANCH   1  15
TORSDOF 6
ENDMDL
MODEL 2
REMARK VINA RESULT:    -8.289      1.908      3.459
REMARK INTER + INTRA:         -11.938
REMARK INTER:                 -11.055
REMARK INTRA:                  -0.883
REMARK UNBOUND:                -0.742
REMARK  Name = 
REMARK  6 active torsions:
REMARK  status: ('A' for Active; 'I' for Inactive)
REMARK    1  A    between atoms: C_2  and  C_4
REMARK    2  A    between atoms: N_8  and  C_9
REMARK    3  A    between atoms: C_9  and  C_10
REMARK    4  A    between atoms: C_10  and  C_11
REMARK    5  A    between atoms: C_15  and  O_16
REMARK    6  A    between atoms: O_16  and  C_17
REMARK                            x       y       z     vdW  Elec       q    Type
REMARK                         _______ _______ _______ _____ _____    ______ ____
ROOT
ATOM      1  C   UNL     1      43.227   4.378  11.225  0.00  0.00    +0.000 C 
ENDROOT
BRANCH   1   6
ATOM      2  C   UNL     1      46.433   2.487   7.735  0.00  0.00    +0.000 A 
ATOM      3  C   UNL     1      45.624   1.809   8.643  0.00  0.00    +0.000 A 
ATOM      4  C   UNL     1      44.686   2.531   9.389  0.00  0.00    +0.000 A 
ATOM      5  C   UNL     1      44.585   3.908   9.228  0.00  0.00    +0.000 A 
ATOM      6  N   UNL     1      43.628   4.683   9.857  0.00  0.00    +0.000 N 
ATOM      7  N   UNL     1      45.385   4.577   8.372  0.00  0.00    +0.000 NA
ATOM      8  C   UNL     1      46.294   3.862   7.655  0.00  0.00    +0.000 A 
ATOM      9  H   UNL     1      43.866   5.653   9.666  0.00  0.00    +0.000 HD
BRANCH   2  11
ATOM     10  N   UNL     1      48.527   2.526   6.500  0.00  0.00    +0.000 N 
ATOM     11  C   UNL     1      47.425   1.807   6.876  0.00  0.00    +0.000 C 
ATOM     12  O   UNL     1      47.289   0.637   6.545  0.00  0.00    +0.000 OA
ATOM     13  H   UNL     1      49.249   2.016   6.008  0.00  0.00    +0.000 HD
ATOM     14  H   UNL     1      48.796   3.386   6.958  0.00  0.00    +0.000 HD
ENDBRANCH   2  11
ENDBRANCH   1   6
BRANCH   1  15
ATOM     15  C   UNL     1      43.626   5.531  12.159  0.00  0.00    +0.000 C 
BRANCH  15  16
ATOM     16  C   UNL     1      45.028   5.388  12.697  0.00  0.00    +0.000 A 
ATOM     17  C   UNL     1      45.507   4.154  13.144  0.00  0.00    +0.000 A 
ATOM     18  C   UNL     1      46.803   4.081  13.637  0.00  0.00    +0.000 A 
ATOM     19  N   UNL     1      47.639   5.138  13.727  0.00  0.00    +0.000 NA
ATOM     20  C   UNL     1      47.159   6.318  13.285  0.00  0.00    +0.000 A 
ATOM     21  C   UNL     1      45.884   6.493  12.769  0.00  0.00    +0.000 A 
BRANCH  20  22
ATOM     22  O   UNL     1      47.977   7.432  13.326  0.00  0.00    +0.000 OA
BRANCH  22  23
ATOM     23  C   UNL     1      48.374   7.966  12.040  0.00  0.00    +0.000 C 
ATOM     24  C   UNL     1      49.845   7.764  11.630  0.00  0.00    +0.000 C 
ATOM     25  N   UNL     1      50.000   9.208  11.397  0.00  0.00    +0.000 NA
ATOM     26  C   UNL     1      48.693   9.472  12.014  0.00  0.00    +0.000 C 
ATOM     27  H   UNL     1      50.052   9.461  10.412  0.00  0.00    +0.000 HD
ENDBRANCH  22  23
ENDBRANCH  20  22
ENDBRANCH  15  16
ENDBRANCH   1  15
TORSDOF 6
ENDMDL
MODEL 3
REMARK VINA RESULT:    -7.413      1.731      8.135
REMARK INTER + INTRA:         -10.755
REMARK INTER:                 -10.147
REMARK INTRA:                  -0.608
REMARK UNBOUND:                -0.742
REMARK  Name = 
REMARK  6 active torsions:
REMARK  status: ('A' for Active; 'I' for Inactive)
REMARK    1  A    between atoms: C_2  and  C_4
REMARK    2  A    between atoms: N_8  and  C_9
REMARK    3  A    between atoms: C_9  and  C_10
REMARK    4  A    between atoms: C_10  and  C_11
REMARK    5  A    between atoms: C_15  and  O_16
REMARK    6  A    between atoms: O_16  and  C_17
REMARK                            x       y       z     vdW  Elec       q    Type
REMARK                         _______ _______ _______ _____ _____    ______ ____
ROOT
ATOM      1  C   UNL     1      45.702   6.236  12.355  0.00  0.00    +0.000 C 
ENDROOT
BRANCH   1   6
ATOM      2  C   UNL     1      48.181   4.642  16.520  0.00  0.00    +0.000 A 
ATOM      3  C   UNL     1      47.140   4.027  15.829  0.00  0.00    +0.000 A 
ATOM      4  C   UNL     1      46.730   4.561  14.603  0.00  0.00    +0.000 A 
ATOM      5  C   UNL     1      47.352   5.699  14.100  0.00  0.00    +0.000 A 
ATOM      6  N   UNL     1      47.070   6.237  12.858  0.00  0.00    +0.000 N 
ATOM      7  N   UNL     1      48.341   6.317  14.777  0.00  0.00    +0.000 NA
ATOM      8  C   UNL     1      48.727   5.788  15.969  0.00  0.00    +0.000 A 
ATOM      9  H   UNL     1      47.565   7.124  12.805  0.00  0.00    +0.000 HD
BRANCH   2  11
ATOM     10  N   UNL     1      47.890   3.318  18.538  0.00  0.00    +0.000 N 
ATOM     11  C   UNL     1      48.708   4.131  17.802  0.00  0.00    +0.000 C 
ATOM     12  O   UNL     1      49.845   4.388  18.174  0.00  0.00    +0.000 OA
ATOM     13  H   UNL     1      48.303   2.886  19.355  0.00  0.00    +0.000 HD
ATOM     14  H   UNL     1      47.066   2.881  18.149  0.00  0.00    +0.000 HD
ENDBRANCH   2  11
ENDBRANCH   1   6
BRANCH   1  15
ATOM     15  C   UNL     1      45.706   6.282  10.819  0.00  0.00    +0.000 C 
BRANCH  15  16
ATOM     16  C   UNL     1      45.276   4.977  10.194  0.00  0.00    +0.000 A 
ATOM     17  C   UNL     1      44.511   4.053  10.909  0.00  0.00    +0.000 A 
ATOM     18  C   UNL     1      44.150   2.864  10.288  0.00  0.00    +0.000 A 
ATOM     19  N   UNL     1      44.505   2.531   9.029  0.00  0.00    +0.000 NA
ATOM     20  C   UNL     1      45.238   3.440   8.355  0.00  0.00    +0.000 A 
ATOM     21  C   UNL     1      45.643   4.656   8.882  0.00  0.00    +0.000 A 
BRANCH  20  22
ATOM     22  O   UNL     1      45.610   3.167   7.051  0.00  0.00    +0.000 OA
BRANCH  22  23
ATOM     23  C   UNL     1      47.035   3.071   6.813  0.00  0.00    +0.000 C 
ATOM     24  C   UNL     1      47.480   2.827   5.358  0.00  0.00    +0.000 C 
ATOM     25  N   UNL     1      48.263   1.654   5.772  0.00  0.00    +0.000 NA
ATOM     26  C   UNL     1      47.670   1.701   7.115  0.00  0.00    +0.000 C 
ATOM     27  H   UNL     1      49.271   1.808   5.760  0.00  0.00    +0.000 HD
ENDBRANCH  22  23
ENDBRANCH  20  22
ENDBRANCH  15  16
ENDBRANCH   1  15
TORSDOF 6
ENDMDL
MODEL 4
REMARK VINA RESULT:    -7.381      2.146      3.776
REMARK INTER + INTRA:         -10.711
REMARK INTER:                 -10.928
REMARK INTRA:                   0.217
REMARK UNBOUND:                -0.742
REMARK  Name = 
REMARK  6 active torsions:
REMARK  status: ('A' for Active; 'I' for Inactive)
REMARK    1  A    between atoms: C_2  and  C_4
REMARK    2  A    between atoms: N_8  and  C_9
REMARK    3  A    between atoms: C_9  and  C_10
REMARK    4  A    between atoms: C_10  and  C_11
REMARK    5  A    between atoms: C_15  and  O_16
REMARK    6  A    between atoms: O_16  and  C_17
REMARK                            x       y       z     vdW  Elec       q    Type
REMARK                         _______ _______ _______ _____ _____    ______ ____
ROOT
ATOM      1  C   UNL     1      43.523   4.293  11.186  0.00  0.00    +0.000 C 
ENDROOT
BRANCH   1   6
ATOM      2  C   UNL     1      46.667   2.816   7.448  0.00  0.00    +0.000 A 
ATOM      3  C   UNL     1      45.851   2.040   8.267  0.00  0.00    +0.000 A 
ATOM      4  C   UNL     1      44.933   2.675   9.110  0.00  0.00    +0.000 A 
ATOM      5  C   UNL     1      44.858   4.063   9.131  0.00  0.00    +0.000 A 
ATOM      6  N   UNL     1      43.920   4.766   9.865  0.00  0.00    +0.000 N 
ATOM      7  N   UNL     1      45.665   4.824   8.362  0.00  0.00    +0.000 NA
ATOM      8  C   UNL     1      46.554   4.193   7.550  0.00  0.00    +0.000 A 
ATOM      9  H   UNL     1      44.175   5.749   9.801  0.00  0.00    +0.000 HD
BRANCH   2  11
ATOM     10  N   UNL     1      47.751   2.836   5.272  0.00  0.00    +0.000 N 
ATOM     11  C   UNL     1      47.639   2.237   6.498  0.00  0.00    +0.000 C 
ATOM     12  O   UNL     1      48.345   1.286   6.805  0.00  0.00    +0.000 OA
ATOM     13  H   UNL     1      48.497   2.501   4.676  0.00  0.00    +0.000 HD
ATOM     14  H   UNL     1      47.387   3.759   5.083  0.00  0.00    +0.000 HD
ENDBRANCH   2  11
ENDBRANCH   1   6
BRANCH   1  15
ATOM     15  C   UNL     1      44.681   3.522  11.838  0.00  0.00    +0.000 C 
BRANCH  15  16
ATOM     16  C   UNL     1      45.664   4.428  12.538  0.00  0.00    +0.000 A 
ATOM     17  C   UNL     1      46.251   4.058  13.750  0.00  0.00    +0.000 A 
ATOM     18  C   UNL     1      47.143   4.934  14.355  0.00  0.00    +0.000 A 
ATOM     19  N   UNL     1      47.476   6.141  13.851  0.00  0.00    +0.000 NA
ATOM     20  C   UNL     1      46.903   6.477  12.677  0.00  0.00    +0.000 A 
ATOM     21  C   UNL     1      46.007   5.671  11.992  0.00  0.00    +0.000 A 
BRANCH  20  22
ATOM     22  O   UNL     1      47.225   7.690  12.097  0.00  0.00    +0.000 OA
BRANCH  22  23
ATOM     23  C   UNL     1      46.731   8.864  12.785  0.00  0.00    +0.000 C 
ATOM     24  C   UNL     1      45.255   9.238  12.548  0.00  0.00    +0.000 C 
ATOM     25  N   UNL     1      45.642  10.599  12.148  0.00  0.00    +0.000 NA
ATOM     26  C   UNL     1      47.060  10.214  12.121  0.00  0.00    +0.000 C 
ATOM     27  H   UNL     1      45.420  11.310  12.843  0.00  0.00    +0.000 HD
ENDBRANCH  22  23
ENDBRANCH  20  22
ENDBRANCH  15  16
ENDBRANCH   1  15
TORSDOF 6
ENDMDL
MODEL 5
REMARK VINA RESULT:    -6.481      3.125      4.176
REMARK INTER + INTRA:          -9.496
REMARK INTER:                  -8.921
REMARK INTRA:                  -0.575
REMARK UNBOUND:                -0.742
REMARK  Name = 
REMARK  6 active torsions:
REMARK  status: ('A' for Active; 'I' for Inactive)
REMARK    1  A    between atoms: C_2  and  C_4
REMARK    2  A    between atoms: N_8  and  C_9
REMARK    3  A    between atoms: C_9  and  C_10
REMARK    4  A    between atoms: C_10  and  C_11
REMARK    5  A    between atoms: C_15  and  O_16
REMARK    6  A    between atoms: O_16  and  C_17
REMARK                            x       y       z     vdW  Elec       q    Type
REMARK                         _______ _______ _______ _____ _____    ______ ____
ROOT
ATOM      1  C   UNL     1      44.062   5.366  11.339  0.00  0.00    +0.000 C 
ENDROOT
BRANCH   1   6
ATOM      2  C   UNL     1      46.154   2.184   7.943  0.00  0.00    +0.000 A 
ATOM      3  C   UNL     1      45.248   1.907   8.964  0.00  0.00    +0.000 A 
ATOM      4  C   UNL     1      44.668   2.970   9.665  0.00  0.00    +0.000 A 
ATOM      5  C   UNL     1      45.012   4.279   9.347  0.00  0.00    +0.000 A 
ATOM      6  N   UNL     1      44.421   5.387   9.927  0.00  0.00    +0.000 N 
ATOM      7  N   UNL     1      45.911   4.555   8.379  0.00  0.00    +0.000 NA
ATOM      8  C   UNL     1      46.469   3.512   7.708  0.00  0.00    +0.000 A 
ATOM      9  H   UNL     1      44.948   6.198   9.611  0.00  0.00    +0.000 HD
BRANCH   2  11
ATOM     10  N   UNL     1      46.780  -0.143   7.620  0.00  0.00    +0.000 N 
ATOM     11  C   UNL     1      46.789   1.132   7.123  0.00  0.00    +0.000 C 
ATOM     12  O   UNL     1      47.268   1.380   6.024  0.00  0.00    +0.000 OA
ATOM     13  H   UNL     1      47.116  -0.869   7.000  0.00  0.00    +0.000 HD
ATOM     14  H   UNL     1      46.177  -0.425   8.380  0.00  0.00    +0.000 HD
ENDBRANCH   2  11
ENDBRANCH   1   6
BRANCH   1  15
ATOM     15  C   UNL     1      45.329   5.281  12.204  0.00  0.00    +0.000 C 
BRANCH  15  16
ATOM     16  C   UNL     1      45.964   6.628  12.443  0.00  0.00    +0.000 A 
ATOM     17  C   UNL     1      45.186   7.783  12.558  0.00  0.00    +0.000 A 
ATOM     18  C   UNL     1      45.824   8.998  12.770  0.00  0.00    +0.000 A 
ATOM     19  N   UNL     1      47.163   9.144  12.859  0.00  0.00    +0.000 NA
ATOM     20  C   UNL     1      47.895   8.017  12.750  0.00  0.00    +0.000 A 
ATOM     21  C   UNL     1      47.354   6.757  12.545  0.00  0.00    +0.000 A 
BRANCH  20  22
ATOM     22  O   UNL     1      49.271   8.098  12.859  0.00  0.00    +0.000 OA
BRANCH  22  23
ATOM     23  C   UNL     1      49.980   8.410  11.636  0.00  0.00    +0.000 C 
ATOM     24  C   UNL     1      51.510   8.232  11.655  0.00  0.00    +0.000 C 
ATOM     25  N   UNL     1      51.698   9.615  11.193  0.00  0.00    +0.000 NA
ATOM     26  C   UNL     1      50.272   9.903  11.398  0.00  0.00    +0.000 C 
ATOM     27  H   UNL     1      51.999   9.685  10.222  0.00  0.00    +0.000 HD
ENDBRANCH  22  23
ENDBRANCH  20  22
ENDBRANCH  15  16
ENDBRANCH   1  15
TORSDOF 6
ENDMDL
MODEL 6
REMARK VINA RESULT:    -6.408      3.064      7.991
REMARK INTER + INTRA:          -9.397
REMARK INTER:                  -8.972
REMARK INTRA:                  -0.424
REMARK UNBOUND:                -0.742
REMARK  Name = 
REMARK  6 active torsions:
REMARK  status: ('A' for Active; 'I' for Inactive)
REMARK    1  A    between atoms: C_2  and  C_4
REMARK    2  A    between atoms: N_8  and  C_9
REMARK    3  A    between atoms: C_9  and  C_10
REMARK    4  A    between atoms: C_10  and  C_11
REMARK    5  A    between atoms: C_15  and  O_16
REMARK    6  A    between atoms: O_16  and  C_17
REMARK                            x       y       z     vdW  Elec       q    Type
REMARK                         _______ _______ _______ _____ _____    ______ ____
ROOT
ATOM      1  C   UNL     1      44.975   6.609  12.143  0.00  0.00    +0.000 C 
ENDROOT
BRANCH   1   6
ATOM      2  C   UNL     1      49.467   8.571  13.562  0.00  0.00    +0.000 A 
ATOM      3  C   UNL     1      48.397   9.196  12.926  0.00  0.00    +0.000 A 
ATOM      4  C   UNL     1      47.188   8.505  12.792  0.00  0.00    +0.000 A 
ATOM      5  C   UNL     1      47.074   7.207  13.279  0.00  0.00    +0.000 A 
ATOM      6  N   UNL     1      45.892   6.489  13.269  0.00  0.00    +0.000 N 
ATOM      7  N   UNL     1      48.114   6.584  13.871  0.00  0.00    +0.000 NA
ATOM      8  C   UNL     1      49.284   7.267  13.991  0.00  0.00    +0.000 A 
ATOM      9  H   UNL     1      46.124   5.542  13.558  0.00  0.00    +0.000 HD
BRANCH   2  11
ATOM     10  N   UNL     1      50.887  10.030  14.890  0.00  0.00    +0.000 N 
ATOM     11  C   UNL     1      50.769   9.231  13.784  0.00  0.00    +0.000 C 
ATOM     12  O   UNL     1      51.718   9.044  13.035  0.00  0.00    +0.000 OA
ATOM     13  H   UNL     1      51.814  10.384  15.091  0.00  0.00    +0.000 HD
ATOM     14  H   UNL     1      50.227  10.000  15.654  0.00  0.00    +0.000 HD
ENDBRANCH   2  11
ENDBRANCH   1   6
BRANCH   1  15
ATOM     15  C   UNL     1      45.706   6.282  10.832  0.00  0.00    +0.000 C 
BRANCH  15  16
ATOM     16  C   UNL     1      45.265   4.972  10.228  0.00  0.00    +0.000 A 
ATOM     17  C   UNL     1      44.494   4.064  10.958  0.00  0.00    +0.000 A 
ATOM     18  C   UNL     1      44.123   2.869  10.356  0.00  0.00    +0.000 A 
ATOM     19  N   UNL     1      44.472   2.514   9.101  0.00  0.00    +0.000 NA
ATOM     20  C   UNL     1      45.211   3.407   8.412  0.00  0.00    +0.000 A 
ATOM     21  C   UNL     1      45.626   4.628   8.920  0.00  0.00    +0.000 A 
BRANCH  20  22
ATOM     22  O   UNL     1      45.577   3.112   7.111  0.00  0.00    +0.000 OA
BRANCH  22  23
ATOM     23  C   UNL     1      47.002   3.066   6.857  0.00  0.00    +0.000 C 
ATOM     24  C   UNL     1      47.439   2.852   5.395  0.00  0.00    +0.000 C 
ATOM     25  N   UNL     1      48.266   1.702   5.789  0.00  0.00    +0.000 NA
ATOM     26  C   UNL     1      47.686   1.716   7.139  0.00  0.00    +0.000 C 
ATOM     27  H   UNL     1      49.267   1.890   5.768  0.00  0.00    +0.000 HD
ENDBRANCH  22  23
ENDBRANCH  20  22
ENDBRANCH  15  16
ENDBRANCH   1  15
TORSDOF 6
ENDMDL
MODEL 7
REMARK VINA RESULT:    -6.406      3.012      4.223
REMARK INTER + INTRA:          -9.394
REMARK INTER:                  -8.723
REMARK INTRA:                  -0.671
REMARK UNBOUND:                -0.742
REMARK  Name = 
REMARK  6 active torsions:
REMARK  status: ('A' for Active; 'I' for Inactive)
REMARK    1  A    between atoms: C_2  and  C_4
REMARK    2  A    between atoms: N_8  and  C_9
REMARK    3  A    between atoms: C_9  and  C_10
REMARK    4  A    between atoms: C_10  and  C_11
REMARK    5  A    between atoms: C_15  and  O_16
REMARK    6  A    between atoms: O_16  and  C_17
REMARK                            x       y       z     vdW  Elec       q    Type
REMARK                         _______ _______ _______ _____ _____    ______ ____
ROOT
ATOM      1  C   UNL     1      46.287   8.559  13.332  0.00  0.00    +0.000 C 
ENDROOT
BRANCH   1   6
ATOM      2  C   UNL     1      44.384   4.262  11.344  0.00  0.00    +0.000 A 
ATOM      3  C   UNL     1      44.117   4.852  12.577  0.00  0.00    +0.000 A 
ATOM      4  C   UNL     1      44.621   6.131  12.841  0.00  0.00    +0.000 A 
ATOM      5  C   UNL     1      45.387   6.785  11.883  0.00  0.00    +0.000 A 
ATOM      6  N   UNL     1      45.846   8.081  12.027  0.00  0.00    +0.000 N 
ATOM      7  N   UNL     1      45.674   6.208  10.697  0.00  0.00    +0.000 NA
ATOM      8  C   UNL     1      45.180   4.964  10.456  0.00  0.00    +0.000 A 
ATOM      9  H   UNL     1      46.479   8.255  11.249  0.00  0.00    +0.000 HD
BRANCH   2  11
ATOM     10  N   UNL     1      44.532   2.262   9.970  0.00  0.00    +0.000 N 
ATOM     11  C   UNL     1      43.865   2.933  10.959  0.00  0.00    +0.000 C 
ATOM     12  O   UNL     1      42.902   2.433  11.525  0.00  0.00    +0.000 OA
ATOM     13  H   UNL     1      44.235   1.310   9.795  0.00  0.00    +0.000 HD
ATOM     14  H   UNL     1      45.461   2.520   9.670  0.00  0.00    +0.000 HD
ENDBRANCH   2  11
ENDBRANCH   1   6
BRANCH   1  15
ATOM     15  C   UNL     1      47.817   8.464  13.437  0.00  0.00    +0.000 C 
BRANCH  15  16
ATOM     16  C   UNL     1      48.281   8.001  14.796  0.00  0.00    +0.000 A 
ATOM     17  C   UNL     1      48.424   8.900  15.855  0.00  0.00    +0.000 A 
ATOM     18  C   UNL     1      48.862   8.421  17.082  0.00  0.00    +0.000 A 
ATOM     19  N   UNL     1      49.178   7.131  17.322  0.00  0.00    +0.000 NA
ATOM     20  C   UNL     1      49.028   6.278  16.288  0.00  0.00    +0.000 A 
ATOM     21  C   UNL     1      48.590   6.655  15.027  0.00  0.00    +0.000 A 
BRANCH  20  22
ATOM     22  O   UNL     1      49.310   4.938  16.478  0.00  0.00    +0.000 OA
BRANCH  22  23
ATOM     23  C   UNL     1      48.580   4.290  17.548  0.00  0.00    +0.000 C 
ATOM     24  C   UNL     1      48.190   2.816  17.328  0.00  0.00    +0.000 C 
ATOM     25  N   UNL     1      46.780   3.124  17.611  0.00  0.00    +0.000 NA
ATOM     26  C   UNL     1      47.065   4.566  17.584  0.00  0.00    +0.000 C 
ATOM     27  H   UNL     1      46.459   2.784  18.516  0.00  0.00    +0.000 HD
ENDBRANCH  22  23
ENDBRANCH  20  22
ENDBRANCH  15  16
ENDBRANCH   1  15
TORSDOF 6
ENDMDL
MODEL 8
REMARK VINA RESULT:    -6.175      3.072      7.258
REMARK INTER + INTRA:          -9.083
REMARK INTER:                  -8.720
REMARK INTRA:                  -0.364
REMARK UNBOUND:                -0.742
REMARK  Name = 
REMARK  6 active torsions:
REMARK  status: ('A' for Active; 'I' for Inactive)
REMARK    1  A    between atoms: C_2  and  C_4
REMARK    2  A    between atoms: N_8  and  C_9
REMARK    3  A    between atoms: C_9  and  C_10
REMARK    4  A    between atoms: C_10  and  C_11
REMARK    5  A    between atoms: C_15  and  O_16
REMARK    6  A    between atoms: O_16  and  C_17
REMARK                            x       y       z     vdW  Elec       q    Type
REMARK                         _______ _______ _______ _____ _____    ______ ____
ROOT
ATOM      1  C   UNL     1      46.792   4.765  13.858  0.00  0.00    +0.000 C 
ENDROOT
BRANCH   1   6
ATOM      2  C   UNL     1      50.026   8.279  12.059  0.00  0.00    +0.000 A 
ATOM      3  C   UNL     1      48.885   7.747  11.462  0.00  0.00    +0.000 A 
ATOM      4  C   UNL     1      48.045   6.921  12.216  0.00  0.00    +0.000 A 
ATOM      5  C   UNL     1      48.365   6.631  13.538  0.00  0.00    +0.000 A 
ATOM      6  N   UNL     1      47.546   5.899  14.379  0.00  0.00    +0.000 N 
ATOM      7  N   UNL     1      49.482   7.118  14.115  0.00  0.00    +0.000 NA
ATOM      8  C   UNL     1      50.291   7.918  13.369  0.00  0.00    +0.000 A 
ATOM      9  H   UNL     1      48.077   5.731  15.230  0.00  0.00    +0.000 HD
BRANCH   2  11
ATOM     10  N   UNL     1      52.167   8.684  10.981  0.00  0.00    +0.000 N 
ATOM     11  C   UNL     1      50.952   9.190  11.356  0.00  0.00    +0.000 C 
ATOM     12  O   UNL     1      50.634  10.340  11.083  0.00  0.00    +0.000 OA
ATOM     13  H   UNL     1      52.744   9.283  10.404  0.00  0.00    +0.000 HD
ATOM     14  H   UNL     1      52.357   7.692  10.955  0.00  0.00    +0.000 HD
ENDBRANCH   2  11
ENDBRANCH   1   6
BRANCH   1  15
ATOM     15  C   UNL     1      45.350   5.191  13.546  0.00  0.00    +0.000 C 
BRANCH  15  16
ATOM     16  C   UNL     1      44.771   4.464  12.357  0.00  0.00    +0.000 A 
ATOM     17  C   UNL     1      43.816   3.458  12.520  0.00  0.00    +0.000 A 
ATOM     18  C   UNL     1      43.324   2.816  11.392  0.00  0.00    +0.000 A 
ATOM     19  N   UNL     1      43.720   3.092  10.131  0.00  0.00    +0.000 NA
ATOM     20  C   UNL     1      44.639   4.070   9.995  0.00  0.00    +0.000 A 
ATOM     21  C   UNL     1      45.186   4.774  11.056  0.00  0.00    +0.000 A 
BRANCH  20  22
ATOM     22  O   UNL     1      45.065   4.417   8.726  0.00  0.00    +0.000 OA
BRANCH  22  23
ATOM     23  C   UNL     1      45.301   3.312   7.820  0.00  0.00    +0.000 C 
ATOM     24  C   UNL     1      46.043   2.091   8.395  0.00  0.00    +0.000 C 
ATOM     25  N   UNL     1      47.041   2.163   7.317  0.00  0.00    +0.000 NA
ATOM     26  C   UNL     1      46.514   3.465   6.884  0.00  0.00    +0.000 C 
ATOM     27  H   UNL     1      46.946   1.427   6.620  0.00  0.00    +0.000 HD
ENDBRANCH  22  23
ENDBRANCH  20  22
ENDBRANCH  15  16
ENDBRANCH   1  15
TORSDOF 6
ENDMDL
