MODEL 1
REMARK VINA RESULT:    -8.456      0.000      0.000
REMARK INTER + INTRA:         -11.364
REMARK INTER:                 -10.434
REMARK INTRA:                  -0.930
REMARK UNBOUND:                -0.930
REMARK  Name = 
REMARK  6 active torsions:
REMARK  status: ('A' for Active; 'I' for Inactive)
REMARK    1  A    between atoms: C_1  and  C_2
REMARK    2  A    between atoms: C_2  and  C_3
REMARK    3  A    between atoms: C_2  and  C_4
REMARK    4  A    between atoms: C_2  and  C_19
REMARK    5  A    between atoms: C_5  and  C_6
REMARK    6  A    between atoms: C_10  and  C_11
REMARK                            x       y       z     vdW  Elec       q    Type
REMARK                         _______ _______ _______ _____ _____    ______ ____
ROOT
ATOM      1  C   UNL     1      44.876   5.807  10.932  0.00  0.00    +0.000 A 
ATOM      2  C   UNL     1      43.704   5.253  11.435  0.00  0.00    +0.000 A 
ATOM      3  N   UNL     1      43.176   4.082  11.017  0.00  0.00    +0.000 NA
ATOM      4  C   UNL     1      43.861   3.424  10.051  0.00  0.00    +0.000 A 
ATOM      5  C   UNL     1      45.053   3.861   9.469  0.00  0.00    +0.000 A 
ATOM      6  C   UNL     1      45.553   5.080   9.949  0.00  0.00    +0.000 A 
ENDROOT
BRANCH   5   7
ATOM      7  C   UNL     1      45.750   3.100   8.415  0.00  0.00    +0.000 A 
ATOM      8  C   UNL     1      46.237   3.734   7.252  0.00  0.00    +0.000 A 
ATOM      9  C   UNL     1      46.899   3.015   6.252  0.00  0.00    +0.000 A 
ATOM     10  C   UNL     1      47.101   1.651   6.395  0.00  0.00    +0.000 A 
ATOM     11  C   UNL     1      46.637   1.011   7.537  0.00  0.00    +0.000 A 
ATOM     12  F   UNL     1      46.834  -0.304   7.683  0.00  0.00    +0.000 F 
ATOM     13  C   UNL     1      45.970   1.717   8.531  0.00  0.00    +0.000 A 
ENDBRANCH   5   7
BRANCH   1  15
ATOM     14  C   UNL     1      46.652   7.296  11.840  0.00  0.00    +0.000 C 
ATOM     15  C   UNL     1      45.379   7.076  11.467  0.00  0.00    +0.000 C 
BRANCH  14  17
ATOM     16  C   UNL     1      46.253   9.756  12.003  0.00  0.00    +0.000 C 
ATOM     17  C   UNL     1      47.232   8.613  12.363  0.00  0.00    +0.000 C 
ATOM     18  C   UNL     1      47.242   8.527  13.912  0.00  0.00    +0.000 C 
BRANCH  17  19
ATOM     19  C   UNL     1      48.644   8.879  11.791  0.00  0.00    +0.000 A 
ATOM     20  C   UNL     1      49.063  10.178  11.448  0.00  0.00    +0.000 A 
ATOM     21  C   UNL     1      50.366  10.425  11.009  0.00  0.00    +0.000 A 
ATOM     22  C   UNL     1      51.275   9.381  10.923  0.00  0.00    +0.000 A 
ATOM     23  F   UNL     1      52.529   9.625  10.524  0.00  0.00    +0.000 F 
ATOM     24  C   UNL     1      50.904   8.091  11.262  0.00  0.00    +0.000 A 
ATOM     25  C   UNL     1      49.597   7.841  11.688  0.00  0.00    +0.000 A 
ENDBRANCH  17  19
ENDBRANCH  14  17
ENDBRANCH   1  15
TORSDOF 4
ENDMDL
MODEL 2
REMARK VINA RESULT:    -8.131      4.037      8.032
REMARK INTER + INTRA:         -10.963
REMARK INTER:                  -9.979
REMARK INTRA:                  -0.984
REMARK UNBOUND:                -0.930
REMARK  Name = 
REMARK  6 active torsions:
REMARK  status: ('A' for Active; 'I' for Inactive)
REMARK    1  A    between atoms: C_1  and  C_2
REMARK    2  A    between atoms: C_2  and  C_3
REMARK    3  A    between atoms: C_2  and  C_4
REMARK    4  A    between atoms: C_2  and  C_19
REMARK    5  A    between atoms: C_5  and  C_6
REMARK    6  A    between atoms: C_10  and  C_11
REMARK                            x       y       z     vdW  Elec       q    Type
REMARK                         _______ _______ _______ _____ _____    ______ ____
ROOT
ATOM      1  C   UNL     1      46.836   6.113  12.819  0.00  0.00    +0.000 A 
ATOM      2  C   UNL     1      47.558   7.293  12.673  0.00  0.00    +0.000 A 
ATOM      3  N   UNL     1      48.433   7.767  13.586  0.00  0.00    +0.000 NA
ATOM      4  C   UNL     1      48.602   7.017  14.702  0.00  0.00    +0.000 A 
ATOM      5  C   UNL     1      47.951   5.811  14.968  0.00  0.00    +0.000 A 
ATOM      6  C   UNL     1      47.060   5.370  13.980  0.00  0.00    +0.000 A 
ENDROOT
BRANCH   5   7
ATOM      7  C   UNL     1      48.176   5.042  16.208  0.00  0.00    +0.000 A 
ATOM      8  C   UNL     1      49.204   5.389  17.109  0.00  0.00    +0.000 A 
ATOM      9  C   UNL     1      49.419   4.663  18.286  0.00  0.00    +0.000 A 
ATOM     10  C   UNL     1      48.605   3.584  18.594  0.00  0.00    +0.000 A 
ATOM     11  C   UNL     1      47.582   3.233  17.722  0.00  0.00    +0.000 A 
ATOM     12  F   UNL     1      46.790   2.196  18.017  0.00  0.00    +0.000 F 
ATOM     13  C   UNL     1      47.369   3.943  16.547  0.00  0.00    +0.000 A 
ENDBRANCH   5   7
BRANCH   1  15
ATOM     14  C   UNL     1      45.379   4.446  11.682  0.00  0.00    +0.000 C 
ATOM     15  C   UNL     1      45.924   5.673  11.759  0.00  0.00    +0.000 C 
BRANCH  14  17
ATOM     16  C   UNL     1      43.496   2.863  11.254  0.00  0.00    +0.000 C 
ATOM     17  C   UNL     1      44.391   3.954  10.621  0.00  0.00    +0.000 C 
ATOM     18  C   UNL     1      43.450   5.141  10.286  0.00  0.00    +0.000 C 
BRANCH  17  19
ATOM     19  C   UNL     1      45.122   3.426   9.365  0.00  0.00    +0.000 A 
ATOM     20  C   UNL     1      45.662   4.306   8.407  0.00  0.00    +0.000 A 
ATOM     21  C   UNL     1      46.392   3.828   7.316  0.00  0.00    +0.000 A 
ATOM     22  C   UNL     1      46.608   2.465   7.174  0.00  0.00    +0.000 A 
ATOM     23  F   UNL     1      47.328   2.012   6.141  0.00  0.00    +0.000 F 
ATOM     24  C   UNL     1      46.103   1.569   8.101  0.00  0.00    +0.000 A 
ATOM     25  C   UNL     1      45.362   2.045   9.185  0.00  0.00    +0.000 A 
ENDBRANCH  17  19
ENDBRANCH  14  17
ENDBRANCH   1  15
TORSDOF 4
ENDMDL
MODEL 3
REMARK VINA RESULT:    -8.118      0.943      1.652
REMARK INTER + INTRA:         -10.946
REMARK INTER:                 -10.016
REMARK INTRA:                  -0.930
REMARK UNBOUND:                -0.930
REMARK  Name = 
REMARK  6 active torsions:
REMARK  status: ('A' for Active; 'I' for Inactive)
REMARK    1  A    between atoms: C_1  and  C_2
REMARK    2  A    between atoms: C_2  and  C_3
REMARK    3  A    between atoms: C_2  and  C_4
REMARK    4  A    between atoms: C_2  and  C_19
REMARK    5  A    between atoms: C_5  and  C_6
REMARK    6  A    between atoms: C_10  and  C_11
REMARK                            x       y       z     vdW  Elec       q    Type
REMARK                         _______ _______ _______ _____ _____    ______ ____
ROOT
ATOM      1  C   UNL     1      44.896   5.798  10.939  0.00  0.00    +0.000 A 
ATOM      2  C   UNL     1      43.726   5.257  11.460  0.00  0.00    +0.000 A 
ATOM      3  N   UNL     1      43.183   4.088  11.057  0.00  0.00    +0.000 NA
ATOM      4  C   UNL     1      43.849   3.419  10.086  0.00  0.00    +0.000 A 
ATOM      5  C   UNL     1      45.037   3.843   9.485  0.00  0.00    +0.000 A 
ATOM      6  C   UNL     1      45.552   5.061   9.950  0.00  0.00    +0.000 A 
ENDROOT
BRANCH   5   7
ATOM      7  C   UNL     1      45.713   3.070   8.426  0.00  0.00    +0.000 A 
ATOM      8  C   UNL     1      46.022   1.705   8.598  0.00  0.00    +0.000 A 
ATOM      9  C   UNL     1      46.662   0.968   7.595  0.00  0.00    +0.000 A 
ATOM     10  C   UNL     1      46.996   1.575   6.395  0.00  0.00    +0.000 A 
ATOM     11  C   UNL     1      46.691   2.917   6.203  0.00  0.00    +0.000 A 
ATOM     12  F   UNL     1      47.006   3.506   5.045  0.00  0.00    +0.000 F 
ATOM     13  C   UNL     1      46.064   3.657   7.198  0.00  0.00    +0.000 A 
ENDBRANCH   5   7
BRANCH   1  15
ATOM     14  C   UNL     1      46.664   7.246  11.925  0.00  0.00    +0.000 C 
ATOM     15  C   UNL     1      45.416   7.067  11.458  0.00  0.00    +0.000 C 
BRANCH  14  17
ATOM     16  C   UNL     1      46.354   9.723  11.984  0.00  0.00    +0.000 C 
ATOM     17  C   UNL     1      47.265   8.557  12.438  0.00  0.00    +0.000 C 
ATOM     18  C   UNL     1      47.182   8.525  13.987  0.00  0.00    +0.000 C 
BRANCH  17  19
ATOM     19  C   UNL     1      48.717   8.749  11.942  0.00  0.00    +0.000 A 
ATOM     20  C   UNL     1      49.568   7.649  11.725  0.00  0.00    +0.000 A 
ATOM     21  C   UNL     1      50.852   7.821  11.201  0.00  0.00    +0.000 A 
ATOM     22  C   UNL     1      51.298   9.092  10.870  0.00  0.00    +0.000 A 
ATOM     23  F   UNL     1      52.519   9.249  10.346  0.00  0.00    +0.000 F 
ATOM     24  C   UNL     1      50.486  10.197  11.059  0.00  0.00    +0.000 A 
ATOM     25  C   UNL     1      49.207  10.028  11.595  0.00  0.00    +0.000 A 
ENDBRANCH  17  19
ENDBRANCH  14  17
ENDBRANCH   1  15
TORSDOF 4
ENDMDL
MODEL 4
REMARK VINA RESULT:    -8.029      2.175      3.019
REMARK INTER + INTRA:         -10.837
REMARK INTER:                  -9.851
REMARK INTRA:                  -0.986
REMARK UNBOUND:                -0.930
REMARK  Name = 
REMARK  6 active torsions:
REMARK  status: ('A' for Active; 'I' for Inactive)
REMARK    1  A    between atoms: C_1  and  C_2
REMARK    2  A    between atoms: C_2  and  C_3
REMARK    3  A    between atoms: C_2  and  C_4
REMARK    4  A    between atoms: C_2  and  C_19
REMARK    5  A    between atoms: C_5  and  C_6
REMARK    6  A    between atoms: C_10  and  C_11
REMARK                            x       y       z     vdW  Elec       q    Type
REMARK                         _______ _______ _______ _____ _____    ______ ____
ROOT
ATOM      1  C   UNL     1      45.205   6.189  11.041  0.00  0.00    +0.000 A 
ATOM      2  C   UNL     1      43.878   5.914  11.354  0.00  0.00    +0.000 A 
ATOM      3  N   UNL     1      43.156   4.919  10.796  0.00  0.00    +0.000 NA
ATOM      4  C   UNL     1      43.795   4.152   9.881  0.00  0.00    +0.000 A 
ATOM      5  C   UNL     1      45.125   4.311   9.484  0.00  0.00    +0.000 A 
ATOM      6  C   UNL     1      45.823   5.358  10.104  0.00  0.00    +0.000 A 
ENDROOT
BRANCH   5   7
ATOM      7  C   UNL     1      45.764   3.443   8.477  0.00  0.00    +0.000 A 
ATOM      8  C   UNL     1      46.336   3.979   7.304  0.00  0.00    +0.000 A 
ATOM      9  C   UNL     1      46.944   3.159   6.348  0.00  0.00    +0.000 A 
ATOM     10  C   UNL     1      47.006   1.789   6.547  0.00  0.00    +0.000 A 
ATOM     11  C   UNL     1      46.456   1.244   7.701  0.00  0.00    +0.000 A 
ATOM     12  F   UNL     1      46.518  -0.077   7.901  0.00  0.00    +0.000 F 
ATOM     13  C   UNL     1      45.842   2.051   8.650  0.00  0.00    +0.000 A 
ENDBRANCH   5   7
BRANCH   1  15
ATOM     14  C   UNL     1      47.245   7.353  11.865  0.00  0.00    +0.000 C 
ATOM     15  C   UNL     1      45.910   7.281  11.719  0.00  0.00    +0.000 C 
BRANCH  14  17
ATOM     16  C   UNL     1      49.320   8.735  11.710  0.00  0.00    +0.000 C 
ATOM     17  C   UNL     1      48.028   8.491  12.525  0.00  0.00    +0.000 C 
ATOM     18  C   UNL     1      47.176   9.780  12.377  0.00  0.00    +0.000 C 
BRANCH  17  19
ATOM     19  C   UNL     1      48.345   8.178  14.006  0.00  0.00    +0.000 A 
ATOM     20  C   UNL     1      48.212   9.158  15.007  0.00  0.00    +0.000 A 
ATOM     21  C   UNL     1      48.420   8.850  16.354  0.00  0.00    +0.000 A 
ATOM     22  C   UNL     1      48.749   7.553  16.722  0.00  0.00    +0.000 A 
ATOM     23  F   UNL     1      48.926   7.257  18.015  0.00  0.00    +0.000 F 
ATOM     24  C   UNL     1      48.879   6.559  15.767  0.00  0.00    +0.000 A 
ATOM     25  C   UNL     1      48.683   6.870  14.420  0.00  0.00    +0.000 A 
ENDBRANCH  17  19
ENDBRANCH  14  17
ENDBRANCH   1  15
TORSDOF 4
ENDMDL
MODEL 5
REMARK VINA RESULT:    -7.972      4.156      8.245
REMARK INTER + INTRA:         -10.767
REMARK INTER:                  -9.780
REMARK INTRA:                  -0.987
REMARK UNBOUND:                -0.930
REMARK  Name = 
REMARK  6 active torsions:
REMARK  status: ('A' for Active; 'I' for Inactive)
REMARK    1  A    between atoms: C_1  and  C_2
REMARK    2  A    between atoms: C_2  and  C_3
REMARK    3  A    between atoms: C_2  and  C_4
REMARK    4  A    between atoms: C_2  and  C_19
REMARK    5  A    between atoms: C_5  and  C_6
REMARK    6  A    between atoms: C_10  and  C_11
REMARK                            x       y       z     vdW  Elec       q    Type
REMARK                         _______ _______ _______ _____ _____    ______ ____
ROOT
ATOM      1  C   UNL     1      46.820   5.980  13.069  0.00  0.00    +0.000 A 
ATOM      2  C   UNL     1      47.565   7.147  12.938  0.00  0.00    +0.000 A 
ATOM      3  N   UNL     1      48.459   7.584  13.851  0.00  0.00    +0.000 NA
ATOM      4  C   UNL     1      48.623   6.810  14.951  0.00  0.00    +0.000 A 
ATOM      5  C   UNL     1      47.949   5.613  15.201  0.00  0.00    +0.000 A 
ATOM      6  C   UNL     1      47.039   5.210  14.214  0.00  0.00    +0.000 A 
ENDROOT
BRANCH   5   7
ATOM      7  C   UNL     1      48.169   4.816  16.424  0.00  0.00    +0.000 A 
ATOM      8  C   UNL     1      47.405   3.663  16.695  0.00  0.00    +0.000 A 
ATOM      9  C   UNL     1      47.612   2.904  17.852  0.00  0.00    +0.000 A 
ATOM     10  C   UNL     1      48.595   3.274  18.757  0.00  0.00    +0.000 A 
ATOM     11  C   UNL     1      49.364   4.403  18.502  0.00  0.00    +0.000 A 
ATOM     12  F   UNL     1      50.317   4.761  19.370  0.00  0.00    +0.000 F 
ATOM     13  C   UNL     1      49.157   5.166  17.360  0.00  0.00    +0.000 A 
ENDBRANCH   5   7
BRANCH   1  15
ATOM     14  C   UNL     1      45.310   4.368  11.921  0.00  0.00    +0.000 C 
ATOM     15  C   UNL     1      45.887   5.579  12.011  0.00  0.00    +0.000 C 
BRANCH  14  17
ATOM     16  C   UNL     1      43.435   2.785  11.460  0.00  0.00    +0.000 C 
ATOM     17  C   UNL     1      44.300   3.918  10.861  0.00  0.00    +0.000 C 
ATOM     18  C   UNL     1      43.337   5.109  10.611  0.00  0.00    +0.000 C 
BRANCH  17  19
ATOM     19  C   UNL     1      45.005   3.465   9.561  0.00  0.00    +0.000 A 
ATOM     20  C   UNL     1      45.494   4.399   8.629  0.00  0.00    +0.000 A 
ATOM     21  C   UNL     1      46.201   3.988   7.496  0.00  0.00    +0.000 A 
ATOM     22  C   UNL     1      46.446   2.638   7.288  0.00  0.00    +0.000 A 
ATOM     23  F   UNL     1      47.144   2.250   6.214  0.00  0.00    +0.000 F 
ATOM     24  C   UNL     1      45.990   1.690   8.188  0.00  0.00    +0.000 A 
ATOM     25  C   UNL     1      45.272   2.099   9.314  0.00  0.00    +0.000 A 
ENDBRANCH  17  19
ENDBRANCH  14  17
ENDBRANCH   1  15
TORSDOF 4
ENDMDL
MODEL 6
REMARK VINA RESULT:    -7.536      4.599      8.892
REMARK INTER + INTRA:         -10.229
REMARK INTER:                  -9.295
REMARK INTRA:                  -0.934
REMARK UNBOUND:                -0.930
REMARK  Name = 
REMARK  6 active torsions:
REMARK  status: ('A' for Active; 'I' for Inactive)
REMARK    1  A    between atoms: C_1  and  C_2
REMARK    2  A    between atoms: C_2  and  C_3
REMARK    3  A    between atoms: C_2  and  C_4
REMARK    4  A    between atoms: C_2  and  C_19
REMARK    5  A    between atoms: C_5  and  C_6
REMARK    6  A    between atoms: C_10  and  C_11
REMARK                            x       y       z     vdW  Elec       q    Type
REMARK                         _______ _______ _______ _____ _____    ______ ____
ROOT
ATOM      1  C   UNL     1      47.200   5.202  13.946  0.00  0.00    +0.000 A 
ATOM      2  C   UNL     1      48.010   6.177  13.372  0.00  0.00    +0.000 A 
ATOM      3  N   UNL     1      48.940   6.886  14.047  0.00  0.00    +0.000 NA
ATOM      4  C   UNL     1      49.075   6.602  15.364  0.00  0.00    +0.000 A 
ATOM      5  C   UNL     1      48.337   5.643  16.061  0.00  0.00    +0.000 A 
ATOM      6  C   UNL     1      47.391   4.936  15.305  0.00  0.00    +0.000 A 
ENDROOT
BRANCH   5   7
ATOM      7  C   UNL     1      48.528   5.382  17.501  0.00  0.00    +0.000 A 
ATOM      8  C   UNL     1      49.658   4.685  17.976  0.00  0.00    +0.000 A 
ATOM      9  C   UNL     1      49.843   4.438  19.340  0.00  0.00    +0.000 A 
ATOM     10  C   UNL     1      48.912   4.892  20.260  0.00  0.00    +0.000 A 
ATOM     11  C   UNL     1      47.797   5.589  19.812  0.00  0.00    +0.000 A 
ATOM     12  F   UNL     1      46.897   6.034  20.696  0.00  0.00    +0.000 F 
ATOM     13  C   UNL     1      47.601   5.830  18.457  0.00  0.00    +0.000 A 
ENDBRANCH   5   7
BRANCH   1  15
ATOM     14  C   UNL     1      45.131   5.016  12.575  0.00  0.00    +0.000 C 
ATOM     15  C   UNL     1      46.231   4.471  13.124  0.00  0.00    +0.000 C 
BRANCH  14  17
ATOM     16  C   UNL     1      43.528   3.105  12.456  0.00  0.00    +0.000 C 
ATOM     17  C   UNL     1      44.116   4.305  11.677  0.00  0.00    +0.000 C 
ATOM     18  C   UNL     1      42.937   5.290  11.449  0.00  0.00    +0.000 C 
BRANCH  17  19
ATOM     19  C   UNL     1      44.755   3.854  10.342  0.00  0.00    +0.000 A 
ATOM     20  C   UNL     1      44.706   2.511   9.925  0.00  0.00    +0.000 A 
ATOM     21  C   UNL     1      45.213   2.121   8.682  0.00  0.00    +0.000 A 
ATOM     22  C   UNL     1      45.760   3.071   7.832  0.00  0.00    +0.000 A 
ATOM     23  F   UNL     1      46.224   2.697   6.633  0.00  0.00    +0.000 F 
ATOM     24  C   UNL     1      45.816   4.403   8.203  0.00  0.00    +0.000 A 
ATOM     25  C   UNL     1      45.322   4.792   9.450  0.00  0.00    +0.000 A 
ENDBRANCH  17  19
ENDBRANCH  14  17
ENDBRANCH   1  15
TORSDOF 4
ENDMDL
MODEL 7
REMARK VINA RESULT:    -7.438      2.516      7.953
REMARK INTER + INTRA:         -10.108
REMARK INTER:                  -9.140
REMARK INTRA:                  -0.968
REMARK UNBOUND:                -0.930
REMARK  Name = 
REMARK  6 active torsions:
REMARK  status: ('A' for Active; 'I' for Inactive)
REMARK    1  A    between atoms: C_1  and  C_2
REMARK    2  A    between atoms: C_2  and  C_3
REMARK    3  A    between atoms: C_2  and  C_4
REMARK    4  A    between atoms: C_2  and  C_19
REMARK    5  A    between atoms: C_5  and  C_6
REMARK    6  A    between atoms: C_10  and  C_11
REMARK                            x       y       z     vdW  Elec       q    Type
REMARK                         _______ _______ _______ _____ _____    ______ ____
ROOT
ATOM      1  C   UNL     1      46.792   5.008  13.988  0.00  0.00    +0.000 A 
ATOM      2  C   UNL     1      47.209   4.470  15.201  0.00  0.00    +0.000 A 
ATOM      3  N   UNL     1      48.129   5.039  16.009  0.00  0.00    +0.000 NA
ATOM      4  C   UNL     1      48.656   6.213  15.587  0.00  0.00    +0.000 A 
ATOM      5  C   UNL     1      48.320   6.866  14.399  0.00  0.00    +0.000 A 
ATOM      6  C   UNL     1      47.355   6.228  13.606  0.00  0.00    +0.000 A 
ENDROOT
BRANCH   5   7
ATOM      7  C   UNL     1      48.935   8.144  13.992  0.00  0.00    +0.000 A 
ATOM      8  C   UNL     1      49.176   9.173  14.926  0.00  0.00    +0.000 A 
ATOM      9  C   UNL     1      49.760  10.385  14.544  0.00  0.00    +0.000 A 
ATOM     10  C   UNL     1      50.127  10.592  13.223  0.00  0.00    +0.000 A 
ATOM     11  C   UNL     1      49.906   9.587  12.290  0.00  0.00    +0.000 A 
ATOM     12  F   UNL     1      50.263   9.779  11.016  0.00  0.00    +0.000 F 
ATOM     13  C   UNL     1      49.317   8.384  12.661  0.00  0.00    +0.000 A 
ENDBRANCH   5   7
BRANCH   1  15
ATOM     14  C   UNL     1      45.281   4.776  12.023  0.00  0.00    +0.000 C 
ATOM     15  C   UNL     1      45.771   4.322  13.190  0.00  0.00    +0.000 C 
BRANCH  14  17
ATOM     16  C   UNL     1      43.615   2.919  11.942  0.00  0.00    +0.000 C 
ATOM     17  C   UNL     1      44.248   4.077  11.136  0.00  0.00    +0.000 C 
ATOM     18  C   UNL     1      43.105   5.095  10.876  0.00  0.00    +0.000 C 
BRANCH  17  19
ATOM     19  C   UNL     1      44.880   3.570   9.819  0.00  0.00    +0.000 A 
ATOM     20  C   UNL     1      45.406   4.464   8.868  0.00  0.00    +0.000 A 
ATOM     21  C   UNL     1      46.049   4.000   7.717  0.00  0.00    +0.000 A 
ATOM     22  C   UNL     1      46.189   2.636   7.508  0.00  0.00    +0.000 A 
ATOM     23  F   UNL     1      46.826   2.195   6.416  0.00  0.00    +0.000 F 
ATOM     24  C   UNL     1      45.694   1.726   8.426  0.00  0.00    +0.000 A 
ATOM     25  C   UNL     1      45.040   2.189   9.570  0.00  0.00    +0.000 A 
ENDBRANCH  17  19
ENDBRANCH  14  17
ENDBRANCH   1  15
TORSDOF 4
ENDMDL
MODEL 8
REMARK VINA RESULT:    -6.935      5.270      6.747
REMARK INTER + INTRA:          -9.487
REMARK INTER:                  -8.470
REMARK INTRA:                  -1.018
REMARK UNBOUND:                -0.930
REMARK  Name = 
REMARK  6 active torsions:
REMARK  status: ('A' for Active; 'I' for Inactive)
REMARK    1  A    between atoms: C_1  and  C_2
REMARK    2  A    between atoms: C_2  and  C_3
REMARK    3  A    between atoms: C_2  and  C_4
REMARK    4  A    between atoms: C_2  and  C_19
REMARK    5  A    between atoms: C_5  and  C_6
REMARK    6  A    between atoms: C_10  and  C_11
REMARK                            x       y       z     vdW  Elec       q    Type
REMARK                         _______ _______ _______ _____ _____    ______ ____
ROOT
ATOM      1  C   UNL     1      48.128   6.729  14.158  0.00  0.00    +0.000 A 
ATOM      2  C   UNL     1      48.421   7.876  13.428  0.00  0.00    +0.000 A 
ATOM      3  N   UNL     1      47.880   8.171  12.226  0.00  0.00    +0.000 NA
ATOM      4  C   UNL     1      46.992   7.277  11.730  0.00  0.00    +0.000 A 
ATOM      5  C   UNL     1      46.601   6.094  12.363  0.00  0.00    +0.000 A 
ATOM      6  C   UNL     1      47.193   5.847  13.609  0.00  0.00    +0.000 A 
ENDROOT
BRANCH   5   7
ATOM      7  C   UNL     1      45.630   5.156  11.767  0.00  0.00    +0.000 A 
ATOM      8  C   UNL     1      45.298   5.217  10.397  0.00  0.00    +0.000 A 
ATOM      9  C   UNL     1      44.379   4.328   9.829  0.00  0.00    +0.000 A 
ATOM     10  C   UNL     1      43.781   3.353  10.612  0.00  0.00    +0.000 A 
ATOM     11  C   UNL     1      44.103   3.273  11.961  0.00  0.00    +0.000 A 
ATOM     12  F   UNL     1      43.533   2.330  12.720  0.00  0.00    +0.000 F 
ATOM     13  C   UNL     1      45.008   4.158  12.534  0.00  0.00    +0.000 A 
ENDBRANCH   5   7
BRANCH   1  15
ATOM     14  C   UNL     1      48.331   5.609  16.372  0.00  0.00    +0.000 C 
ATOM     15  C   UNL     1      48.754   6.508  15.465  0.00  0.00    +0.000 C 
BRANCH  14  17
ATOM     16  C   UNL     1      49.794   6.553  18.162  0.00  0.00    +0.000 C 
ATOM     17  C   UNL     1      48.976   5.314  17.729  0.00  0.00    +0.000 C 
ATOM     18  C   UNL     1      47.826   5.174  18.761  0.00  0.00    +0.000 C 
BRANCH  17  19
ATOM     19  C   UNL     1      49.859   4.045  17.674  0.00  0.00    +0.000 A 
ATOM     20  C   UNL     1      49.357   2.824  17.184  0.00  0.00    +0.000 A 
ATOM     21  C   UNL     1      50.181   1.702  17.060  0.00  0.00    +0.000 A 
ATOM     22  C   UNL     1      51.520   1.787  17.409  0.00  0.00    +0.000 A 
ATOM     23  F   UNL     1      52.311   0.717  17.268  0.00  0.00    +0.000 F 
ATOM     24  C   UNL     1      52.053   2.973  17.885  0.00  0.00    +0.000 A 
ATOM     25  C   UNL     1      51.227   4.092  18.021  0.00  0.00    +0.000 A 
ENDBRANCH  17  19
ENDBRANCH  14  17
ENDBRANCH   1  15
TORSDOF 4
ENDMDL
MODEL 9
REMARK VINA RESULT:    -6.798      2.182      7.859
REMARK INTER + INTRA:          -9.318
REMARK INTER:                  -8.387
REMARK INTRA:                  -0.931
REMARK UNBOUND:                -0.930
REMARK  Name = 
REMARK  6 active torsions:
REMARK  status: ('A' for Active; 'I' for Inactive)
REMARK    1  A    between atoms: C_1  and  C_2
REMARK    2  A    between atoms: C_2  and  C_3
REMARK    3  A    between atoms: C_2  and  C_4
REMARK    4  A    between atoms: C_2  and  C_19
REMARK    5  A    between atoms: C_5  and  C_6
REMARK    6  A    between atoms: C_10  and  C_11
REMARK                            x       y       z     vdW  Elec       q    Type
REMARK                         _______ _______ _______ _____ _____    ______ ____
ROOT
ATOM      1  C   UNL     1      45.718   8.007  11.797  0.00  0.00    +0.000 A 
ATOM      2  C   UNL     1      45.082   9.244  11.817  0.00  0.00    +0.000 A 
ATOM      3  N   UNL     1      45.707  10.417  12.050  0.00  0.00    +0.000 NA
ATOM      4  C   UNL     1      47.043  10.354  12.266  0.00  0.00    +0.000 A 
ATOM      5  C   UNL     1      47.805   9.184  12.263  0.00  0.00    +0.000 A 
ATOM      6  C   UNL     1      47.099   8.000  12.010  0.00  0.00    +0.000 A 
ENDROOT
BRANCH   5   7
ATOM      7  C   UNL     1      49.260   9.181  12.511  0.00  0.00    +0.000 A 
ATOM      8  C   UNL     1      50.181   9.443  11.475  0.00  0.00    +0.000 A 
ATOM      9  C   UNL     1      51.560   9.442  11.707  0.00  0.00    +0.000 A 
ATOM     10  C   UNL     1      52.050   9.192  12.979  0.00  0.00    +0.000 A 
ATOM     11  C   UNL     1      51.157   8.941  14.014  0.00  0.00    +0.000 A 
ATOM     12  F   UNL     1      51.624   8.704  15.245  0.00  0.00    +0.000 F 
ATOM     13  C   UNL     1      49.786   8.931  13.789  0.00  0.00    +0.000 A 
ENDBRANCH   5   7
BRANCH   1  15
ATOM     14  C   UNL     1      45.495   5.615  11.146  0.00  0.00    +0.000 C 
ATOM     15  C   UNL     1      44.953   6.789  11.514  0.00  0.00    +0.000 C 
BRANCH  14  17
ATOM     16  C   UNL     1      44.929   3.380  12.105  0.00  0.00    +0.000 C 
ATOM     17  C   UNL     1      44.743   4.309  10.882  0.00  0.00    +0.000 C 
ATOM     18  C   UNL     1      43.230   4.653  10.830  0.00  0.00    +0.000 C 
BRANCH  17  19
ATOM     19  C   UNL     1      45.224   3.629   9.578  0.00  0.00    +0.000 A 
ATOM     20  C   UNL     1      45.713   4.385   8.496  0.00  0.00    +0.000 A 
ATOM     21  C   UNL     1      46.222   3.764   7.352  0.00  0.00    +0.000 A 
ATOM     22  C   UNL     1      46.266   2.380   7.280  0.00  0.00    +0.000 A 
ATOM     23  F   UNL     1      46.776   1.789   6.193  0.00  0.00    +0.000 F 
ATOM     24  C   UNL     1      45.804   1.603   8.329  0.00  0.00    +0.000 A 
ATOM     25  C   UNL     1      45.283   2.222   9.467  0.00  0.00    +0.000 A 
ENDBRANCH  17  19
ENDBRANCH  14  17
ENDBRANCH   1  15
TORSDOF 4
ENDMDL
