MODEL 1
REMARK VINA RESULT:    -8.293      0.000      0.000
REMARK INTER + INTRA:         -11.302
REMARK INTER:                 -10.717
REMARK INTRA:                  -0.584
REMARK UNBOUND:                -0.584
REMARK  Name = 
REMARK  5 active torsions:
REMARK  status: ('A' for Active; 'I' for Inactive)
REMARK    1  A    between atoms: C_2  and  C_4
REMARK    2  A    between atoms: C_7  and  N_8
REMARK    3  A    between atoms: N_8  and  C_9
REMARK    4  A    between atoms: C_9  and  C_10
REMARK    5  A    between atoms: C_13  and  C_14
REMARK                            x       y       z     vdW  Elec       q    Type
REMARK                         _______ _______ _______ _____ _____    ______ ____
ROOT
ATOM      1  N   UNL     1      44.572   5.896  10.802  0.00  0.00    +0.000 N 
ATOM      2  H   UNL     1      44.125   6.811  10.853  0.00  0.00    +0.000 HD
ENDROOT
BRANCH   1   6
ATOM      3  C   UNL     1      46.671   4.665  14.129  0.00  0.00    +0.000 A 
ATOM      4  N   UNL     1      45.440   4.129  13.960  0.00  0.00    +0.000 NA
ATOM      5  C   UNL     1      44.760   4.572  12.880  0.00  0.00    +0.000 A 
ATOM      6  C   UNL     1      45.213   5.523  11.977  0.00  0.00    +0.000 A 
ATOM      7  C   UNL     1      46.504   5.957  12.260  0.00  0.00    +0.000 A 
ATOM      8  N   UNL     1      47.246   5.570  13.319  0.00  0.00    +0.000 NA
BRANCH   3  10
ATOM      9  N   UNL     1      47.537   5.013  16.389  0.00  0.00    +0.000 N 
ATOM     10  C   UNL     1      47.470   4.160  15.310  0.00  0.00    +0.000 C 
ATOM     11  O   UNL     1      48.024   3.067  15.348  0.00  0.00    +0.000 OA
ATOM     12  H   UNL     1      48.031   4.714  17.217  0.00  0.00    +0.000 HD
ATOM     13  H   UNL     1      47.055   5.904  16.366  0.00  0.00    +0.000 HD
ENDBRANCH   3  10
ENDBRANCH   1   6
BRANCH   1  14
ATOM     14  C   UNL     1      43.730   4.952  10.064  0.00  0.00    +0.000 C 
BRANCH  14  15
ATOM     15  C   UNL     1      44.600   4.008   9.253  0.00  0.00    +0.000 A 
ATOM     16  C   UNL     1      44.552   2.636   9.502  0.00  0.00    +0.000 A 
ATOM     17  C   UNL     1      45.365   1.785   8.760  0.00  0.00    +0.000 A 
ATOM     18  C   UNL     1      46.209   2.314   7.783  0.00  0.00    +0.000 A 
ATOM     19  C   UNL     1      46.183   3.689   7.591  0.00  0.00    +0.000 A 
ATOM     20  N   UNL     1      45.405   4.542   8.301  0.00  0.00    +0.000 NA
BRANCH  18  21
ATOM     21  C   UNL     1      47.130   1.467   6.962  0.00  0.00    +0.000 C 
ATOM     22  F   UNL     1      46.953   0.130   7.155  0.00  0.00    +0.000 F 
ATOM     23  F   UNL     1      46.980   1.675   5.625  0.00  0.00    +0.000 F 
ATOM     24  F   UNL     1      48.442   1.711   7.234  0.00  0.00    +0.000 F 
ENDBRANCH  18  21
ENDBRANCH  14  15
ENDBRANCH   1  14
TORSDOF 5
ENDMDL
MODEL 2
REMARK VINA RESULT:    -8.232      0.184      1.322
REMARK INTER + INTRA:         -11.223
REMARK INTER:                 -10.673
REMARK INTRA:                  -0.550
REMARK UNBOUND:                -0.584
REMARK  Name = 
REMARK  5 active torsions:
REMARK  status: ('A' for Active; 'I' for Inactive)
REMARK    1  A    between atoms: C_2  and  C_4
REMARK    2  A    between atoms: C_7  and  N_8
REMARK    3  A    between atoms: N_8  and  C_9
REMARK    4  A    between atoms: C_9  and  C_10
REMARK    5  A    between atoms: C_13  and  C_14
REMARK                            x       y       z     vdW  Elec       q    Type
REMARK                         _______ _______ _______ _____ _____    ______ ____
ROOT
ATOM      1  N   UNL     1      44.623   5.851  10.915  0.00  0.00    +0.000 N 
ATOM      2  H   UNL     1      44.133   6.730  11.083  0.00  0.00    +0.000 HD
ENDROOT
BRANCH   1   6
ATOM      3  C   UNL     1      46.755   4.735  14.262  0.00  0.00    +0.000 A 
ATOM      4  N   UNL     1      47.332   5.659  13.459  0.00  0.00    +0.000 NA
ATOM      5  C   UNL     1      46.628   5.985  12.353  0.00  0.00    +0.000 A 
ATOM      6  C   UNL     1      45.407   5.438  11.985  0.00  0.00    +0.000 A 
ATOM      7  C   UNL     1      44.925   4.529  12.921  0.00  0.00    +0.000 A 
ATOM      8  N   UNL     1      45.568   4.145  14.045  0.00  0.00    +0.000 NA
BRANCH   3  10
ATOM      9  N   UNL     1      47.506   5.343  16.508  0.00  0.00    +0.000 N 
ATOM     10  C   UNL     1      47.505   4.378  15.526  0.00  0.00    +0.000 C 
ATOM     11  O   UNL     1      48.073   3.308  15.708  0.00  0.00    +0.000 OA
ATOM     12  H   UNL     1      47.965   5.146  17.386  0.00  0.00    +0.000 HD
ATOM     13  H   UNL     1      47.012   6.217  16.366  0.00  0.00    +0.000 HD
ENDBRANCH   3  10
ENDBRANCH   1   6
BRANCH   1  14
ATOM     14  C   UNL     1      43.762   4.910  10.196  0.00  0.00    +0.000 C 
BRANCH  14  15
ATOM     15  C   UNL     1      44.609   3.980   9.346  0.00  0.00    +0.000 A 
ATOM     16  C   UNL     1      44.595   2.608   9.596  0.00  0.00    +0.000 A 
ATOM     17  C   UNL     1      45.387   1.770   8.817  0.00  0.00    +0.000 A 
ATOM     18  C   UNL     1      46.175   2.313   7.801  0.00  0.00    +0.000 A 
ATOM     19  C   UNL     1      46.116   3.687   7.610  0.00  0.00    +0.000 A 
ATOM     20  N   UNL     1      45.359   4.527   8.356  0.00  0.00    +0.000 NA
BRANCH  18  21
ATOM     21  C   UNL     1      47.071   1.481   6.938  0.00  0.00    +0.000 C 
ATOM     22  F   UNL     1      48.396   1.658   7.203  0.00  0.00    +0.000 F 
ATOM     23  F   UNL     1      46.838   0.147   7.075  0.00  0.00    +0.000 F 
ATOM     24  F   UNL     1      46.916   1.754   5.613  0.00  0.00    +0.000 F 
ENDBRANCH  18  21
ENDBRANCH  14  15
ENDBRANCH   1  14
TORSDOF 5
ENDMDL
MODEL 3
REMARK VINA RESULT:    -7.896      1.769      2.188
REMARK INTER + INTRA:         -10.788
REMARK INTER:                 -10.201
REMARK INTRA:                  -0.587
REMARK UNBOUND:                -0.584
REMARK  Name = 
REMARK  5 active torsions:
REMARK  status: ('A' for Active; 'I' for Inactive)
REMARK    1  A    between atoms: C_2  and  C_4
REMARK    2  A    between atoms: C_7  and  N_8
REMARK    3  A    between atoms: N_8  and  C_9
REMARK    4  A    between atoms: C_9  and  C_10
REMARK    5  A    between atoms: C_13  and  C_14
REMARK                            x       y       z     vdW  Elec       q    Type
REMARK                         _______ _______ _______ _____ _____    ______ ____
ROOT
ATOM      1  N   UNL     1      44.456   2.979  12.245  0.00  0.00    +0.000 N 
ATOM      2  H   UNL     1      44.806   2.022  12.210  0.00  0.00    +0.000 HD
ENDROOT
BRANCH   1   6
ATOM      3  C   UNL     1      47.124   5.755  13.717  0.00  0.00    +0.000 A 
ATOM      4  N   UNL     1      47.516   4.461  13.759  0.00  0.00    +0.000 NA
ATOM      5  C   UNL     1      46.611   3.567  13.300  0.00  0.00    +0.000 A 
ATOM      6  C   UNL     1      45.344   3.876  12.827  0.00  0.00    +0.000 A 
ATOM      7  C   UNL     1      45.096   5.244  12.814  0.00  0.00    +0.000 A 
ATOM      8  N   UNL     1      45.941   6.199  13.260  0.00  0.00    +0.000 NA
BRANCH   3  10
ATOM      9  N   UNL     1      47.634   8.048  14.398  0.00  0.00    +0.000 N 
ATOM     10  C   UNL     1      48.131   6.780  14.192  0.00  0.00    +0.000 C 
ATOM     11  O   UNL     1      49.312   6.535  14.403  0.00  0.00    +0.000 OA
ATOM     12  H   UNL     1      48.255   8.765  14.744  0.00  0.00    +0.000 HD
ATOM     13  H   UNL     1      46.651   8.242  14.249  0.00  0.00    +0.000 HD
ENDBRANCH   3  10
ENDBRANCH   1   6
BRANCH   1  14
ATOM     14  C   UNL     1      43.740   3.312  11.012  0.00  0.00    +0.000 C 
BRANCH  14  15
ATOM     15  C   UNL     1      44.654   3.119   9.815  0.00  0.00    +0.000 A 
ATOM     16  C   UNL     1      45.128   4.231   9.120  0.00  0.00    +0.000 A 
ATOM     17  C   UNL     1      45.955   4.038   8.017  0.00  0.00    +0.000 A 
ATOM     18  C   UNL     1      46.297   2.742   7.629  0.00  0.00    +0.000 A 
ATOM     19  C   UNL     1      45.793   1.693   8.387  0.00  0.00    +0.000 A 
ATOM     20  N   UNL     1      44.983   1.851   9.462  0.00  0.00    +0.000 NA
BRANCH  18  21
ATOM     21  C   UNL     1      47.159   2.452   6.441  0.00  0.00    +0.000 C 
ATOM     22  F   UNL     1      47.212   1.129   6.119  0.00  0.00    +0.000 F 
ATOM     23  F   UNL     1      46.735   3.093   5.318  0.00  0.00    +0.000 F 
ATOM     24  F   UNL     1      48.450   2.841   6.628  0.00  0.00    +0.000 F 
ENDBRANCH  18  21
ENDBRANCH  14  15
ENDBRANCH   1  14
TORSDOF 5
ENDMDL
MODEL 4
REMARK VINA RESULT:    -7.547      4.248      6.702
REMARK INTER + INTRA:         -10.337
REMARK INTER:                  -9.720
REMARK INTRA:                  -0.617
REMARK UNBOUND:                -0.584
REMARK  Name = 
REMARK  5 active torsions:
REMARK  status: ('A' for Active; 'I' for Inactive)
REMARK    1  A    between atoms: C_2  and  C_4
REMARK    2  A    between atoms: C_7  and  N_8
REMARK    3  A    between atoms: N_8  and  C_9
REMARK    4  A    between atoms: C_9  and  C_10
REMARK    5  A    between atoms: C_13  and  C_14
REMARK                            x       y       z     vdW  Elec       q    Type
REMARK                         _______ _______ _______ _____ _____    ______ ____
ROOT
ATOM      1  N   UNL     1      43.710   4.760   9.926  0.00  0.00    +0.000 N 
ATOM      2  H   UNL     1      43.736   5.715   9.570  0.00  0.00    +0.000 HD
ENDROOT
BRANCH   1   6
ATOM      3  C   UNL     1      46.340   2.318   7.898  0.00  0.00    +0.000 A 
ATOM      4  N   UNL     1      45.500   1.709   8.767  0.00  0.00    +0.000 NA
ATOM      5  C   UNL     1      44.669   2.535   9.442  0.00  0.00    +0.000 A 
ATOM      6  C   UNL     1      44.638   3.917   9.326  0.00  0.00    +0.000 A 
ATOM      7  C   UNL     1      45.533   4.394   8.375  0.00  0.00    +0.000 A 
ATOM      8  N   UNL     1      46.399   3.640   7.664  0.00  0.00    +0.000 NA
BRANCH   3  10
ATOM      9  N   UNL     1      48.382   2.018   6.586  0.00  0.00    +0.000 N 
ATOM     10  C   UNL     1      47.257   1.415   7.102  0.00  0.00    +0.000 C 
ATOM     11  O   UNL     1      47.054   0.221   6.918  0.00  0.00    +0.000 OA
ATOM     12  H   UNL     1      49.045   1.456   6.072  0.00  0.00    +0.000 HD
ATOM     13  H   UNL     1      48.562   3.000   6.763  0.00  0.00    +0.000 HD
ENDBRANCH   3  10
ENDBRANCH   1   6
BRANCH   1  14
ATOM     14  C   UNL     1      43.505   4.754  11.376  0.00  0.00    +0.000 C 
BRANCH  14  15
ATOM     15  C   UNL     1      44.758   5.252  12.076  0.00  0.00    +0.000 A 
ATOM     16  C   UNL     1      45.403   4.434  13.004  0.00  0.00    +0.000 A 
ATOM     17  C   UNL     1      46.542   4.908  13.647  0.00  0.00    +0.000 A 
ATOM     18  C   UNL     1      47.019   6.187  13.353  0.00  0.00    +0.000 A 
ATOM     19  C   UNL     1      46.324   6.927  12.406  0.00  0.00    +0.000 A 
ATOM     20  N   UNL     1      45.211   6.493  11.768  0.00  0.00    +0.000 NA
BRANCH  18  21
ATOM     21  C   UNL     1      48.221   6.777  14.021  0.00  0.00    +0.000 C 
ATOM     22  F   UNL     1      48.552   6.156  15.188  0.00  0.00    +0.000 F 
ATOM     23  F   UNL     1      49.334   6.720  13.239  0.00  0.00    +0.000 F 
ATOM     24  F   UNL     1      48.051   8.091  14.333  0.00  0.00    +0.000 F 
ENDBRANCH  18  21
ENDBRANCH  14  15
ENDBRANCH   1  14
TORSDOF 5
ENDMDL
MODEL 5
REMARK VINA RESULT:    -6.979      2.515      3.151
REMARK INTER + INTRA:          -9.604
REMARK INTER:                  -9.092
REMARK INTRA:                  -0.512
REMARK UNBOUND:                -0.584
REMARK  Name = 
REMARK  5 active torsions:
REMARK  status: ('A' for Active; 'I' for Inactive)
REMARK    1  A    between atoms: C_2  and  C_4
REMARK    2  A    between atoms: C_7  and  N_8
REMARK    3  A    between atoms: N_8  and  C_9
REMARK    4  A    between atoms: C_9  and  C_10
REMARK    5  A    between atoms: C_13  and  C_14
REMARK                            x       y       z     vdW  Elec       q    Type
REMARK                         _______ _______ _______ _____ _____    ______ ____
ROOT
ATOM      1  N   UNL     1      44.582   5.073  11.861  0.00  0.00    +0.000 N 
ATOM      2  H   UNL     1      44.977   4.188  12.177  0.00  0.00    +0.000 HD
ENDROOT
BRANCH   1   6
ATOM      3  C   UNL     1      46.993   8.405  12.143  0.00  0.00    +0.000 A 
ATOM      4  N   UNL     1      47.610   7.237  11.849  0.00  0.00    +0.000 NA
ATOM      5  C   UNL     1      46.803   6.154  11.793  0.00  0.00    +0.000 A 
ATOM      6  C   UNL     1      45.436   6.156  12.032  0.00  0.00    +0.000 A 
ATOM      7  C   UNL     1      44.940   7.429  12.288  0.00  0.00    +0.000 A 
ATOM      8  N   UNL     1      45.677   8.558  12.368  0.00  0.00    +0.000 NA
BRANCH   3  10
ATOM      9  N   UNL     1      47.640  10.498  13.229  0.00  0.00    +0.000 N 
ATOM     10  C   UNL     1      47.867   9.639  12.176  0.00  0.00    +0.000 C 
ATOM     11  O   UNL     1      48.737   9.887  11.350  0.00  0.00    +0.000 OA
ATOM     12  H   UNL     1      48.216  11.323  13.318  0.00  0.00    +0.000 HD
ATOM     13  H   UNL     1      46.939  10.278  13.926  0.00  0.00    +0.000 HD
ENDBRANCH   3  10
ENDBRANCH   1   6
BRANCH   1  14
ATOM     14  C   UNL     1      43.831   4.887  10.617  0.00  0.00    +0.000 C 
BRANCH  14  15
ATOM     15  C   UNL     1      44.634   4.036   9.650  0.00  0.00    +0.000 A 
ATOM     16  C   UNL     1      44.584   2.645   9.747  0.00  0.00    +0.000 A 
ATOM     17  C   UNL     1      45.336   1.878   8.862  0.00  0.00    +0.000 A 
ATOM     18  C   UNL     1      46.121   2.509   7.896  0.00  0.00    +0.000 A 
ATOM     19  C   UNL     1      46.100   3.897   7.861  0.00  0.00    +0.000 A 
ATOM     20  N   UNL     1      45.381   4.669   8.712  0.00  0.00    +0.000 NA
BRANCH  18  21
ATOM     21  C   UNL     1      46.975   1.755   6.926  0.00  0.00    +0.000 C 
ATOM     22  F   UNL     1      46.824   0.403   7.008  0.00  0.00    +0.000 F 
ATOM     23  F   UNL     1      46.711   2.082   5.631  0.00  0.00    +0.000 F 
ATOM     24  F   UNL     1      48.303   1.993   7.108  0.00  0.00    +0.000 F 
ENDBRANCH  18  21
ENDBRANCH  14  15
ENDBRANCH   1  14
TORSDOF 5
ENDMDL
MODEL 6
REMARK VINA RESULT:    -6.617      1.903      2.996
REMARK INTER + INTRA:          -9.136
REMARK INTER:                  -8.769
REMARK INTRA:                  -0.366
REMARK UNBOUND:                -0.584
REMARK  Name = 
REMARK  5 active torsions:
REMARK  status: ('A' for Active; 'I' for Inactive)
REMARK    1  A    between atoms: C_2  and  C_4
REMARK    2  A    between atoms: C_7  and  N_8
REMARK    3  A    between atoms: N_8  and  C_9
REMARK    4  A    between atoms: C_9  and  C_10
REMARK    5  A    between atoms: C_13  and  C_14
REMARK                            x       y       z     vdW  Elec       q    Type
REMARK                         _______ _______ _______ _____ _____    ______ ____
ROOT
ATOM      1  N   UNL     1      46.225   5.931  13.637  0.00  0.00    +0.000 N 
ATOM      2  H   UNL     1      46.136   6.894  13.959  0.00  0.00    +0.000 HD
ENDROOT
BRANCH   1   6
ATOM      3  C   UNL     1      48.491   3.517  16.092  0.00  0.00    +0.000 A 
ATOM      4  N   UNL     1      48.581   4.850  16.307  0.00  0.00    +0.000 NA
ATOM      5  C   UNL     1      47.853   5.622  15.469  0.00  0.00    +0.000 A 
ATOM      6  C   UNL     1      47.067   5.156  14.426  0.00  0.00    +0.000 A 
ATOM      7  C   UNL     1      47.047   3.767  14.348  0.00  0.00    +0.000 A 
ATOM      8  N   UNL     1      47.748   2.928  15.140  0.00  0.00    +0.000 NA
BRANCH   3  10
ATOM      9  N   UNL     1      49.073   2.876  18.380  0.00  0.00    +0.000 N 
ATOM     10  C   UNL     1      49.267   2.628  17.039  0.00  0.00    +0.000 C 
ATOM     11  O   UNL     1      50.016   1.729  16.677  0.00  0.00    +0.000 OA
ATOM     12  H   UNL     1      49.543   2.292  19.056  0.00  0.00    +0.000 HD
ATOM     13  H   UNL     1      48.432   3.602  18.677  0.00  0.00    +0.000 HD
ENDBRANCH   3  10
ENDBRANCH   1   6
BRANCH   1  14
ATOM     14  C   UNL     1      44.932   5.420  13.176  0.00  0.00    +0.000 C 
BRANCH  14  15
ATOM     15  C   UNL     1      45.070   4.852  11.775  0.00  0.00    +0.000 A 
ATOM     16  C   UNL     1      44.712   3.527  11.526  0.00  0.00    +0.000 A 
ATOM     17  C   UNL     1      44.856   3.017  10.239  0.00  0.00    +0.000 A 
ATOM     18  C   UNL     1      45.352   3.837   9.223  0.00  0.00    +0.000 A 
ATOM     19  C   UNL     1      45.670   5.146   9.555  0.00  0.00    +0.000 A 
ATOM     20  N   UNL     1      45.544   5.668  10.800  0.00  0.00    +0.000 NA
BRANCH  18  21
ATOM     21  C   UNL     1      45.560   3.354   7.822  0.00  0.00    +0.000 C 
ATOM     22  F   UNL     1      46.001   2.067   7.751  0.00  0.00    +0.000 F 
ATOM     23  F   UNL     1      44.420   3.399   7.079  0.00  0.00    +0.000 F 
ATOM     24  F   UNL     1      46.476   4.100   7.146  0.00  0.00    +0.000 F 
ENDBRANCH  18  21
ENDBRANCH  14  15
ENDBRANCH   1  14
TORSDOF 5
ENDMDL
MODEL 7
REMARK VINA RESULT:    -6.090      5.340      8.462
REMARK INTER + INTRA:          -8.454
REMARK INTER:                  -8.041
REMARK INTRA:                  -0.413
REMARK UNBOUND:                -0.584
REMARK  Name = 
REMARK  5 active torsions:
REMARK  status: ('A' for Active; 'I' for Inactive)
REMARK    1  A    between atoms: C_2  and  C_4
REMARK    2  A    between atoms: C_7  and  N_8
REMARK    3  A    between atoms: N_8  and  C_9
REMARK    4  A    between atoms: C_9  and  C_10
REMARK    5  A    between atoms: C_13  and  C_14
REMARK                            x       y       z     vdW  Elec       q    Type
REMARK                         _______ _______ _______ _____ _____    ______ ____
ROOT
ATOM      1  N   UNL     1      47.442   5.129  15.155  0.00  0.00    +0.000 N 
ATOM      2  H   UNL     1      48.420   5.348  14.966  0.00  0.00    +0.000 HD
ENDROOT
BRANCH   1   6
ATOM      3  C   UNL     1      45.059   4.217  11.918  0.00  0.00    +0.000 A 
ATOM      4  N   UNL     1      45.651   3.173  12.544  0.00  0.00    +0.000 NA
ATOM      5  C   UNL     1      46.452   3.501  13.582  0.00  0.00    +0.000 A 
ATOM      6  C   UNL     1      46.716   4.791  14.019  0.00  0.00    +0.000 A 
ATOM      7  C   UNL     1      46.014   5.753  13.302  0.00  0.00    +0.000 A 
ATOM      8  N   UNL     1      45.202   5.511  12.251  0.00  0.00    +0.000 NA
BRANCH   3  10
ATOM      9  N   UNL     1      43.800   4.927   9.945  0.00  0.00    +0.000 N 
ATOM     10  C   UNL     1      44.128   3.878  10.774  0.00  0.00    +0.000 C 
ATOM     11  O   UNL     1      43.686   2.755  10.559  0.00  0.00    +0.000 OA
ATOM     12  H   UNL     1      43.207   4.751   9.147  0.00  0.00    +0.000 HD
ATOM     13  H   UNL     1      44.189   5.848  10.109  0.00  0.00    +0.000 HD
ENDBRANCH   3  10
ENDBRANCH   1   6
BRANCH   1  14
ATOM     14  C   UNL     1      47.317   4.356  16.393  0.00  0.00    +0.000 C 
BRANCH  14  15
ATOM     15  C   UNL     1      48.688   3.902  16.860  0.00  0.00    +0.000 A 
ATOM     16  C   UNL     1      49.566   4.823  17.431  0.00  0.00    +0.000 A 
ATOM     17  C   UNL     1      50.824   4.394  17.842  0.00  0.00    +0.000 A 
ATOM     18  C   UNL     1      51.184   3.055  17.679  0.00  0.00    +0.000 A 
ATOM     19  C   UNL     1      50.244   2.203  17.116  0.00  0.00    +0.000 A 
ATOM     20  N   UNL     1      49.014   2.594  16.703  0.00  0.00    +0.000 NA
BRANCH  18  21
ATOM     21  C   UNL     1      52.527   2.524  18.072  0.00  0.00    +0.000 C 
ATOM     22  F   UNL     1      52.899   2.873  19.336  0.00  0.00    +0.000 F 
ATOM     23  F   UNL     1      52.584   1.164  18.029  0.00  0.00    +0.000 F 
ATOM     24  F   UNL     1      53.522   2.966  17.255  0.00  0.00    +0.000 F 
ENDBRANCH  18  21
ENDBRANCH  14  15
ENDBRANCH   1  14
TORSDOF 5
ENDMDL
MODEL 8
REMARK VINA RESULT:    -5.891      5.048      7.925
REMARK INTER + INTRA:          -8.198
REMARK INTER:                  -7.882
REMARK INTRA:                  -0.316
REMARK UNBOUND:                -0.584
REMARK  Name = 
REMARK  5 active torsions:
REMARK  status: ('A' for Active; 'I' for Inactive)
REMARK    1  A    between atoms: C_2  and  C_4
REMARK    2  A    between atoms: C_7  and  N_8
REMARK    3  A    between atoms: N_8  and  C_9
REMARK    4  A    between atoms: C_9  and  C_10
REMARK    5  A    between atoms: C_13  and  C_14
REMARK                            x       y       z     vdW  Elec       q    Type
REMARK                         _______ _______ _______ _____ _____    ______ ____
ROOT
ATOM      1  N   UNL     1      45.913   6.165  13.366  0.00  0.00    +0.000 N 
ATOM      2  H   UNL     1      45.357   7.007  13.517  0.00  0.00    +0.000 HD
ENDROOT
BRANCH   1   6
ATOM      3  C   UNL     1      44.895   3.754  10.181  0.00  0.00    +0.000 A 
ATOM      4  N   UNL     1      45.346   4.993   9.879  0.00  0.00    +0.000 NA
ATOM      5  C   UNL     1      45.643   5.776  10.941  0.00  0.00    +0.000 A 
ATOM      6  C   UNL     1      45.499   5.413  12.272  0.00  0.00    +0.000 A 
ATOM      7  C   UNL     1      45.059   4.103  12.426  0.00  0.00    +0.000 A 
ATOM      8  N   UNL     1      44.735   3.262  11.421  0.00  0.00    +0.000 NA
BRANCH   3  10
ATOM      9  N   UNL     1      44.423   3.473   7.798  0.00  0.00    +0.000 N 
ATOM     10  C   UNL     1      44.589   2.844   9.012  0.00  0.00    +0.000 C 
ATOM     11  O   UNL     1      44.501   1.625   9.095  0.00  0.00    +0.000 OA
ATOM     12  H   UNL     1      44.247   2.912   6.978  0.00  0.00    +0.000 HD
ATOM     13  H   UNL     1      44.523   4.479   7.726  0.00  0.00    +0.000 HD
ENDBRANCH   3  10
ENDBRANCH   1   6
BRANCH   1  14
ATOM     14  C   UNL     1      47.332   6.433  13.610  0.00  0.00    +0.000 C 
BRANCH  14  15
ATOM     15  C   UNL     1      47.797   5.676  14.841  0.00  0.00    +0.000 A 
ATOM     16  C   UNL     1      47.149   4.499  15.216  0.00  0.00    +0.000 A 
ATOM     17  C   UNL     1      47.578   3.823  16.354  0.00  0.00    +0.000 A 
ATOM     18  C   UNL     1      48.646   4.329  17.096  0.00  0.00    +0.000 A 
ATOM     19  C   UNL     1      49.243   5.498  16.643  0.00  0.00    +0.000 A 
ATOM     20  N   UNL     1      48.844   6.179  15.542  0.00  0.00    +0.000 NA
BRANCH  18  21
ATOM     21  C   UNL     1      49.149   3.674  18.344  0.00  0.00    +0.000 C 
ATOM     22  F   UNL     1      50.299   2.966  18.159  0.00  0.00    +0.000 F 
ATOM     23  F   UNL     1      49.417   4.570  19.333  0.00  0.00    +0.000 F 
ATOM     24  F   UNL     1      48.251   2.795  18.868  0.00  0.00    +0.000 F 
ENDBRANCH  18  21
ENDBRANCH  14  15
ENDBRANCH   1  14
TORSDOF 5
ENDMDL
MODEL 9
REMARK VINA RESULT:    -5.672      2.737      4.242
REMARK INTER + INTRA:          -7.914
REMARK INTER:                  -7.569
REMARK INTRA:                  -0.345
REMARK UNBOUND:                -0.584
REMARK  Name = 
REMARK  5 active torsions:
REMARK  status: ('A' for Active; 'I' for Inactive)
REMARK    1  A    between atoms: C_2  and  C_4
REMARK    2  A    between atoms: C_7  and  N_8
REMARK    3  A    between atoms: N_8  and  C_9
REMARK    4  A    between atoms: C_9  and  C_10
REMARK    5  A    between atoms: C_13  and  C_14
REMARK                            x       y       z     vdW  Elec       q    Type
REMARK                         _______ _______ _______ _____ _____    ______ ____
ROOT
ATOM      1  N   UNL     1      46.669   4.030  14.690  0.00  0.00    +0.000 N 
ATOM      2  H   UNL     1      47.237   3.519  14.014  0.00  0.00    +0.000 HD
ENDROOT
BRANCH   1   6
ATOM      3  C   UNL     1      48.911   4.897  18.038  0.00  0.00    +0.000 A 
ATOM      4  N   UNL     1      48.188   3.754  18.077  0.00  0.00    +0.000 NA
ATOM      5  C   UNL     1      47.437   3.508  16.980  0.00  0.00    +0.000 A 
ATOM      6  C   UNL     1      47.344   4.332  15.867  0.00  0.00    +0.000 A 
ATOM      7  C   UNL     1      48.166   5.450  15.958  0.00  0.00    +0.000 A 
ATOM      8  N   UNL     1      48.939   5.771  17.018  0.00  0.00    +0.000 NA
BRANCH   3  10
ATOM      9  N   UNL     1      50.605   4.143  19.634  0.00  0.00    +0.000 N 
ATOM     10  C   UNL     1      49.789   5.180  19.238  0.00  0.00    +0.000 C 
ATOM     11  O   UNL     1      49.812   6.250  19.835  0.00  0.00    +0.000 OA
ATOM     12  H   UNL     1      51.234   4.287  20.410  0.00  0.00    +0.000 HD
ATOM     13  H   UNL     1      50.604   3.269  19.122  0.00  0.00    +0.000 HD
ENDBRANCH   3  10
ENDBRANCH   1   6
BRANCH   1  14
ATOM     14  C   UNL     1      45.835   5.027  14.015  0.00  0.00    +0.000 C 
BRANCH  14  15
ATOM     15  C   UNL     1      45.587   4.606  12.578  0.00  0.00    +0.000 A 
ATOM     16  C   UNL     1      45.717   5.540  11.551  0.00  0.00    +0.000 A 
ATOM     17  C   UNL     1      45.473   5.143  10.239  0.00  0.00    +0.000 A 
ATOM     18  C   UNL     1      45.107   3.822   9.975  0.00  0.00    +0.000 A 
ATOM     19  C   UNL     1      45.016   2.955  11.055  0.00  0.00    +0.000 A 
ATOM     20  N   UNL     1      45.243   3.315  12.342  0.00  0.00    +0.000 NA
BRANCH  18  21
ATOM     21  C   UNL     1      44.804   3.325   8.596  0.00  0.00    +0.000 C 
ATOM     22  F   UNL     1      44.091   2.164   8.583  0.00  0.00    +0.000 F 
ATOM     23  F   UNL     1      44.079   4.217   7.867  0.00  0.00    +0.000 F 
ATOM     24  F   UNL     1      45.931   3.079   7.873  0.00  0.00    +0.000 F 
ENDBRANCH  18  21
ENDBRANCH  14  15
ENDBRANCH   1  14
TORSDOF 5
ENDMDL
