MODEL 1
REMARK VINA RESULT:    -5.965      0.000      0.000
REMARK INTER + INTRA:          -7.280
REMARK INTER:                  -7.011
REMARK INTRA:                  -0.270
REMARK UNBOUND:                -0.270
REMARK  Name = 
REMARK  5 active torsions:
REMARK  status: ('A' for Active; 'I' for Inactive)
REMARK    1  A    between atoms: C_1  and  C_2
REMARK    2  A    between atoms: C_2  and  C_3
REMARK    3  A    between atoms: C_5  and  N_6
REMARK    4  A    between atoms: C_5  and  C_16
REMARK    5  A    between atoms: C_10  and  C_11
REMARK                            x       y       z     vdW  Elec       q    Type
REMARK                         _______ _______ _______ _____ _____    ______ ____
ROOT
ATOM      1  N   UNL     1      46.572   7.458  13.628  0.00  0.00    +0.000 N 
ATOM      2  C   UNL     1      45.893   6.692  12.656  0.00  0.00    +0.000 A 
ATOM      3  C   UNL     1      44.772   5.942  13.044  0.00  0.00    +0.000 A 
ATOM      4  N   UNL     1      44.130   5.050  12.242  0.00  0.00    +0.000 NA
ATOM      5  C   UNL     1      44.661   4.948  10.993  0.00  0.00    +0.000 A 
ATOM      6  C   UNL     1      45.740   5.714  10.577  0.00  0.00    +0.000 A 
ATOM      7  N   UNL     1      46.367   6.599  11.399  0.00  0.00    +0.000 NA
ATOM      8  H   UNL     1      45.940   8.188  13.967  0.00  0.00    +0.000 HD
ENDROOT
BRANCH   1  13
ATOM      9  C   UNL     1      48.586   5.959  15.899  0.00  0.00    +0.000 C 
ATOM     10  C   UNL     1      49.192   7.122  15.112  0.00  0.00    +0.000 C 
ATOM     11  C   UNL     1      50.611   7.420  15.591  0.00  0.00    +0.000 C 
ATOM     12  C   UNL     1      48.340   8.413  14.974  0.00  0.00    +0.000 C 
ATOM     13  C   UNL     1      47.930   8.002  13.517  0.00  0.00    +0.000 C 
ATOM     14  C   UNL     1      49.061   6.917  13.586  0.00  0.00    +0.000 C 
BRANCH  13  15
ATOM     15  C   UNL     1      47.958   9.023  12.349  0.00  0.00    +0.000 C 
ATOM     16  C   UNL     1      49.189   9.028  11.431  0.00  0.00    +0.000 C 
ATOM     17  C   UNL     1      50.316   9.962  11.846  0.00  0.00    +0.000 C 
ATOM     18  C   UNL     1      49.763  11.315  12.257  0.00  0.00    +0.000 C 
ATOM     19  C   UNL     1      48.681  11.137  13.305  0.00  0.00    +0.000 C 
ATOM     20  O   UNL     1      47.601  10.340  12.823  0.00  0.00    +0.000 OA
ENDBRANCH  13  15
ENDBRANCH   1  13
BRANCH   5  21
ATOM     21  C   UNL     1      44.088   3.928  10.071  0.00  0.00    +0.000 C 
ATOM     22  N   UNL     1      44.074   4.256   8.742  0.00  0.00    +0.000 N 
ATOM     23  O   UNL     1      43.632   2.867  10.475  0.00  0.00    +0.000 OA
ATOM     24  H   UNL     1      44.419   5.157   8.435  0.00  0.00    +0.000 HD
ATOM     25  H   UNL     1      43.656   3.617   8.082  0.00  0.00    +0.000 HD
ENDBRANCH   5  21
TORSDOF 3
ENDMDL
MODEL 2
REMARK VINA RESULT:    -5.778      1.619      1.836
REMARK INTER + INTRA:          -7.061
REMARK INTER:                  -6.853
REMARK INTRA:                  -0.208
REMARK UNBOUND:                -0.270
REMARK  Name = 
REMARK  5 active torsions:
REMARK  status: ('A' for Active; 'I' for Inactive)
REMARK    1  A    between atoms: C_1  and  C_2
REMARK    2  A    between atoms: C_2  and  C_3
REMARK    3  A    between atoms: C_5  and  N_6
REMARK    4  A    between atoms: C_5  and  C_16
REMARK    5  A    between atoms: C_10  and  C_11
REMARK                            x       y       z     vdW  Elec       q    Type
REMARK                         _______ _______ _______ _____ _____    ______ ____
ROOT
ATOM      1  N   UNL     1      48.095   6.064  13.814  0.00  0.00    +0.000 N 
ATOM      2  C   UNL     1      46.790   5.670  13.450  0.00  0.00    +0.000 A 
ATOM      3  C   UNL     1      46.501   4.300  13.338  0.00  0.00    +0.000 A 
ATOM      4  N   UNL     1      45.335   3.799  12.849  0.00  0.00    +0.000 NA
ATOM      5  C   UNL     1      44.435   4.752  12.479  0.00  0.00    +0.000 A 
ATOM      6  C   UNL     1      44.685   6.109  12.624  0.00  0.00    +0.000 A 
ATOM      7  N   UNL     1      45.862   6.586  13.115  0.00  0.00    +0.000 NA
ATOM      8  H   UNL     1      48.281   5.735  14.765  0.00  0.00    +0.000 HD
ENDROOT
BRANCH   1  13
ATOM      9  C   UNL     1      49.101   7.272  16.812  0.00  0.00    +0.000 C 
ATOM     10  C   UNL     1      49.193   8.231  15.625  0.00  0.00    +0.000 C 
ATOM     11  C   UNL     1      49.669   9.610  16.077  0.00  0.00    +0.000 C 
ATOM     12  C   UNL     1      47.965   8.320  14.679  0.00  0.00    +0.000 C 
ATOM     13  C   UNL     1      48.685   7.396  13.636  0.00  0.00    +0.000 C 
ATOM     14  C   UNL     1      50.002   7.626  14.455  0.00  0.00    +0.000 C 
BRANCH  13  15
ATOM     15  C   UNL     1      48.689   7.735  12.122  0.00  0.00    +0.000 C 
ATOM     16  C   UNL     1      50.039   7.722  11.388  0.00  0.00    +0.000 C 
ATOM     17  C   UNL     1      50.784   9.048  11.357  0.00  0.00    +0.000 C 
ATOM     18  C   UNL     1      49.835  10.185  11.023  0.00  0.00    +0.000 C 
ATOM     19  C   UNL     1      48.643  10.159  11.962  0.00  0.00    +0.000 C 
ATOM     20  O   UNL     1      47.922   8.933  11.872  0.00  0.00    +0.000 OA
ENDBRANCH  13  15
ENDBRANCH   1  13
BRANCH   5  21
ATOM     21  C   UNL     1      43.166   4.305  11.842  0.00  0.00    +0.000 C 
ATOM     22  N   UNL     1      42.173   5.242  11.752  0.00  0.00    +0.000 N 
ATOM     23  O   UNL     1      43.005   3.159  11.442  0.00  0.00    +0.000 OA
ATOM     24  H   UNL     1      42.314   6.172  12.127  0.00  0.00    +0.000 HD
ATOM     25  H   UNL     1      41.278   4.977  11.368  0.00  0.00    +0.000 HD
ENDBRANCH   5  21
TORSDOF 3
ENDMDL
MODEL 3
REMARK VINA RESULT:    -5.574      1.667      3.208
REMARK INTER + INTRA:          -6.822
REMARK INTER:                  -7.048
REMARK INTRA:                   0.226
REMARK UNBOUND:                -0.270
REMARK  Name = 
REMARK  5 active torsions:
REMARK  status: ('A' for Active; 'I' for Inactive)
REMARK    1  A    between atoms: C_1  and  C_2
REMARK    2  A    between atoms: C_2  and  C_3
REMARK    3  A    between atoms: C_5  and  N_6
REMARK    4  A    between atoms: C_5  and  C_16
REMARK    5  A    between atoms: C_10  and  C_11
REMARK                            x       y       z     vdW  Elec       q    Type
REMARK                         _______ _______ _______ _____ _____    ______ ____
ROOT
ATOM      1  N   UNL     1      45.899   6.548  13.222  0.00  0.00    +0.000 N 
ATOM      2  C   UNL     1      45.473   5.779  12.118  0.00  0.00    +0.000 A 
ATOM      3  C   UNL     1      44.573   4.723  12.333  0.00  0.00    +0.000 A 
ATOM      4  N   UNL     1      44.210   3.819  11.384  0.00  0.00    +0.000 NA
ATOM      5  C   UNL     1      44.789   4.029  10.170  0.00  0.00    +0.000 A 
ATOM      6  C   UNL     1      45.645   5.093   9.927  0.00  0.00    +0.000 A 
ATOM      7  N   UNL     1      45.995   5.984  10.894  0.00  0.00    +0.000 NA
ATOM      8  H   UNL     1      45.089   7.042  13.607  0.00  0.00    +0.000 HD
ENDROOT
BRANCH   1  13
ATOM      9  C   UNL     1      45.037   9.654  12.186  0.00  0.00    +0.000 C 
ATOM     10  C   UNL     1      46.524   9.409  12.443  0.00  0.00    +0.000 C 
ATOM     11  C   UNL     1      47.346  10.647  12.092  0.00  0.00    +0.000 C 
ATOM     12  C   UNL     1      47.148   8.111  11.861  0.00  0.00    +0.000 C 
ATOM     13  C   UNL     1      47.073   7.428  13.271  0.00  0.00    +0.000 C 
ATOM     14  C   UNL     1      46.781   8.851  13.861  0.00  0.00    +0.000 C 
BRANCH  13  15
ATOM     15  C   UNL     1      48.268   6.623  13.845  0.00  0.00    +0.000 C 
ATOM     16  C   UNL     1      48.639   6.843  15.320  0.00  0.00    +0.000 C 
ATOM     17  C   UNL     1      49.665   7.934  15.584  0.00  0.00    +0.000 C 
ATOM     18  C   UNL     1      50.814   7.836  14.597  0.00  0.00    +0.000 C 
ATOM     19  C   UNL     1      50.279   7.812  13.178  0.00  0.00    +0.000 C 
ATOM     20  O   UNL     1      49.404   6.708  12.958  0.00  0.00    +0.000 OA
ENDBRANCH  13  15
ENDBRANCH   1  13
BRANCH   5  21
ATOM     21  C   UNL     1      44.529   3.036   9.091  0.00  0.00    +0.000 C 
ATOM     22  N   UNL     1      44.265   3.548   7.850  0.00  0.00    +0.000 N 
ATOM     23  O   UNL     1      44.526   1.830   9.301  0.00  0.00    +0.000 OA
ATOM     24  H   UNL     1      44.233   4.550   7.708  0.00  0.00    +0.000 HD
ATOM     25  H   UNL     1      44.040   2.918   7.094  0.00  0.00    +0.000 HD
ENDBRANCH   5  21
TORSDOF 3
ENDMDL
MODEL 4
REMARK VINA RESULT:    -5.428      2.843      4.811
REMARK INTER + INTRA:          -6.650
REMARK INTER:                  -6.912
REMARK INTRA:                   0.262
REMARK UNBOUND:                -0.270
REMARK  Name = 
REMARK  5 active torsions:
REMARK  status: ('A' for Active; 'I' for Inactive)
REMARK    1  A    between atoms: C_1  and  C_2
REMARK    2  A    between atoms: C_2  and  C_3
REMARK    3  A    between atoms: C_5  and  N_6
REMARK    4  A    between atoms: C_5  and  C_16
REMARK    5  A    between atoms: C_10  and  C_11
REMARK                            x       y       z     vdW  Elec       q    Type
REMARK                         _______ _______ _______ _____ _____    ______ ____
ROOT
ATOM      1  N   UNL     1      47.905   6.845  14.774  0.00  0.00    +0.000 N 
ATOM      2  C   UNL     1      47.261   5.910  13.935  0.00  0.00    +0.000 A 
ATOM      3  C   UNL     1      46.260   6.361  13.059  0.00  0.00    +0.000 A 
ATOM      4  N   UNL     1      45.465   5.544  12.317  0.00  0.00    +0.000 NA
ATOM      5  C   UNL     1      45.729   4.219  12.479  0.00  0.00    +0.000 A 
ATOM      6  C   UNL     1      46.743   3.757  13.306  0.00  0.00    +0.000 A 
ATOM      7  N   UNL     1      47.525   4.594  14.040  0.00  0.00    +0.000 NA
ATOM      8  H   UNL     1      48.424   7.505  14.188  0.00  0.00    +0.000 HD
ENDROOT
BRANCH   1  13
ATOM      9  C   UNL     1      49.887   9.482  15.534  0.00  0.00    +0.000 C 
ATOM     10  C   UNL     1      50.089   8.215  16.365  0.00  0.00    +0.000 C 
ATOM     11  C   UNL     1      51.241   8.392  17.353  0.00  0.00    +0.000 C 
ATOM     12  C   UNL     1      50.177   6.865  15.603  0.00  0.00    +0.000 C 
ATOM     13  C   UNL     1      48.689   6.542  15.977  0.00  0.00    +0.000 C 
ATOM     14  C   UNL     1      48.769   7.725  17.003  0.00  0.00    +0.000 C 
BRANCH  13  15
ATOM     15  C   UNL     1      48.270   5.142  16.498  0.00  0.00    +0.000 C 
ATOM     16  C   UNL     1      47.293   5.080  17.682  0.00  0.00    +0.000 C 
ATOM     17  C   UNL     1      47.933   5.045  19.062  0.00  0.00    +0.000 C 
ATOM     18  C   UNL     1      49.098   4.073  19.085  0.00  0.00    +0.000 C 
ATOM     19  C   UNL     1      50.062   4.390  17.957  0.00  0.00    +0.000 C 
ATOM     20  O   UNL     1      49.433   4.304  16.680  0.00  0.00    +0.000 OA
ENDBRANCH  13  15
ENDBRANCH   1  13
BRANCH   5  21
ATOM     21  C   UNL     1      44.848   3.240  11.784  0.00  0.00    +0.000 C 
ATOM     22  N   UNL     1      44.008   2.511  12.581  0.00  0.00    +0.000 N 
ATOM     23  O   UNL     1      44.887   3.075  10.571  0.00  0.00    +0.000 OA
ATOM     24  H   UNL     1      44.022   2.636  13.586  0.00  0.00    +0.000 HD
ATOM     25  H   UNL     1      43.422   1.804  12.162  0.00  0.00    +0.000 HD
ENDBRANCH   5  21
TORSDOF 3
ENDMDL
MODEL 5
REMARK VINA RESULT:    -5.418      2.607      6.929
REMARK INTER + INTRA:          -6.638
REMARK INTER:                  -6.554
REMARK INTRA:                  -0.084
REMARK UNBOUND:                -0.270
REMARK  Name = 
REMARK  5 active torsions:
REMARK  status: ('A' for Active; 'I' for Inactive)
REMARK    1  A    between atoms: C_1  and  C_2
REMARK    2  A    between atoms: C_2  and  C_3
REMARK    3  A    between atoms: C_5  and  N_6
REMARK    4  A    between atoms: C_5  and  C_16
REMARK    5  A    between atoms: C_10  and  C_11
REMARK                            x       y       z     vdW  Elec       q    Type
REMARK                         _______ _______ _______ _____ _____    ______ ____
ROOT
ATOM      1  N   UNL     1      46.593   5.742  13.750  0.00  0.00    +0.000 N 
ATOM      2  C   UNL     1      47.891   6.257  13.956  0.00  0.00    +0.000 A 
ATOM      3  C   UNL     1      48.329   6.488  15.269  0.00  0.00    +0.000 A 
ATOM      4  N   UNL     1      49.489   7.121  15.591  0.00  0.00    +0.000 NA
ATOM      5  C   UNL     1      50.224   7.511  14.513  0.00  0.00    +0.000 A 
ATOM      6  C   UNL     1      49.829   7.251  13.209  0.00  0.00    +0.000 A 
ATOM      7  N   UNL     1      48.662   6.617  12.912  0.00  0.00    +0.000 NA
ATOM      8  H   UNL     1      46.548   4.802  14.151  0.00  0.00    +0.000 HD
ENDROOT
BRANCH   1  13
ATOM      9  C   UNL     1      45.753   8.936  13.005  0.00  0.00    +0.000 C 
ATOM     10  C   UNL     1      45.160   7.848  12.108  0.00  0.00    +0.000 C 
ATOM     11  C   UNL     1      44.217   8.454  11.071  0.00  0.00    +0.000 C 
ATOM     12  C   UNL     1      44.540   6.606  12.804  0.00  0.00    +0.000 C 
ATOM     13  C   UNL     1      45.832   5.772  12.495  0.00  0.00    +0.000 C 
ATOM     14  C   UNL     1      46.252   6.926  11.520  0.00  0.00    +0.000 C 
BRANCH  13  15
ATOM     15  C   UNL     1      45.749   4.328  11.935  0.00  0.00    +0.000 C 
ATOM     16  C   UNL     1      45.215   4.142  10.507  0.00  0.00    +0.000 C 
ATOM     17  C   UNL     1      43.713   3.928  10.388  0.00  0.00    +0.000 C 
ATOM     18  C   UNL     1      43.232   2.937  11.433  0.00  0.00    +0.000 C 
ATOM     19  C   UNL     1      43.695   3.370  12.811  0.00  0.00    +0.000 C 
ATOM     20  O   UNL     1      45.116   3.452  12.894  0.00  0.00    +0.000 OA
ENDBRANCH  13  15
ENDBRANCH   1  13
BRANCH   5  21
ATOM     21  C   UNL     1      51.465   8.297  14.760  0.00  0.00    +0.000 C 
ATOM     22  N   UNL     1      52.644   7.610  14.664  0.00  0.00    +0.000 N 
ATOM     23  O   UNL     1      51.436   9.484  15.057  0.00  0.00    +0.000 OA
ATOM     24  H   UNL     1      52.641   6.618  14.458  0.00  0.00    +0.000 HD
ATOM     25  H   UNL     1      53.510   8.087  14.865  0.00  0.00    +0.000 HD
ENDBRANCH   5  21
TORSDOF 3
ENDMDL
MODEL 6
REMARK VINA RESULT:    -5.352      3.472      5.684
REMARK INTER + INTRA:          -6.561
REMARK INTER:                  -6.317
REMARK INTRA:                  -0.243
REMARK UNBOUND:                -0.270
REMARK  Name = 
REMARK  5 active torsions:
REMARK  status: ('A' for Active; 'I' for Inactive)
REMARK    1  A    between atoms: C_1  and  C_2
REMARK    2  A    between atoms: C_2  and  C_3
REMARK    3  A    between atoms: C_5  and  N_6
REMARK    4  A    between atoms: C_5  and  C_16
REMARK    5  A    between atoms: C_10  and  C_11
REMARK                            x       y       z     vdW  Elec       q    Type
REMARK                         _______ _______ _______ _____ _____    ______ ____
ROOT
ATOM      1  N   UNL     1      49.123   6.563  16.070  0.00  0.00    +0.000 N 
ATOM      2  C   UNL     1      48.301   5.885  15.144  0.00  0.00    +0.000 A 
ATOM      3  C   UNL     1      47.824   6.582  14.023  0.00  0.00    +0.000 A 
ATOM      4  N   UNL     1      46.907   6.091  13.146  0.00  0.00    +0.000 NA
ATOM      5  C   UNL     1      46.485   4.829  13.437  0.00  0.00    +0.000 A 
ATOM      6  C   UNL     1      46.979   4.108  14.514  0.00  0.00    +0.000 A 
ATOM      7  N   UNL     1      47.896   4.623  15.378  0.00  0.00    +0.000 NA
ATOM      8  H   UNL     1      49.995   6.824  15.601  0.00  0.00    +0.000 HD
ENDROOT
BRANCH   1  13
ATOM      9  C   UNL     1      52.473   6.530  16.557  0.00  0.00    +0.000 C 
ATOM     10  C   UNL     1      51.612   5.979  17.695  0.00  0.00    +0.000 C 
ATOM     11  C   UNL     1      52.488   5.441  18.825  0.00  0.00    +0.000 C 
ATOM     12  C   UNL     1      50.474   4.992  17.319  0.00  0.00    +0.000 C 
ATOM     13  C   UNL     1      49.417   6.144  17.445  0.00  0.00    +0.000 C 
ATOM     14  C   UNL     1      50.535   6.991  18.146  0.00  0.00    +0.000 C 
BRANCH  13  15
ATOM     15  C   UNL     1      48.074   5.932  18.193  0.00  0.00    +0.000 C 
ATOM     16  C   UNL     1      47.516   7.107  19.011  0.00  0.00    +0.000 C 
ATOM     17  C   UNL     1      47.948   7.157  20.469  0.00  0.00    +0.000 C 
ATOM     18  C   UNL     1      47.857   5.779  21.100  0.00  0.00    +0.000 C 
ATOM     19  C   UNL     1      48.616   4.771  20.258  0.00  0.00    +0.000 C 
ATOM     20  O   UNL     1      48.100   4.691  18.931  0.00  0.00    +0.000 OA
ENDBRANCH  13  15
ENDBRANCH   1  13
BRANCH   5  21
ATOM     21  C   UNL     1      45.410   4.240  12.592  0.00  0.00    +0.000 C 
ATOM     22  N   UNL     1      45.346   2.873  12.563  0.00  0.00    +0.000 N 
ATOM     23  O   UNL     1      44.641   4.932  11.939  0.00  0.00    +0.000 OA
ATOM     24  H   UNL     1      46.020   2.320  13.079  0.00  0.00    +0.000 HD
ATOM     25  H   UNL     1      44.664   2.424  11.971  0.00  0.00    +0.000 HD
ENDBRANCH   5  21
TORSDOF 3
ENDMDL
MODEL 7
REMARK VINA RESULT:    -5.289      3.474      5.624
REMARK INTER + INTRA:          -6.486
REMARK INTER:                  -6.134
REMARK INTRA:                  -0.352
REMARK UNBOUND:                -0.270
REMARK  Name = 
REMARK  5 active torsions:
REMARK  status: ('A' for Active; 'I' for Inactive)
REMARK    1  A    between atoms: C_1  and  C_2
REMARK    2  A    between atoms: C_2  and  C_3
REMARK    3  A    between atoms: C_5  and  N_6
REMARK    4  A    between atoms: C_5  and  C_16
REMARK    5  A    between atoms: C_10  and  C_11
REMARK                            x       y       z     vdW  Elec       q    Type
REMARK                         _______ _______ _______ _____ _____    ______ ____
ROOT
ATOM      1  N   UNL     1      49.080   6.646  16.140  0.00  0.00    +0.000 N 
ATOM      2  C   UNL     1      48.257   5.912  15.259  0.00  0.00    +0.000 A 
ATOM      3  C   UNL     1      47.930   6.469  14.013  0.00  0.00    +0.000 A 
ATOM      4  N   UNL     1      47.028   5.935  13.146  0.00  0.00    +0.000 NA
ATOM      5  C   UNL     1      46.461   4.777  13.583  0.00  0.00    +0.000 A 
ATOM      6  C   UNL     1      46.805   4.188  14.791  0.00  0.00    +0.000 A 
ATOM      7  N   UNL     1      47.710   4.743  15.642  0.00  0.00    +0.000 NA
ATOM      8  H   UNL     1      50.004   6.752  15.711  0.00  0.00    +0.000 HD
ENDROOT
BRANCH   1  13
ATOM      9  C   UNL     1      47.913   9.327  17.847  0.00  0.00    +0.000 C 
ATOM     10  C   UNL     1      48.612   8.244  18.671  0.00  0.00    +0.000 C 
ATOM     11  C   UNL     1      48.704   8.655  20.139  0.00  0.00    +0.000 C 
ATOM     12  C   UNL     1      49.961   7.695  18.134  0.00  0.00    +0.000 C 
ATOM     13  C   UNL     1      49.237   6.419  17.581  0.00  0.00    +0.000 C 
ATOM     14  C   UNL     1      47.993   6.848  18.435  0.00  0.00    +0.000 C 
BRANCH  13  15
ATOM     15  C   UNL     1      49.822   4.998  17.795  0.00  0.00    +0.000 C 
ATOM     16  C   UNL     1      50.048   4.526  19.239  0.00  0.00    +0.000 C 
ATOM     17  C   UNL     1      51.420   4.827  19.824  0.00  0.00    +0.000 C 
ATOM     18  C   UNL     1      52.510   4.502  18.819  0.00  0.00    +0.000 C 
ATOM     19  C   UNL     1      52.226   5.197  17.501  0.00  0.00    +0.000 C 
ATOM     20  O   UNL     1      50.974   4.796  16.948  0.00  0.00    +0.000 OA
ENDBRANCH  13  15
ENDBRANCH   1  13
BRANCH   5  21
ATOM     21  C   UNL     1      45.390   4.165  12.748  0.00  0.00    +0.000 C 
ATOM     22  N   UNL     1      45.436   2.804  12.610  0.00  0.00    +0.000 N 
ATOM     23  O   UNL     1      44.530   4.837  12.195  0.00  0.00    +0.000 OA
ATOM     24  H   UNL     1      46.181   2.272  13.044  0.00  0.00    +0.000 HD
ATOM     25  H   UNL     1      44.759   2.346  12.019  0.00  0.00    +0.000 HD
ENDBRANCH   5  21
TORSDOF 3
ENDMDL
MODEL 8
REMARK VINA RESULT:    -4.984      3.981      5.838
REMARK INTER + INTRA:          -6.128
REMARK INTER:                  -5.632
REMARK INTRA:                  -0.496
REMARK UNBOUND:                -0.270
REMARK  Name = 
REMARK  5 active torsions:
REMARK  status: ('A' for Active; 'I' for Inactive)
REMARK    1  A    between atoms: C_1  and  C_2
REMARK    2  A    between atoms: C_2  and  C_3
REMARK    3  A    between atoms: C_5  and  N_6
REMARK    4  A    between atoms: C_5  and  C_16
REMARK    5  A    between atoms: C_10  and  C_11
REMARK                            x       y       z     vdW  Elec       q    Type
REMARK                         _______ _______ _______ _____ _____    ______ ____
ROOT
ATOM      1  N   UNL     1      49.211   5.087  17.948  0.00  0.00    +0.000 N 
ATOM      2  C   UNL     1      48.406   5.073  16.788  0.00  0.00    +0.000 A 
ATOM      3  C   UNL     1      47.432   4.071  16.650  0.00  0.00    +0.000 A 
ATOM      4  N   UNL     1      46.705   3.859  15.521  0.00  0.00    +0.000 NA
ATOM      5  C   UNL     1      46.987   4.726  14.509  0.00  0.00    +0.000 A 
ATOM      6  C   UNL     1      47.914   5.750  14.643  0.00  0.00    +0.000 A 
ATOM      7  N   UNL     1      48.631   5.941  15.784  0.00  0.00    +0.000 NA
ATOM      8  H   UNL     1      48.612   5.266  18.758  0.00  0.00    +0.000 HD
ENDROOT
BRANCH   1  13
ATOM      9  C   UNL     1      51.777   2.892  17.707  0.00  0.00    +0.000 C 
ATOM     10  C   UNL     1      52.138   4.322  18.111  0.00  0.00    +0.000 C 
ATOM     11  C   UNL     1      53.632   4.441  18.405  0.00  0.00    +0.000 C 
ATOM     12  C   UNL     1      51.272   4.995  19.211  0.00  0.00    +0.000 C 
ATOM     13  C   UNL     1      50.484   5.797  18.117  0.00  0.00    +0.000 C 
ATOM     14  C   UNL     1      51.599   5.361  17.103  0.00  0.00    +0.000 C 
BRANCH  13  15
ATOM     15  C   UNL     1      50.187   7.310  18.280  0.00  0.00    +0.000 C 
ATOM     16  C   UNL     1      51.374   8.252  18.531  0.00  0.00    +0.000 C 
ATOM     17  C   UNL     1      51.725   8.494  19.991  0.00  0.00    +0.000 C 
ATOM     18  C   UNL     1      50.469   8.745  20.806  0.00  0.00    +0.000 C 
ATOM     19  C   UNL     1      49.471   7.624  20.580  0.00  0.00    +0.000 C 
ATOM     20  O   UNL     1      49.099   7.512  19.208  0.00  0.00    +0.000 OA
ENDBRANCH  13  15
ENDBRANCH   1  13
BRANCH   5  21
ATOM     21  C   UNL     1      46.312   4.516  13.199  0.00  0.00    +0.000 C 
ATOM     22  N   UNL     1      45.849   3.252  12.955  0.00  0.00    +0.000 N 
ATOM     23  O   UNL     1      46.198   5.412  12.373  0.00  0.00    +0.000 OA
ATOM     24  H   UNL     1      45.991   2.516  13.636  0.00  0.00    +0.000 HD
ATOM     25  H   UNL     1      45.423   3.047  12.063  0.00  0.00    +0.000 HD
ENDBRANCH   5  21
TORSDOF 3
ENDMDL
MODEL 9
REMARK VINA RESULT:    -4.912      5.931      8.083
REMARK INTER + INTRA:          -6.044
REMARK INTER:                  -5.574
REMARK INTRA:                  -0.470
REMARK UNBOUND:                -0.270
REMARK  Name = 
REMARK  5 active torsions:
REMARK  status: ('A' for Active; 'I' for Inactive)
REMARK    1  A    between atoms: C_1  and  C_2
REMARK    2  A    between atoms: C_2  and  C_3
REMARK    3  A    between atoms: C_5  and  N_6
REMARK    4  A    between atoms: C_5  and  C_16
REMARK    5  A    between atoms: C_10  and  C_11
REMARK                            x       y       z     vdW  Elec       q    Type
REMARK                         _______ _______ _______ _____ _____    ______ ____
ROOT
ATOM      1  N   UNL     1      49.664   4.411  17.420  0.00  0.00    +0.000 N 
ATOM      2  C   UNL     1      50.700   3.454  17.456  0.00  0.00    +0.000 A 
ATOM      3  C   UNL     1      50.384   2.102  17.248  0.00  0.00    +0.000 A 
ATOM      4  N   UNL     1      51.262   1.075  17.409  0.00  0.00    +0.000 NA
ATOM      5  C   UNL     1      52.511   1.468  17.783  0.00  0.00    +0.000 A 
ATOM      6  C   UNL     1      52.853   2.802  17.949  0.00  0.00    +0.000 A 
ATOM      7  N   UNL     1      51.956   3.813  17.784  0.00  0.00    +0.000 NA
ATOM      8  H   UNL     1      49.273   4.433  16.474  0.00  0.00    +0.000 HD
ENDROOT
BRANCH   1  13
ATOM      9  C   UNL     1      48.668   4.404  20.656  0.00  0.00    +0.000 C 
ATOM     10  C   UNL     1      48.916   5.773  20.021  0.00  0.00    +0.000 C 
ATOM     11  C   UNL     1      48.576   6.895  21.001  0.00  0.00    +0.000 C 
ATOM     12  C   UNL     1      48.316   6.029  18.612  0.00  0.00    +0.000 C 
ATOM     13  C   UNL     1      49.718   5.776  17.955  0.00  0.00    +0.000 C 
ATOM     14  C   UNL     1      50.326   5.874  19.398  0.00  0.00    +0.000 C 
BRANCH  13  15
ATOM     15  C   UNL     1      50.277   6.715  16.855  0.00  0.00    +0.000 C 
ATOM     16  C   UNL     1      50.156   8.231  17.075  0.00  0.00    +0.000 C 
ATOM     17  C   UNL     1      48.891   8.876  16.528  0.00  0.00    +0.000 C 
ATOM     18  C   UNL     1      48.591   8.362  15.132  0.00  0.00    +0.000 C 
ATOM     19  C   UNL     1      48.569   6.845  15.131  0.00  0.00    +0.000 C 
ATOM     20  O   UNL     1      49.815   6.295  15.552  0.00  0.00    +0.000 OA
ENDBRANCH  13  15
ENDBRANCH   1  13
BRANCH   5  21
ATOM     21  C   UNL     1      53.517   0.411  18.079  0.00  0.00    +0.000 C 
ATOM     22  N   UNL     1      53.024  -0.780  18.538  0.00  0.00    +0.000 N 
ATOM     23  O   UNL     1      54.719   0.599  17.944  0.00  0.00    +0.000 OA
ATOM     24  H   UNL     1      52.028  -0.899  18.681  0.00  0.00    +0.000 HD
ATOM     25  H   UNL     1      53.667  -1.513  18.795  0.00  0.00    +0.000 HD
ENDBRANCH   5  21
TORSDOF 3
ENDMDL
