MODEL 1
REMARK VINA RESULT:    -9.045      0.000      0.000
REMARK INTER + INTRA:         -13.274
REMARK INTER:                 -12.482
REMARK INTRA:                  -0.792
REMARK UNBOUND:                -0.792
REMARK  Name = 
REMARK  7 active torsions:
REMARK  status: ('A' for Active; 'I' for Inactive)
REMARK    1  A    between atoms: C_2  and  C_20
REMARK    2  A    between atoms: N_3  and  C_4
REMARK    3  A    between atoms: C_4  and  C_5
REMARK    4  A    between atoms: C_8  and  C_9
REMARK    5  A    between atoms: C_9  and  N_10
REMARK    6  A    between atoms: N_10  and  C_11
REMARK    7  A    between atoms: C_14  and  O_15
REMARK                            x       y       z     vdW  Elec       q    Type
REMARK                         _______ _______ _______ _____ _____    ______ ____
ROOT
ATOM      1  C   UNL     1      45.992   6.319  12.345  0.00  0.00    +0.000 A 
ATOM      2  C   UNL     1      46.041   6.304  10.950  0.00  0.00    +0.000 A 
ATOM      3  C   UNL     1      45.554   5.197  10.255  0.00  0.00    +0.000 A 
ATOM      4  C   UNL     1      45.035   4.122  10.975  0.00  0.00    +0.000 A 
ATOM      5  N   UNL     1      44.980   4.113  12.330  0.00  0.00    +0.000 NA
ATOM      6  C   UNL     1      45.466   5.198  12.977  0.00  0.00    +0.000 A 
ENDROOT
BRANCH   1   7
ATOM      7  C   UNL     1      46.562   7.453  13.144  0.00  0.00    +0.000 C 
BRANCH   7  10
ATOM      8  O   UNL     1      49.199   6.577  13.407  0.00  0.00    +0.000 OA
ATOM      9  C   UNL     1      48.493   6.621  14.410  0.00  0.00    +0.000 C 
ATOM     10  N   UNL     1      47.166   6.958  14.354  0.00  0.00    +0.000 N 
ATOM     11  H   UNL     1      46.682   7.174  15.219  0.00  0.00    +0.000 HD
BRANCH   9  12
ATOM     12  C   UNL     1      49.013   6.273  15.739  0.00  0.00    +0.000 A 
ATOM     13  C   UNL     1      50.033   7.024  16.306  0.00  0.00    +0.000 A 
ATOM     14  S   UNL     1      50.519   6.462  17.844  0.00  0.00    +0.000 S 
ATOM     15  C   UNL     1      49.349   5.226  17.824  0.00  0.00    +0.000 A 
ATOM     16  N   UNL     1      49.205   4.378  18.879  0.00  0.00    +0.000 NA
ATOM     17  C   UNL     1      48.255   3.513  18.745  0.00  0.00    +0.000 A 
ATOM     18  N   UNL     1      47.441   3.414  17.645  0.00  0.00    +0.000 N 
ATOM     19  C   UNL     1      47.573   4.221  16.544  0.00  0.00    +0.000 A 
ATOM     20  O   UNL     1      46.868   4.067  15.553  0.00  0.00    +0.000 OA
ATOM     21  C   UNL     1      48.614   5.228  16.652  0.00  0.00    +0.000 A 
ATOM     22  H   UNL     1      46.724   2.702  17.594  0.00  0.00    +0.000 HD
ENDBRANCH   9  12
ENDBRANCH   7  10
ENDBRANCH   1   7
BRANCH   4  23
ATOM     23  C   UNL     1      44.448   2.919  10.258  0.00  0.00    +0.000 C 
BRANCH  23  24
ATOM     24  N   UNL     1      44.051   3.185   8.858  0.00  0.00    +0.000 NA
ATOM     25  H   UNL     1      44.019   4.205   8.770  0.00  0.00    +0.000 HD
BRANCH  24  26
ATOM     26  C   UNL     1      45.007   2.668   7.869  0.00  0.00    +0.000 C 
ATOM     27  C   UNL     1      45.912   3.769   7.296  0.00  0.00    +0.000 C 
ATOM     28  C   UNL     1      46.860   3.196   6.253  0.00  0.00    +0.000 C 
ATOM     29  C   UNL     1      47.723   2.087   6.842  0.00  0.00    +0.000 C 
ATOM     30  C   UNL     1      46.874   0.998   7.497  0.00  0.00    +0.000 C 
ATOM     31  C   UNL     1      45.879   1.571   8.510  0.00  0.00    +0.000 C 
BRANCH  29  32
ATOM     32  O   UNL     1      48.525   1.520   5.814  0.00  0.00    +0.000 OA
ATOM     33  H   UNL     1      47.944   1.008   5.226  0.00  0.00    +0.000 HD
ENDBRANCH  29  32
ENDBRANCH  24  26
ENDBRANCH  23  24
ENDBRANCH   4  23
TORSDOF 7
ENDMDL
MODEL 2
REMARK VINA RESULT:    -8.626      1.864      2.357
REMARK INTER + INTRA:         -12.696
REMARK INTER:                 -11.935
REMARK INTRA:                  -0.761
REMARK UNBOUND:                -0.792
REMARK  Name = 
REMARK  7 active torsions:
REMARK  status: ('A' for Active; 'I' for Inactive)
REMARK    1  A    between atoms: C_2  and  C_20
REMARK    2  A    between atoms: N_3  and  C_4
REMARK    3  A    between atoms: C_4  and  C_5
REMARK    4  A    between atoms: C_8  and  C_9
REMARK    5  A    between atoms: C_9  and  N_10
REMARK    6  A    between atoms: N_10  and  C_11
REMARK    7  A    between atoms: C_14  and  O_15
REMARK                            x       y       z     vdW  Elec       q    Type
REMARK                         _______ _______ _______ _____ _____    ______ ____
ROOT
ATOM      1  C   UNL     1      46.523   5.889  12.599  0.00  0.00    +0.000 A 
ATOM      2  C   UNL     1      46.165   6.340  11.328  0.00  0.00    +0.000 A 
ATOM      3  C   UNL     1      45.381   5.533  10.505  0.00  0.00    +0.000 A 
ATOM      4  C   UNL     1      44.979   4.282  10.970  0.00  0.00    +0.000 A 
ATOM      5  N   UNL     1      45.318   3.821  12.201  0.00  0.00    +0.000 NA
ATOM      6  C   UNL     1      46.084   4.624  12.974  0.00  0.00    +0.000 A 
ENDROOT
BRANCH   1   7
ATOM      7  C   UNL     1      47.420   6.687  13.499  0.00  0.00    +0.000 C 
BRANCH   7  10
ATOM      8  O   UNL     1      49.686   6.630  15.127  0.00  0.00    +0.000 OA
ATOM      9  C   UNL     1      48.641   6.154  15.561  0.00  0.00    +0.000 C 
ATOM     10  N   UNL     1      47.508   6.066  14.796  0.00  0.00    +0.000 N 
ATOM     11  H   UNL     1      46.627   5.855  15.253  0.00  0.00    +0.000 HD
BRANCH   9  12
ATOM     12  C   UNL     1      48.545   5.604  16.919  0.00  0.00    +0.000 A 
ATOM     13  C   UNL     1      48.726   4.245  17.135  0.00  0.00    +0.000 A 
ATOM     14  S   UNL     1      48.560   3.788  18.772  0.00  0.00    +0.000 S 
ATOM     15  C   UNL     1      48.290   5.398  19.254  0.00  0.00    +0.000 A 
ATOM     16  N   UNL     1      48.100   5.718  20.563  0.00  0.00    +0.000 NA
ATOM     17  C   UNL     1      47.944   6.980  20.789  0.00  0.00    +0.000 A 
ATOM     18  N   UNL     1      47.951   7.952  19.820  0.00  0.00    +0.000 N 
ATOM     19  C   UNL     1      48.101   7.673  18.486  0.00  0.00    +0.000 A 
ATOM     20  O   UNL     1      48.042   8.559  17.640  0.00  0.00    +0.000 OA
ATOM     21  C   UNL     1      48.303   6.268  18.179  0.00  0.00    +0.000 A 
ATOM     22  H   UNL     1      47.806   8.923  20.061  0.00  0.00    +0.000 HD
ENDBRANCH   9  12
ENDBRANCH   7  10
ENDBRANCH   1   7
BRANCH   4  23
ATOM     23  C   UNL     1      44.083   3.392  10.129  0.00  0.00    +0.000 C 
BRANCH  23  24
ATOM     24  N   UNL     1      44.731   2.143   9.671  0.00  0.00    +0.000 NA
ATOM     25  H   UNL     1      43.996   1.611   9.195  0.00  0.00    +0.000 HD
BRANCH  24  26
ATOM     26  C   UNL     1      45.828   2.366   8.719  0.00  0.00    +0.000 C 
ATOM     27  C   UNL     1      46.308   1.064   8.060  0.00  0.00    +0.000 C 
ATOM     28  C   UNL     1      47.465   1.337   7.111  0.00  0.00    +0.000 C 
ATOM     29  C   UNL     1      47.068   2.336   6.030  0.00  0.00    +0.000 C 
ATOM     30  C   UNL     1      46.509   3.626   6.630  0.00  0.00    +0.000 C 
ATOM     31  C   UNL     1      45.379   3.357   7.627  0.00  0.00    +0.000 C 
BRANCH  29  32
ATOM     32  O   UNL     1      48.202   2.631   5.224  0.00  0.00    +0.000 OA
ATOM     33  H   UNL     1      47.885   3.000   4.382  0.00  0.00    +0.000 HD
ENDBRANCH  29  32
ENDBRANCH  24  26
ENDBRANCH  23  24
ENDBRANCH   4  23
TORSDOF 7
ENDMDL
MODEL 3
REMARK VINA RESULT:    -8.565      1.509      1.917
REMARK INTER + INTRA:         -12.612
REMARK INTER:                 -11.932
REMARK INTRA:                  -0.681
REMARK UNBOUND:                -0.792
REMARK  Name = 
REMARK  7 active torsions:
REMARK  status: ('A' for Active; 'I' for Inactive)
REMARK    1  A    between atoms: C_2  and  C_20
REMARK    2  A    between atoms: N_3  and  C_4
REMARK    3  A    between atoms: C_4  and  C_5
REMARK    4  A    between atoms: C_8  and  C_9
REMARK    5  A    between atoms: C_9  and  N_10
REMARK    6  A    between atoms: N_10  and  C_11
REMARK    7  A    between atoms: C_14  and  O_15
REMARK                            x       y       z     vdW  Elec       q    Type
REMARK                         _______ _______ _______ _____ _____    ______ ____
ROOT
ATOM      1  C   UNL     1      46.938   5.687  12.917  0.00  0.00    +0.000 A 
ATOM      2  C   UNL     1      46.274   6.130  11.772  0.00  0.00    +0.000 A 
ATOM      3  C   UNL     1      45.293   5.329  11.190  0.00  0.00    +0.000 A 
ATOM      4  C   UNL     1      45.003   4.092  11.764  0.00  0.00    +0.000 A 
ATOM      5  N   UNL     1      45.638   3.639  12.874  0.00  0.00    +0.000 NA
ATOM      6  C   UNL     1      46.590   4.436  13.412  0.00  0.00    +0.000 A 
ENDROOT
BRANCH   1   7
ATOM      7  C   UNL     1      48.048   6.478  13.544  0.00  0.00    +0.000 C 
BRANCH   7  10
ATOM      8  O   UNL     1      50.159   6.735  15.352  0.00  0.00    +0.000 OA
ATOM      9  C   UNL     1      49.016   6.660  15.793  0.00  0.00    +0.000 C 
ATOM     10  N   UNL     1      47.934   6.448  14.979  0.00  0.00    +0.000 N 
ATOM     11  H   UNL     1      47.004   6.593  15.359  0.00  0.00    +0.000 HD
BRANCH   9  12
ATOM     12  C   UNL     1      48.733   6.750  17.231  0.00  0.00    +0.000 A 
ATOM     13  C   UNL     1      48.312   7.952  17.784  0.00  0.00    +0.000 A 
ATOM     14  S   UNL     1      48.048   7.870  19.468  0.00  0.00    +0.000 S 
ATOM     15  C   UNL     1      48.441   6.215  19.508  0.00  0.00    +0.000 A 
ATOM     16  N   UNL     1      48.386   5.507  20.668  0.00  0.00    +0.000 NA
ATOM     17  C   UNL     1      48.674   4.253  20.546  0.00  0.00    +0.000 A 
ATOM     18  N   UNL     1      49.021   3.645  19.365  0.00  0.00    +0.000 N 
ATOM     19  C   UNL     1      49.125   4.325  18.179  0.00  0.00    +0.000 A 
ATOM     20  O   UNL     1      49.496   3.765  17.153  0.00  0.00    +0.000 OA
ATOM     21  C   UNL     1      48.790   5.737  18.258  0.00  0.00    +0.000 A 
ATOM     22  H   UNL     1      49.251   2.661  19.338  0.00  0.00    +0.000 HD
ENDBRANCH   9  12
ENDBRANCH   7  10
ENDBRANCH   1   7
BRANCH   4  23
ATOM     23  C   UNL     1      43.907   3.209  11.194  0.00  0.00    +0.000 C 
BRANCH  23  24
ATOM     24  N   UNL     1      43.862   3.181   9.716  0.00  0.00    +0.000 NA
ATOM     25  H   UNL     1      43.628   4.136   9.430  0.00  0.00    +0.000 HD
BRANCH  24  26
ATOM     26  C   UNL     1      45.143   2.816   9.096  0.00  0.00    +0.000 C 
ATOM     27  C   UNL     1      45.169   1.358   8.614  0.00  0.00    +0.000 C 
ATOM     28  C   UNL     1      46.524   1.015   8.013  0.00  0.00    +0.000 C 
ATOM     29  C   UNL     1      46.861   1.939   6.849  0.00  0.00    +0.000 C 
ATOM     30  C   UNL     1      46.776   3.411   7.253  0.00  0.00    +0.000 C 
ATOM     31  C   UNL     1      45.435   3.754   7.908  0.00  0.00    +0.000 C 
BRANCH  29  32
ATOM     32  O   UNL     1      48.170   1.643   6.379  0.00  0.00    +0.000 OA
ATOM     33  H   UNL     1      48.259   0.676   6.324  0.00  0.00    +0.000 HD
ENDBRANCH  29  32
ENDBRANCH  24  26
ENDBRANCH  23  24
ENDBRANCH   4  23
TORSDOF 7
ENDMDL
MODEL 4
REMARK VINA RESULT:    -7.449      2.461      2.610
REMARK INTER + INTRA:         -11.072
REMARK INTER:                 -10.194
REMARK INTRA:                  -0.878
REMARK UNBOUND:                -0.792
REMARK  Name = 
REMARK  7 active torsions:
REMARK  status: ('A' for Active; 'I' for Inactive)
REMARK    1  A    between atoms: C_2  and  C_20
REMARK    2  A    between atoms: N_3  and  C_4
REMARK    3  A    between atoms: C_4  and  C_5
REMARK    4  A    between atoms: C_8  and  C_9
REMARK    5  A    between atoms: C_9  and  N_10
REMARK    6  A    between atoms: N_10  and  C_11
REMARK    7  A    between atoms: C_14  and  O_15
REMARK                            x       y       z     vdW  Elec       q    Type
REMARK                         _______ _______ _______ _____ _____    ______ ____
ROOT
ATOM      1  C   UNL     1      45.785   6.874  12.564  0.00  0.00    +0.000 A 
ATOM      2  C   UNL     1      44.959   6.984  11.445  0.00  0.00    +0.000 A 
ATOM      3  C   UNL     1      44.597   5.837  10.739  0.00  0.00    +0.000 A 
ATOM      4  C   UNL     1      45.080   4.601  11.166  0.00  0.00    +0.000 A 
ATOM      5  N   UNL     1      45.887   4.470  12.249  0.00  0.00    +0.000 NA
ATOM      6  C   UNL     1      46.226   5.602  12.909  0.00  0.00    +0.000 A 
ENDROOT
BRANCH   1   7
ATOM      7  C   UNL     1      46.259   8.080  13.320  0.00  0.00    +0.000 C 
BRANCH   7  10
ATOM      8  O   UNL     1      48.654   9.499  13.527  0.00  0.00    +0.000 OA
ATOM      9  C   UNL     1      48.479   8.533  14.264  0.00  0.00    +0.000 C 
ATOM     10  N   UNL     1      47.370   7.735  14.168  0.00  0.00    +0.000 N 
ATOM     11  H   UNL     1      47.175   7.081  14.920  0.00  0.00    +0.000 HD
BRANCH   9  12
ATOM     12  C   UNL     1      49.470   8.141  15.275  0.00  0.00    +0.000 A 
ATOM     13  C   UNL     1      50.586   7.403  14.906  0.00  0.00    +0.000 A 
ATOM     14  S   UNL     1      51.615   7.025  16.215  0.00  0.00    +0.000 S 
ATOM     15  C   UNL     1      50.629   7.877  17.310  0.00  0.00    +0.000 A 
ATOM     16  N   UNL     1      50.963   7.976  18.626  0.00  0.00    +0.000 NA
ATOM     17  C   UNL     1      50.145   8.682  19.335  0.00  0.00    +0.000 A 
ATOM     18  N   UNL     1      49.017   9.291  18.846  0.00  0.00    +0.000 N 
ATOM     19  C   UNL     1      48.622   9.188  17.537  0.00  0.00    +0.000 A 
ATOM     20  O   UNL     1      47.576   9.695  17.145  0.00  0.00    +0.000 OA
ATOM     21  C   UNL     1      49.519   8.422  16.690  0.00  0.00    +0.000 A 
ATOM     22  H   UNL     1      48.407   9.817  19.457  0.00  0.00    +0.000 HD
ENDBRANCH   9  12
ENDBRANCH   7  10
ENDBRANCH   1   7
BRANCH   4  23
ATOM     23  C   UNL     1      44.671   3.322  10.458  0.00  0.00    +0.000 C 
BRANCH  23  24
ATOM     24  N   UNL     1      44.183   3.525   9.077  0.00  0.00    +0.000 NA
ATOM     25  H   UNL     1      44.142   4.540   8.947  0.00  0.00    +0.000 HD
BRANCH  24  26
ATOM     26  C   UNL     1      45.075   2.966   8.051  0.00  0.00    +0.000 C 
ATOM     27  C   UNL     1      46.141   3.971   7.588  0.00  0.00    +0.000 C 
ATOM     28  C   UNL     1      47.017   3.362   6.504  0.00  0.00    +0.000 C 
ATOM     29  C   UNL     1      47.699   2.091   6.994  0.00  0.00    +0.000 C 
ATOM     30  C   UNL     1      46.689   1.082   7.540  0.00  0.00    +0.000 C 
ATOM     31  C   UNL     1      45.766   1.700   8.594  0.00  0.00    +0.000 C 
BRANCH  29  32
ATOM     32  O   UNL     1      48.431   1.509   5.924  0.00  0.00    +0.000 OA
ATOM     33  H   UNL     1      48.866   0.705   6.258  0.00  0.00    +0.000 HD
ENDBRANCH  29  32
ENDBRANCH  24  26
ENDBRANCH  23  24
ENDBRANCH   4  23
TORSDOF 7
ENDMDL
MODEL 5
REMARK VINA RESULT:    -7.449      2.689      3.382
REMARK INTER + INTRA:         -11.072
REMARK INTER:                 -10.069
REMARK INTRA:                  -1.003
REMARK UNBOUND:                -0.792
REMARK  Name = 
REMARK  7 active torsions:
REMARK  status: ('A' for Active; 'I' for Inactive)
REMARK    1  A    between atoms: C_2  and  C_20
REMARK    2  A    between atoms: N_3  and  C_4
REMARK    3  A    between atoms: C_4  and  C_5
REMARK    4  A    between atoms: C_8  and  C_9
REMARK    5  A    between atoms: C_9  and  N_10
REMARK    6  A    between atoms: N_10  and  C_11
REMARK    7  A    between atoms: C_14  and  O_15
REMARK                            x       y       z     vdW  Elec       q    Type
REMARK                         _______ _______ _______ _____ _____    ______ ____
ROOT
ATOM      1  C   UNL     1      46.739   4.856  13.825  0.00  0.00    +0.000 A 
ATOM      2  C   UNL     1      46.230   5.963  13.145  0.00  0.00    +0.000 A 
ATOM      3  C   UNL     1      45.268   5.780  12.153  0.00  0.00    +0.000 A 
ATOM      4  C   UNL     1      44.840   4.487  11.856  0.00  0.00    +0.000 A 
ATOM      5  N   UNL     1      45.323   3.396  12.501  0.00  0.00    +0.000 NA
ATOM      6  C   UNL     1      46.261   3.604  13.455  0.00  0.00    +0.000 A 
ENDROOT
BRANCH   1   7
ATOM      7  C   UNL     1      47.824   4.989  14.853  0.00  0.00    +0.000 C 
BRANCH   7  10
ATOM      8  O   UNL     1      50.112   6.470  15.455  0.00  0.00    +0.000 OA
ATOM      9  C   UNL     1      49.016   7.007  15.584  0.00  0.00    +0.000 C 
ATOM     10  N   UNL     1      47.843   6.325  15.390  0.00  0.00    +0.000 N 
ATOM     11  H   UNL     1      46.980   6.854  15.311  0.00  0.00    +0.000 HD
BRANCH   9  12
ATOM     12  C   UNL     1      48.884   8.410  15.995  0.00  0.00    +0.000 A 
ATOM     13  C   UNL     1      49.278   9.428  15.138  0.00  0.00    +0.000 A 
ATOM     14  S   UNL     1      49.067  10.990  15.792  0.00  0.00    +0.000 S 
ATOM     15  C   UNL     1      48.397  10.362  17.225  0.00  0.00    +0.000 A 
ATOM     16  N   UNL     1      47.964  11.185  18.219  0.00  0.00    +0.000 NA
ATOM     17  C   UNL     1      47.444  10.574  19.232  0.00  0.00    +0.000 A 
ATOM     18  N   UNL     1      47.325   9.211  19.343  0.00  0.00    +0.000 N 
ATOM     19  C   UNL     1      47.780   8.343  18.385  0.00  0.00    +0.000 A 
ATOM     20  O   UNL     1      47.714   7.128  18.542  0.00  0.00    +0.000 OA
ATOM     21  C   UNL     1      48.355   8.979  17.213  0.00  0.00    +0.000 A 
ATOM     22  H   UNL     1      46.923   8.793  20.171  0.00  0.00    +0.000 HD
ENDBRANCH   9  12
ENDBRANCH   7  10
ENDBRANCH   1   7
BRANCH   4  23
ATOM     23  C   UNL     1      43.758   4.246  10.820  0.00  0.00    +0.000 C 
BRANCH  23  24
ATOM     24  N   UNL     1      44.181   4.520   9.429  0.00  0.00    +0.000 NA
ATOM     25  H   UNL     1      44.478   5.500   9.421  0.00  0.00    +0.000 HD
BRANCH  24  26
ATOM     26  C   UNL     1      45.312   3.693   8.986  0.00  0.00    +0.000 C 
ATOM     27  C   UNL     1      44.913   2.228   8.754  0.00  0.00    +0.000 C 
ATOM     28  C   UNL     1      46.120   1.404   8.331  0.00  0.00    +0.000 C 
ATOM     29  C   UNL     1      46.753   1.963   7.063  0.00  0.00    +0.000 C 
ATOM     30  C   UNL     1      47.101   3.444   7.210  0.00  0.00    +0.000 C 
ATOM     31  C   UNL     1      45.906   4.274   7.687  0.00  0.00    +0.000 C 
BRANCH  29  32
ATOM     32  O   UNL     1      47.927   1.220   6.758  0.00  0.00    +0.000 OA
ATOM     33  H   UNL     1      48.075   0.582   7.476  0.00  0.00    +0.000 HD
ENDBRANCH  29  32
ENDBRANCH  24  26
ENDBRANCH  23  24
ENDBRANCH   4  23
TORSDOF 7
ENDMDL
MODEL 6
REMARK VINA RESULT:    -7.407      2.942      3.966
REMARK INTER + INTRA:         -11.013
REMARK INTER:                  -9.983
REMARK INTRA:                  -1.030
REMARK UNBOUND:                -0.792
REMARK  Name = 
REMARK  7 active torsions:
REMARK  status: ('A' for Active; 'I' for Inactive)
REMARK    1  A    between atoms: C_2  and  C_20
REMARK    2  A    between atoms: N_3  and  C_4
REMARK    3  A    between atoms: C_4  and  C_5
REMARK    4  A    between atoms: C_8  and  C_9
REMARK    5  A    between atoms: C_9  and  N_10
REMARK    6  A    between atoms: N_10  and  C_11
REMARK    7  A    between atoms: C_14  and  O_15
REMARK                            x       y       z     vdW  Elec       q    Type
REMARK                         _______ _______ _______ _____ _____    ______ ____
ROOT
ATOM      1  C   UNL     1      46.025   5.489  12.996  0.00  0.00    +0.000 A 
ATOM      2  C   UNL     1      45.299   6.150  12.003  0.00  0.00    +0.000 A 
ATOM      3  C   UNL     1      44.624   5.408  11.034  0.00  0.00    +0.000 A 
ATOM      4  C   UNL     1      44.699   4.017  11.074  0.00  0.00    +0.000 A 
ATOM      5  N   UNL     1      45.401   3.354  12.027  0.00  0.00    +0.000 NA
ATOM      6  C   UNL     1      46.051   4.100  12.950  0.00  0.00    +0.000 A 
ENDROOT
BRANCH   1   7
ATOM      7  C   UNL     1      46.824   6.237  14.022  0.00  0.00    +0.000 C 
BRANCH   7  10
ATOM      8  O   UNL     1      47.441   8.762  13.004  0.00  0.00    +0.000 OA
ATOM      9  C   UNL     1      48.333   7.921  13.067  0.00  0.00    +0.000 C 
ATOM     10  N   UNL     1      48.095   6.635  13.474  0.00  0.00    +0.000 N 
ATOM     11  H   UNL     1      48.887   6.041  13.700  0.00  0.00    +0.000 HD
BRANCH   9  12
ATOM     12  C   UNL     1      49.714   8.225  12.669  0.00  0.00    +0.000 A 
ATOM     13  C   UNL     1      49.983   8.695  11.391  0.00  0.00    +0.000 A 
ATOM     14  S   UNL     1      51.642   8.976  11.103  0.00  0.00    +0.000 S 
ATOM     15  C   UNL     1      52.052   8.525  12.693  0.00  0.00    +0.000 A 
ATOM     16  N   UNL     1      53.341   8.570  13.125  0.00  0.00    +0.000 NA
ATOM     17  C   UNL     1      53.503   8.237  14.363  0.00  0.00    +0.000 A 
ATOM     18  N   UNL     1      52.490   7.855  15.206  0.00  0.00    +0.000 N 
ATOM     19  C   UNL     1      51.182   7.760  14.804  0.00  0.00    +0.000 A 
ATOM     20  O   UNL     1      50.309   7.357  15.566  0.00  0.00    +0.000 OA
ATOM     21  C   UNL     1      50.942   8.145  13.425  0.00  0.00    +0.000 A 
ATOM     22  H   UNL     1      52.684   7.589  16.162  0.00  0.00    +0.000 HD
ENDBRANCH   9  12
ENDBRANCH   7  10
ENDBRANCH   1   7
BRANCH   4  23
ATOM     23  C   UNL     1      43.939   3.169  10.070  0.00  0.00    +0.000 C 
BRANCH  23  24
ATOM     24  N   UNL     1      44.674   1.970   9.613  0.00  0.00    +0.000 NA
ATOM     25  H   UNL     1      43.991   1.409   9.096  0.00  0.00    +0.000 HD
BRANCH  24  26
ATOM     26  C   UNL     1      45.794   2.275   8.711  0.00  0.00    +0.000 C 
ATOM     27  C   UNL     1      46.348   1.022   8.017  0.00  0.00    +0.000 C 
ATOM     28  C   UNL     1      47.525   1.381   7.122  0.00  0.00    +0.000 C 
ATOM     29  C   UNL     1      47.125   2.408   6.070  0.00  0.00    +0.000 C 
ATOM     30  C   UNL     1      46.494   3.649   6.702  0.00  0.00    +0.000 C 
ATOM     31  C   UNL     1      45.342   3.294   7.646  0.00  0.00    +0.000 C 
BRANCH  29  32
ATOM     32  O   UNL     1      48.273   2.781   5.318  0.00  0.00    +0.000 OA
ATOM     33  H   UNL     1      47.971   3.184   4.486  0.00  0.00    +0.000 HD
ENDBRANCH  29  32
ENDBRANCH  24  26
ENDBRANCH  23  24
ENDBRANCH   4  23
TORSDOF 7
ENDMDL
MODEL 7
REMARK VINA RESULT:    -7.261      3.480      5.259
REMARK INTER + INTRA:         -10.812
REMARK INTER:                 -10.254
REMARK INTRA:                  -0.558
REMARK UNBOUND:                -0.792
REMARK  Name = 
REMARK  7 active torsions:
REMARK  status: ('A' for Active; 'I' for Inactive)
REMARK    1  A    between atoms: C_2  and  C_20
REMARK    2  A    between atoms: N_3  and  C_4
REMARK    3  A    between atoms: C_4  and  C_5
REMARK    4  A    between atoms: C_8  and  C_9
REMARK    5  A    between atoms: C_9  and  N_10
REMARK    6  A    between atoms: N_10  and  C_11
REMARK    7  A    between atoms: C_14  and  O_15
REMARK                            x       y       z     vdW  Elec       q    Type
REMARK                         _______ _______ _______ _____ _____    ______ ____
ROOT
ATOM      1  C   UNL     1      46.615   5.407  13.386  0.00  0.00    +0.000 A 
ATOM      2  C   UNL     1      45.527   6.046  12.790  0.00  0.00    +0.000 A 
ATOM      3  C   UNL     1      44.491   5.284  12.250  0.00  0.00    +0.000 A 
ATOM      4  C   UNL     1      44.572   3.893  12.311  0.00  0.00    +0.000 A 
ATOM      5  N   UNL     1      45.622   3.251  12.882  0.00  0.00    +0.000 NA
ATOM      6  C   UNL     1      46.615   4.017  13.392  0.00  0.00    +0.000 A 
ENDROOT
BRANCH   1   7
ATOM      7  C   UNL     1      47.788   6.174  13.921  0.00  0.00    +0.000 C 
BRANCH   7  10
ATOM      8  O   UNL     1      47.349   8.904  14.310  0.00  0.00    +0.000 OA
ATOM      9  C   UNL     1      47.973   8.546  13.315  0.00  0.00    +0.000 C 
ATOM     10  N   UNL     1      48.158   7.224  13.007  0.00  0.00    +0.000 N 
ATOM     11  H   UNL     1      48.841   6.981  12.297  0.00  0.00    +0.000 HD
BRANCH   9  12
ATOM     12  C   UNL     1      48.529   9.514  12.361  0.00  0.00    +0.000 A 
ATOM     13  C   UNL     1      47.695  10.423  11.725  0.00  0.00    +0.000 A 
ATOM     14  S   UNL     1      48.515  11.455  10.640  0.00  0.00    +0.000 S 
ATOM     15  C   UNL     1      50.019  10.754  11.019  0.00  0.00    +0.000 A 
ATOM     16  N   UNL     1      51.169  11.205  10.448  0.00  0.00    +0.000 NA
ATOM     17  C   UNL     1      52.240  10.608  10.855  0.00  0.00    +0.000 A 
ATOM     18  N   UNL     1      52.262   9.591  11.778  0.00  0.00    +0.000 N 
ATOM     19  C   UNL     1      51.126   9.080  12.351  0.00  0.00    +0.000 A 
ATOM     20  O   UNL     1      51.176   8.132  13.127  0.00  0.00    +0.000 OA
ATOM     21  C   UNL     1      49.894   9.733  11.944  0.00  0.00    +0.000 A 
ATOM     22  H   UNL     1      53.133   9.153  12.042  0.00  0.00    +0.000 HD
ENDBRANCH   9  12
ENDBRANCH   7  10
ENDBRANCH   1   7
BRANCH   4  23
ATOM     23  C   UNL     1      43.444   3.026  11.783  0.00  0.00    +0.000 C 
BRANCH  23  24
ATOM     24  N   UNL     1      43.857   2.076  10.726  0.00  0.00    +0.000 NA
ATOM     25  H   UNL     1      43.012   1.894  10.176  0.00  0.00    +0.000 HD
BRANCH  24  26
ATOM     26  C   UNL     1      44.886   2.611   9.825  0.00  0.00    +0.000 C 
ATOM     27  C   UNL     1      45.312   1.599   8.751  0.00  0.00    +0.000 C 
ATOM     28  C   UNL     1      46.402   2.182   7.865  0.00  0.00    +0.000 C 
ATOM     29  C   UNL     1      45.937   3.468   7.193  0.00  0.00    +0.000 C 
ATOM     30  C   UNL     1      45.428   4.487   8.212  0.00  0.00    +0.000 C 
ATOM     31  C   UNL     1      44.368   3.894   9.144  0.00  0.00    +0.000 C 
BRANCH  29  32
ATOM     32  O   UNL     1      47.014   4.025   6.450  0.00  0.00    +0.000 OA
ATOM     33  H   UNL     1      47.846   3.740   6.866  0.00  0.00    +0.000 HD
ENDBRANCH  29  32
ENDBRANCH  24  26
ENDBRANCH  23  24
ENDBRANCH   4  23
TORSDOF 7
ENDMDL
MODEL 8
REMARK VINA RESULT:    -7.218      2.984      8.554
REMARK INTER + INTRA:         -10.753
REMARK INTER:                  -9.629
REMARK INTRA:                  -1.124
REMARK UNBOUND:                -0.792
REMARK  Name = 
REMARK  7 active torsions:
REMARK  status: ('A' for Active; 'I' for Inactive)
REMARK    1  A    between atoms: C_2  and  C_20
REMARK    2  A    between atoms: N_3  and  C_4
REMARK    3  A    between atoms: C_4  and  C_5
REMARK    4  A    between atoms: C_8  and  C_9
REMARK    5  A    between atoms: C_9  and  N_10
REMARK    6  A    between atoms: N_10  and  C_11
REMARK    7  A    between atoms: C_14  and  O_15
REMARK                            x       y       z     vdW  Elec       q    Type
REMARK                         _______ _______ _______ _____ _____    ______ ____
ROOT
ATOM      1  C   UNL     1      48.494   7.995  13.356  0.00  0.00    +0.000 A 
ATOM      2  C   UNL     1      47.882   8.589  14.461  0.00  0.00    +0.000 A 
ATOM      3  C   UNL     1      48.544   8.608  15.688  0.00  0.00    +0.000 A 
ATOM      4  C   UNL     1      49.804   8.021  15.786  0.00  0.00    +0.000 A 
ATOM      5  N   UNL     1      50.417   7.434  14.727  0.00  0.00    +0.000 NA
ATOM      6  C   UNL     1      49.748   7.426  13.551  0.00  0.00    +0.000 A 
ENDROOT
BRANCH   1   7
ATOM      7  C   UNL     1      47.801   7.887  12.031  0.00  0.00    +0.000 C 
BRANCH   7  10
ATOM      8  O   UNL     1      45.034   7.644  12.305  0.00  0.00    +0.000 OA
ATOM      9  C   UNL     1      45.685   6.642  12.025  0.00  0.00    +0.000 C 
ATOM     10  N   UNL     1      47.053   6.658  11.955  0.00  0.00    +0.000 N 
ATOM     11  H   UNL     1      47.528   5.869  11.530  0.00  0.00    +0.000 HD
BRANCH   9  12
ATOM     12  C   UNL     1      45.043   5.343  11.786  0.00  0.00    +0.000 A 
ATOM     13  C   UNL     1      44.319   4.728  12.798  0.00  0.00    +0.000 A 
ATOM     14  S   UNL     1      43.661   3.219  12.343  0.00  0.00    +0.000 S 
ATOM     15  C   UNL     1      44.281   3.360  10.764  0.00  0.00    +0.000 A 
ATOM     16  N   UNL     1      44.049   2.398   9.830  0.00  0.00    +0.000 NA
ATOM     17  C   UNL     1      44.547   2.652   8.665  0.00  0.00    +0.000 A 
ATOM     18  N   UNL     1      45.265   3.779   8.353  0.00  0.00    +0.000 N 
ATOM     19  C   UNL     1      45.554   4.756   9.271  0.00  0.00    +0.000 A 
ATOM     20  O   UNL     1      46.250   5.722   8.975  0.00  0.00    +0.000 OA
ATOM     21  C   UNL     1      44.998   4.530  10.593  0.00  0.00    +0.000 A 
ATOM     22  H   UNL     1      45.643   3.911   7.425  0.00  0.00    +0.000 HD
ENDBRANCH   9  12
ENDBRANCH   7  10
ENDBRANCH   1   7
BRANCH   4  23
ATOM     23  C   UNL     1      50.582   8.063  17.089  0.00  0.00    +0.000 C 
BRANCH  23  24
ATOM     24  N   UNL     1      50.626   6.771  17.808  0.00  0.00    +0.000 NA
ATOM     25  H   UNL     1      50.582   7.010  18.804  0.00  0.00    +0.000 HD
BRANCH  24  26
ATOM     26  C   UNL     1      49.494   5.887  17.497  0.00  0.00    +0.000 C 
ATOM     27  C   UNL     1      49.908   4.411  17.410  0.00  0.00    +0.000 C 
ATOM     28  C   UNL     1      48.714   3.539  17.052  0.00  0.00    +0.000 C 
ATOM     29  C   UNL     1      47.593   3.691  18.073  0.00  0.00    +0.000 C 
ATOM     30  C   UNL     1      47.192   5.154  18.258  0.00  0.00    +0.000 C 
ATOM     31  C   UNL     1      48.395   6.049  18.566  0.00  0.00    +0.000 C 
BRANCH  29  32
ATOM     32  O   UNL     1      46.467   2.932  17.651  0.00  0.00    +0.000 OA
ATOM     33  H   UNL     1      45.953   2.692  18.440  0.00  0.00    +0.000 HD
ENDBRANCH  29  32
ENDBRANCH  24  26
ENDBRANCH  23  24
ENDBRANCH   4  23
TORSDOF 7
ENDMDL
MODEL 9
REMARK VINA RESULT:    -7.205      4.449      9.052
REMARK INTER + INTRA:         -10.735
REMARK INTER:                  -9.797
REMARK INTRA:                  -0.938
REMARK UNBOUND:                -0.792
REMARK  Name = 
REMARK  7 active torsions:
REMARK  status: ('A' for Active; 'I' for Inactive)
REMARK    1  A    between atoms: C_2  and  C_20
REMARK    2  A    between atoms: N_3  and  C_4
REMARK    3  A    between atoms: C_4  and  C_5
REMARK    4  A    between atoms: C_8  and  C_9
REMARK    5  A    between atoms: C_9  and  N_10
REMARK    6  A    between atoms: N_10  and  C_11
REMARK    7  A    between atoms: C_14  and  O_15
REMARK                            x       y       z     vdW  Elec       q    Type
REMARK                         _______ _______ _______ _____ _____    ______ ____
ROOT
ATOM      1  C   UNL     1      48.606   3.389  17.252  0.00  0.00    +0.000 A 
ATOM      2  C   UNL     1      49.366   2.247  16.996  0.00  0.00    +0.000 A 
ATOM      3  C   UNL     1      50.732   2.250  17.277  0.00  0.00    +0.000 A 
ATOM      4  C   UNL     1      51.311   3.404  17.802  0.00  0.00    +0.000 A 
ATOM      5  N   UNL     1      50.593   4.527  18.056  0.00  0.00    +0.000 NA
ATOM      6  C   UNL     1      49.271   4.496  17.767  0.00  0.00    +0.000 A 
ENDROOT
BRANCH   1   7
ATOM      7  C   UNL     1      47.148   3.464  16.907  0.00  0.00    +0.000 C 
BRANCH   7  10
ATOM      8  O   UNL     1      47.196   3.005  14.154  0.00  0.00    +0.000 OA
ATOM      9  C   UNL     1      46.892   4.124  14.556  0.00  0.00    +0.000 C 
ATOM     10  N   UNL     1      46.926   4.455  15.885  0.00  0.00    +0.000 N 
ATOM     11  H   UNL     1      46.479   5.315  16.184  0.00  0.00    +0.000 HD
BRANCH   9  12
ATOM     12  C   UNL     1      46.510   5.202  13.634  0.00  0.00    +0.000 A 
ATOM     13  C   UNL     1      47.428   6.186  13.295  0.00  0.00    +0.000 A 
ATOM     14  S   UNL     1      46.801   7.362  12.228  0.00  0.00    +0.000 S 
ATOM     15  C   UNL     1      45.297   6.569  12.145  0.00  0.00    +0.000 A 
ATOM     16  N   UNL     1      44.293   7.047  11.362  0.00  0.00    +0.000 NA
ATOM     17  C   UNL     1      43.221   6.326  11.365  0.00  0.00    +0.000 A 
ATOM     18  N   UNL     1      43.060   5.172  12.091  0.00  0.00    +0.000 N 
ATOM     19  C   UNL     1      44.031   4.673  12.922  0.00  0.00    +0.000 A 
ATOM     20  O   UNL     1      43.833   3.673  13.603  0.00  0.00    +0.000 OA
ATOM     21  C   UNL     1      45.267   5.436  12.938  0.00  0.00    +0.000 A 
ATOM     22  H   UNL     1      42.189   4.661  12.064  0.00  0.00    +0.000 HD
ENDBRANCH   9  12
ENDBRANCH   7  10
ENDBRANCH   1   7
BRANCH   4  23
ATOM     23  C   UNL     1      52.783   3.435  18.170  0.00  0.00    +0.000 C 
BRANCH  23  24
ATOM     24  N   UNL     1      53.204   2.339  19.071  0.00  0.00    +0.000 NA
ATOM     25  H   UNL     1      52.339   1.868  19.352  0.00  0.00    +0.000 HD
BRANCH  24  26
ATOM     26  C   UNL     1      54.077   1.350  18.424  0.00  0.00    +0.000 C 
ATOM     27  C   UNL     1      53.404  -0.023  18.280  0.00  0.00    +0.000 C 
ATOM     28  C   UNL     1      54.355  -1.022  17.638  0.00  0.00    +0.000 C 
ATOM     29  C   UNL     1      54.820  -0.540  16.269  0.00  0.00    +0.000 C 
ATOM     30  C   UNL     1      55.431   0.859  16.340  0.00  0.00    +0.000 C 
ATOM     31  C   UNL     1      54.502   1.861  17.033  0.00  0.00    +0.000 C 
BRANCH  29  32
ATOM     32  O   UNL     1      55.775  -1.457  15.749  0.00  0.00    +0.000 OA
ATOM     33  H   UNL     1      56.369  -0.967  15.154  0.00  0.00    +0.000 HD
ENDBRANCH  29  32
ENDBRANCH  24  26
ENDBRANCH  23  24
ENDBRANCH   4  23
TORSDOF 7
ENDMDL
