MODEL 1
REMARK VINA RESULT:    -8.593      0.000      0.000
REMARK INTER + INTRA:         -12.947
REMARK INTER:                 -12.110
REMARK INTRA:                  -0.837
REMARK UNBOUND:                -0.837
REMARK  Name = 
REMARK  8 active torsions:
REMARK  status: ('A' for Active; 'I' for Inactive)
REMARK    1  A    between atoms: C_1  and  C_2
REMARK    2  A    between atoms: C_2  and  N_3
REMARK    3  A    between atoms: C_2  and  C_25
REMARK    4  A    between atoms: N_3  and  C_4
REMARK    5  A    between atoms: C_4  and  C_5
REMARK    6  A    between atoms: C_8  and  C_9
REMARK    7  A    between atoms: C_9  and  N_10
REMARK    8  A    between atoms: C_11  and  C_13
REMARK                            x       y       z     vdW  Elec       q    Type
REMARK                         _______ _______ _______ _____ _____    ______ ____
ROOT
ATOM      1  C   UNL     1      45.470   6.153  12.347  0.00  0.00    +0.000 C 
ATOM      2  C   UNL     1      45.691   5.112  13.459  0.00  0.00    +0.000 C 
ATOM      3  C   UNL     1      47.148   4.667  13.574  0.00  0.00    +0.000 C 
ATOM      4  C   UNL     1      48.134   5.840  13.737  0.00  0.00    +0.000 C 
ATOM      5  C   UNL     1      47.922   6.852  12.603  0.00  0.00    +0.000 C 
ATOM      6  C   UNL     1      46.468   7.318  12.501  0.00  0.00    +0.000 C 
ENDROOT
BRANCH   1   7
ATOM      7  C   UNL     1      45.544   5.562  10.919  0.00  0.00    +0.000 C 
BRANCH   7   8
ATOM      8  N   UNL     1      44.220   5.497  10.299  0.00  0.00    +0.000 NA
ATOM      9  H   UNL     1      43.521   5.848  10.955  0.00  0.00    +0.000 HD
BRANCH   8  11
ATOM     10  C   UNL     1      43.590   3.233  11.186  0.00  0.00    +0.000 C 
ATOM     11  C   UNL     1      43.804   4.121   9.953  0.00  0.00    +0.000 C 
BRANCH  11  12
ATOM     12  C   UNL     1      44.833   3.474   9.025  0.00  0.00    +0.000 A 
ATOM     13  C   UNL     1      45.169   2.125   9.164  0.00  0.00    +0.000 A 
ATOM     14  C   UNL     1      46.085   1.559   8.284  0.00  0.00    +0.000 A 
ATOM     15  C   UNL     1      46.655   2.353   7.298  0.00  0.00    +0.000 A 
ATOM     16  C   UNL     1      46.291   3.688   7.241  0.00  0.00    +0.000 A 
ATOM     17  N   UNL     1      45.400   4.265   8.076  0.00  0.00    +0.000 NA
ENDBRANCH  11  12
ENDBRANCH   8  11
ENDBRANCH   7   8
ENDBRANCH   1   7
BRANCH   4  18
ATOM     18  C   UNL     1      48.071   6.539  15.112  0.00  0.00    +0.000 C 
BRANCH  18  19
ATOM     19  N   UNL     1      49.084   6.022  16.004  0.00  0.00    +0.000 N 
ATOM     20  C   UNL     1      48.876   4.997  16.891  0.00  0.00    +0.000 C 
ATOM     21  O   UNL     1      47.768   4.528  17.128  0.00  0.00    +0.000 OA
ATOM     22  H   UNL     1      50.034   6.159  15.687  0.00  0.00    +0.000 HD
BRANCH  20  23
ATOM     23  C   UNL     1      50.082   4.542  17.597  0.00  0.00    +0.000 A 
ATOM     24  C   UNL     1      50.764   5.400  18.449  0.00  0.00    +0.000 A 
ATOM     25  S   UNL     1      52.183   4.715  19.107  0.00  0.00    +0.000 S 
ATOM     26  C   UNL     1      51.908   3.233  18.318  0.00  0.00    +0.000 A 
ATOM     27  N   UNL     1      52.769   2.188  18.455  0.00  0.00    +0.000 NA
ATOM     28  C   UNL     1      52.418   1.119  17.818  0.00  0.00    +0.000 A 
ATOM     29  N   UNL     1      51.286   0.998  17.057  0.00  0.00    +0.000 N 
ATOM     30  C   UNL     1      50.397   2.028  16.874  0.00  0.00    +0.000 A 
ATOM     31  O   UNL     1      49.412   1.891  16.157  0.00  0.00    +0.000 OA
ATOM     32  C   UNL     1      50.749   3.259  17.562  0.00  0.00    +0.000 A 
ATOM     33  H   UNL     1      51.067   0.136  16.581  0.00  0.00    +0.000 HD
ENDBRANCH  20  23
ENDBRANCH  18  19
ENDBRANCH   4  18
TORSDOF 7
ENDMDL
MODEL 2
REMARK VINA RESULT:    -8.313      2.172      2.592
REMARK INTER + INTRA:         -12.552
REMARK INTER:                 -11.521
REMARK INTRA:                  -1.032
REMARK UNBOUND:                -0.837
REMARK  Name = 
REMARK  8 active torsions:
REMARK  status: ('A' for Active; 'I' for Inactive)
REMARK    1  A    between atoms: C_1  and  C_2
REMARK    2  A    between atoms: C_2  and  N_3
REMARK    3  A    between atoms: C_2  and  C_25
REMARK    4  A    between atoms: N_3  and  C_4
REMARK    5  A    between atoms: C_4  and  C_5
REMARK    6  A    between atoms: C_8  and  C_9
REMARK    7  A    between atoms: C_9  and  N_10
REMARK    8  A    between atoms: C_11  and  C_13
REMARK                            x       y       z     vdW  Elec       q    Type
REMARK                         _______ _______ _______ _____ _____    ______ ____
ROOT
ATOM      1  C   UNL     1      43.708   6.246  11.656  0.00  0.00    +0.000 C 
ATOM      2  C   UNL     1      44.176   5.816  13.058  0.00  0.00    +0.000 C 
ATOM      3  C   UNL     1      45.474   5.009  13.028  0.00  0.00    +0.000 C 
ATOM      4  C   UNL     1      46.617   5.717  12.276  0.00  0.00    +0.000 C 
ATOM      5  C   UNL     1      46.143   6.110  10.870  0.00  0.00    +0.000 C 
ATOM      6  C   UNL     1      44.858   6.939  10.899  0.00  0.00    +0.000 C 
ENDROOT
BRANCH   1   7
ATOM      7  C   UNL     1      43.126   5.086  10.813  0.00  0.00    +0.000 C 
BRANCH   7   8
ATOM      8  N   UNL     1      43.993   4.764   9.678  0.00  0.00    +0.000 NA
ATOM      9  H   UNL     1      43.594   5.159   8.825  0.00  0.00    +0.000 HD
BRANCH   8  11
ATOM     10  C   UNL     1      44.275   2.502  10.732  0.00  0.00    +0.000 C 
ATOM     11  C   UNL     1      44.124   3.311   9.437  0.00  0.00    +0.000 C 
BRANCH  11  12
ATOM     12  C   UNL     1      45.311   3.032   8.515  0.00  0.00    +0.000 A 
ATOM     13  C   UNL     1      45.857   1.750   8.426  0.00  0.00    +0.000 A 
ATOM     14  C   UNL     1      46.916   1.522   7.553  0.00  0.00    +0.000 A 
ATOM     15  C   UNL     1      47.415   2.579   6.804  0.00  0.00    +0.000 A 
ATOM     16  C   UNL     1      46.837   3.827   6.968  0.00  0.00    +0.000 A 
ATOM     17  N   UNL     1      45.804   4.078   7.801  0.00  0.00    +0.000 NA
ENDBRANCH  11  12
ENDBRANCH   8  11
ENDBRANCH   7   8
ENDBRANCH   1   7
BRANCH   4  18
ATOM     18  C   UNL     1      47.206   6.938  13.016  0.00  0.00    +0.000 C 
BRANCH  18  19
ATOM     19  N   UNL     1      47.553   6.602  14.377  0.00  0.00    +0.000 N 
ATOM     20  C   UNL     1      48.811   6.744  14.907  0.00  0.00    +0.000 C 
ATOM     21  O   UNL     1      49.797   7.017  14.231  0.00  0.00    +0.000 OA
ATOM     22  H   UNL     1      46.783   6.637  15.030  0.00  0.00    +0.000 HD
BRANCH  20  23
ATOM     23  C   UNL     1      48.904   6.474  16.348  0.00  0.00    +0.000 A 
ATOM     24  C   UNL     1      49.326   7.465  17.223  0.00  0.00    +0.000 A 
ATOM     25  S   UNL     1      49.449   6.934  18.841  0.00  0.00    +0.000 S 
ATOM     26  C   UNL     1      48.893   5.377  18.437  0.00  0.00    +0.000 A 
ATOM     27  N   UNL     1      48.762   4.406  19.381  0.00  0.00    +0.000 NA
ATOM     28  C   UNL     1      48.305   3.282  18.932  0.00  0.00    +0.000 A 
ATOM     29  N   UNL     1      47.967   3.040  17.628  0.00  0.00    +0.000 N 
ATOM     30  C   UNL     1      48.098   3.982  16.637  0.00  0.00    +0.000 A 
ATOM     31  O   UNL     1      47.816   3.717  15.474  0.00  0.00    +0.000 OA
ATOM     32  C   UNL     1      48.617   5.263  17.086  0.00  0.00    +0.000 A 
ATOM     33  H   UNL     1      47.616   2.140  17.337  0.00  0.00    +0.000 HD
ENDBRANCH  20  23
ENDBRANCH  18  19
ENDBRANCH   4  18
TORSDOF 7
ENDMDL
MODEL 3
REMARK VINA RESULT:    -7.762      2.599      3.574
REMARK INTER + INTRA:         -11.776
REMARK INTER:                 -10.836
REMARK INTRA:                  -0.940
REMARK UNBOUND:                -0.837
REMARK  Name = 
REMARK  8 active torsions:
REMARK  status: ('A' for Active; 'I' for Inactive)
REMARK    1  A    between atoms: C_1  and  C_2
REMARK    2  A    between atoms: C_2  and  N_3
REMARK    3  A    between atoms: C_2  and  C_25
REMARK    4  A    between atoms: N_3  and  C_4
REMARK    5  A    between atoms: C_4  and  C_5
REMARK    6  A    between atoms: C_8  and  C_9
REMARK    7  A    between atoms: C_9  and  N_10
REMARK    8  A    between atoms: C_11  and  C_13
REMARK                            x       y       z     vdW  Elec       q    Type
REMARK                         _______ _______ _______ _____ _____    ______ ____
ROOT
ATOM      1  C   UNL     1      45.492   6.372  11.683  0.00  0.00    +0.000 C 
ATOM      2  C   UNL     1      45.800   5.668  13.017  0.00  0.00    +0.000 C 
ATOM      3  C   UNL     1      47.293   5.415  13.223  0.00  0.00    +0.000 C 
ATOM      4  C   UNL     1      48.154   6.685  13.078  0.00  0.00    +0.000 C 
ATOM      5  C   UNL     1      47.857   7.356  11.731  0.00  0.00    +0.000 C 
ATOM      6  C   UNL     1      46.366   7.633  11.532  0.00  0.00    +0.000 C 
ENDROOT
BRANCH   1   7
ATOM      7  C   UNL     1      45.646   5.454  10.447  0.00  0.00    +0.000 C 
BRANCH   7   8
ATOM      8  N   UNL     1      44.352   5.181   9.821  0.00  0.00    +0.000 NA
ATOM      9  H   UNL     1      43.604   5.497  10.439  0.00  0.00    +0.000 HD
BRANCH   8  11
ATOM     10  C   UNL     1      44.092   2.918  10.879  0.00  0.00    +0.000 C 
ATOM     11  C   UNL     1      44.110   3.741   9.585  0.00  0.00    +0.000 C 
BRANCH  11  12
ATOM     12  C   UNL     1      45.163   3.177   8.630  0.00  0.00    +0.000 A 
ATOM     13  C   UNL     1      45.615   1.862   8.766  0.00  0.00    +0.000 A 
ATOM     14  C   UNL     1      46.549   1.369   7.862  0.00  0.00    +0.000 A 
ATOM     15  C   UNL     1      47.023   2.200   6.856  0.00  0.00    +0.000 A 
ATOM     16  C   UNL     1      46.546   3.499   6.803  0.00  0.00    +0.000 A 
ATOM     17  N   UNL     1      45.633   4.005   7.662  0.00  0.00    +0.000 NA
ENDBRANCH  11  12
ENDBRANCH   8  11
ENDBRANCH   7   8
ENDBRANCH   1   7
BRANCH   4  18
ATOM     18  C   UNL     1      48.000   7.694  14.238  0.00  0.00    +0.000 C 
BRANCH  18  19
ATOM     19  N   UNL     1      48.047   7.025  15.517  0.00  0.00    +0.000 N 
ATOM     20  C   UNL     1      49.204   6.605  16.123  0.00  0.00    +0.000 C 
ATOM     21  O   UNL     1      50.296   6.612  15.565  0.00  0.00    +0.000 OA
ATOM     22  H   UNL     1      47.266   7.225  16.126  0.00  0.00    +0.000 HD
BRANCH  20  23
ATOM     23  C   UNL     1      49.028   6.076  17.483  0.00  0.00    +0.000 A 
ATOM     24  C   UNL     1      49.421   4.781  17.790  0.00  0.00    +0.000 A 
ATOM     25  S   UNL     1      49.057   4.324  19.394  0.00  0.00    +0.000 S 
ATOM     26  C   UNL     1      48.410   5.857  19.750  0.00  0.00    +0.000 A 
ATOM     27  N   UNL     1      47.906   6.145  20.980  0.00  0.00    +0.000 NA
ATOM     28  C   UNL     1      47.472   7.355  21.111  0.00  0.00    +0.000 A 
ATOM     29  N   UNL     1      47.496   8.306  20.126  0.00  0.00    +0.000 N 
ATOM     30  C   UNL     1      47.977   8.059  18.863  0.00  0.00    +0.000 A 
ATOM     31  O   UNL     1      47.949   8.926  17.998  0.00  0.00    +0.000 OA
ATOM     32  C   UNL     1      48.470   6.707  18.659  0.00  0.00    +0.000 A 
ATOM     33  H   UNL     1      47.139   9.236  20.288  0.00  0.00    +0.000 HD
ENDBRANCH  20  23
ENDBRANCH  18  19
ENDBRANCH   4  18
TORSDOF 7
ENDMDL
MODEL 4
REMARK VINA RESULT:    -7.644      2.327      2.968
REMARK INTER + INTRA:         -11.609
REMARK INTER:                 -10.421
REMARK INTRA:                  -1.188
REMARK UNBOUND:                -0.837
REMARK  Name = 
REMARK  8 active torsions:
REMARK  status: ('A' for Active; 'I' for Inactive)
REMARK    1  A    between atoms: C_1  and  C_2
REMARK    2  A    between atoms: C_2  and  N_3
REMARK    3  A    between atoms: C_2  and  C_25
REMARK    4  A    between atoms: N_3  and  C_4
REMARK    5  A    between atoms: C_4  and  C_5
REMARK    6  A    between atoms: C_8  and  C_9
REMARK    7  A    between atoms: C_9  and  N_10
REMARK    8  A    between atoms: C_11  and  C_13
REMARK                            x       y       z     vdW  Elec       q    Type
REMARK                         _______ _______ _______ _____ _____    ______ ____
ROOT
ATOM      1  C   UNL     1      45.488   6.181  12.203  0.00  0.00    +0.000 C 
ATOM      2  C   UNL     1      46.073   5.814  13.579  0.00  0.00    +0.000 C 
ATOM      3  C   UNL     1      47.600   5.860  13.604  0.00  0.00    +0.000 C 
ATOM      4  C   UNL     1      48.180   7.202  13.118  0.00  0.00    +0.000 C 
ATOM      5  C   UNL     1      47.610   7.537  11.733  0.00  0.00    +0.000 C 
ATOM      6  C   UNL     1      46.081   7.516  11.711  0.00  0.00    +0.000 C 
ENDROOT
BRANCH   1   7
ATOM      7  C   UNL     1      45.674   5.078  11.134  0.00  0.00    +0.000 C 
BRANCH   7   8
ATOM      8  N   UNL     1      44.694   5.209  10.056  0.00  0.00    +0.000 NA
ATOM      9  H   UNL     1      43.872   5.705  10.403  0.00  0.00    +0.000 HD
BRANCH   8  11
ATOM     10  C   UNL     1      43.842   2.928  10.671  0.00  0.00    +0.000 C 
ATOM     11  C   UNL     1      44.206   3.909   9.548  0.00  0.00    +0.000 C 
BRANCH  11  12
ATOM     12  C   UNL     1      45.250   3.274   8.629  0.00  0.00    +0.000 A 
ATOM     13  C   UNL     1      45.593   1.926   8.764  0.00  0.00    +0.000 A 
ATOM     14  C   UNL     1      46.522   1.371   7.891  0.00  0.00    +0.000 A 
ATOM     15  C   UNL     1      47.099   2.174   6.917  0.00  0.00    +0.000 A 
ATOM     16  C   UNL     1      46.728   3.507   6.863  0.00  0.00    +0.000 A 
ATOM     17  N   UNL     1      45.823   4.073   7.692  0.00  0.00    +0.000 NA
ENDBRANCH  11  12
ENDBRANCH   8  11
ENDBRANCH   7   8
ENDBRANCH   1   7
BRANCH   4  18
ATOM     18  C   UNL     1      47.967   8.379  14.096  0.00  0.00    +0.000 C 
BRANCH  18  19
ATOM     19  N   UNL     1      47.951   7.919  15.466  0.00  0.00    +0.000 N 
ATOM     20  C   UNL     1      48.791   8.387  16.444  0.00  0.00    +0.000 C 
ATOM     21  O   UNL     1      49.744   9.123  16.215  0.00  0.00    +0.000 OA
ATOM     22  H   UNL     1      47.063   7.545  15.774  0.00  0.00    +0.000 HD
BRANCH  20  23
ATOM     23  C   UNL     1      48.503   7.881  17.793  0.00  0.00    +0.000 A 
ATOM     24  C   UNL     1      48.012   8.732  18.773  0.00  0.00    +0.000 A 
ATOM     25  S   UNL     1      47.822   7.978  20.293  0.00  0.00    +0.000 S 
ATOM     26  C   UNL     1      48.340   6.477  19.683  0.00  0.00    +0.000 A 
ATOM     27  N   UNL     1      48.416   5.377  20.480  0.00  0.00    +0.000 NA
ATOM     28  C   UNL     1      48.801   4.302  19.873  0.00  0.00    +0.000 A 
ATOM     29  N   UNL     1      49.117   4.225  18.543  0.00  0.00    +0.000 N 
ATOM     30  C   UNL     1      49.073   5.310  17.702  0.00  0.00    +0.000 A 
ATOM     31  O   UNL     1      49.396   5.208  16.524  0.00  0.00    +0.000 OA
ATOM     32  C   UNL     1      48.654   6.549  18.337  0.00  0.00    +0.000 A 
ATOM     33  H   UNL     1      49.414   3.356  18.126  0.00  0.00    +0.000 HD
ENDBRANCH  20  23
ENDBRANCH  18  19
ENDBRANCH   4  18
TORSDOF 7
ENDMDL
MODEL 5
REMARK VINA RESULT:    -7.366      2.109      2.981
REMARK INTER + INTRA:         -11.217
REMARK INTER:                  -9.999
REMARK INTRA:                  -1.217
REMARK UNBOUND:                -0.837
REMARK  Name = 
REMARK  8 active torsions:
REMARK  status: ('A' for Active; 'I' for Inactive)
REMARK    1  A    between atoms: C_1  and  C_2
REMARK    2  A    between atoms: C_2  and  N_3
REMARK    3  A    between atoms: C_2  and  C_25
REMARK    4  A    between atoms: N_3  and  C_4
REMARK    5  A    between atoms: C_4  and  C_5
REMARK    6  A    between atoms: C_8  and  C_9
REMARK    7  A    between atoms: C_9  and  N_10
REMARK    8  A    between atoms: C_11  and  C_13
REMARK                            x       y       z     vdW  Elec       q    Type
REMARK                         _______ _______ _______ _____ _____    ______ ____
ROOT
ATOM      1  C   UNL     1      45.174   6.927  10.955  0.00  0.00    +0.000 C 
ATOM      2  C   UNL     1      45.117   8.395  11.414  0.00  0.00    +0.000 C 
ATOM      3  C   UNL     1      45.359   8.557  12.914  0.00  0.00    +0.000 C 
ATOM      4  C   UNL     1      46.664   7.896  13.398  0.00  0.00    +0.000 C 
ATOM      5  C   UNL     1      46.690   6.426  12.959  0.00  0.00    +0.000 C 
ATOM      6  C   UNL     1      46.473   6.263  11.453  0.00  0.00    +0.000 C 
ENDROOT
BRANCH   1   7
ATOM      7  C   UNL     1      43.941   6.094  11.381  0.00  0.00    +0.000 C 
BRANCH   7   8
ATOM      8  N   UNL     1      43.437   5.282  10.273  0.00  0.00    +0.000 NA
ATOM      9  H   UNL     1      42.423   5.384  10.214  0.00  0.00    +0.000 HD
BRANCH   8  11
ATOM     10  C   UNL     1      44.223   3.484  11.840  0.00  0.00    +0.000 C 
ATOM     11  C   UNL     1      43.697   3.837  10.442  0.00  0.00    +0.000 C 
BRANCH  11  12
ATOM     12  C   UNL     1      44.685   3.349   9.382  0.00  0.00    +0.000 A 
ATOM     13  C   UNL     1      45.265   4.246   8.483  0.00  0.00    +0.000 A 
ATOM     14  C   UNL     1      46.184   3.775   7.551  0.00  0.00    +0.000 A 
ATOM     15  C   UNL     1      46.489   2.421   7.527  0.00  0.00    +0.000 A 
ATOM     16  C   UNL     1      45.853   1.591   8.433  0.00  0.00    +0.000 A 
ATOM     17  N   UNL     1      44.962   2.019   9.355  0.00  0.00    +0.000 NA
ENDBRANCH  11  12
ENDBRANCH   8  11
ENDBRANCH   7   8
ENDBRANCH   1   7
BRANCH   4  18
ATOM     18  C   UNL     1      47.950   8.624  12.949  0.00  0.00    +0.000 C 
BRANCH  18  19
ATOM     19  N   UNL     1      49.102   8.136  13.671  0.00  0.00    +0.000 N 
ATOM     20  C   UNL     1      49.270   8.264  15.026  0.00  0.00    +0.000 C 
ATOM     21  O   UNL     1      48.537   8.947  15.733  0.00  0.00    +0.000 OA
ATOM     22  H   UNL     1      49.581   7.364  13.228  0.00  0.00    +0.000 HD
BRANCH  20  23
ATOM     23  C   UNL     1      50.448   7.571  15.567  0.00  0.00    +0.000 A 
ATOM     24  C   UNL     1      51.727   8.018  15.266  0.00  0.00    +0.000 A 
ATOM     25  S   UNL     1      52.960   7.033  15.918  0.00  0.00    +0.000 S 
ATOM     26  C   UNL     1      51.830   6.006  16.667  0.00  0.00    +0.000 A 
ATOM     27  N   UNL     1      52.228   4.932  17.401  0.00  0.00    +0.000 NA
ATOM     28  C   UNL     1      51.260   4.258  17.931  0.00  0.00    +0.000 A 
ATOM     29  N   UNL     1      49.931   4.559  17.795  0.00  0.00    +0.000 N 
ATOM     30  C   UNL     1      49.479   5.621  17.051  0.00  0.00    +0.000 A 
ATOM     31  O   UNL     1      48.280   5.838  16.925  0.00  0.00    +0.000 OA
ATOM     32  C   UNL     1      50.528   6.408  16.424  0.00  0.00    +0.000 A 
ATOM     33  H   UNL     1      49.220   3.993  18.233  0.00  0.00    +0.000 HD
ENDBRANCH  20  23
ENDBRANCH  18  19
ENDBRANCH   4  18
TORSDOF 7
ENDMDL
MODEL 6
REMARK VINA RESULT:    -7.350      3.405      8.586
REMARK INTER + INTRA:         -11.194
REMARK INTER:                  -9.360
REMARK INTRA:                  -1.834
REMARK UNBOUND:                -0.837
REMARK  Name = 
REMARK  8 active torsions:
REMARK  status: ('A' for Active; 'I' for Inactive)
REMARK    1  A    between atoms: C_1  and  C_2
REMARK    2  A    between atoms: C_2  and  N_3
REMARK    3  A    between atoms: C_2  and  C_25
REMARK    4  A    between atoms: N_3  and  C_4
REMARK    5  A    between atoms: C_4  and  C_5
REMARK    6  A    between atoms: C_8  and  C_9
REMARK    7  A    between atoms: C_9  and  N_10
REMARK    8  A    between atoms: C_11  and  C_13
REMARK                            x       y       z     vdW  Elec       q    Type
REMARK                         _______ _______ _______ _____ _____    ______ ____
ROOT
ATOM      1  C   UNL     1      49.122   9.005  15.122  0.00  0.00    +0.000 C 
ATOM      2  C   UNL     1      49.647   9.607  13.806  0.00  0.00    +0.000 C 
ATOM      3  C   UNL     1      50.301   8.567  12.897  0.00  0.00    +0.000 C 
ATOM      4  C   UNL     1      49.395   7.355  12.606  0.00  0.00    +0.000 C 
ATOM      5  C   UNL     1      48.906   6.748  13.927  0.00  0.00    +0.000 C 
ATOM      6  C   UNL     1      48.230   7.782  14.829  0.00  0.00    +0.000 C 
ENDROOT
BRANCH   1   7
ATOM      7  C   UNL     1      50.240   8.632  16.125  0.00  0.00    +0.000 C 
BRANCH   7   8
ATOM      8  N   UNL     1      49.737   7.754  17.182  0.00  0.00    +0.000 NA
ATOM      9  H   UNL     1      49.759   8.252  18.074  0.00  0.00    +0.000 HD
BRANCH   8  11
ATOM     10  C   UNL     1      51.684   6.412  16.338  0.00  0.00    +0.000 C 
ATOM     11  C   UNL     1      50.556   6.538  17.370  0.00  0.00    +0.000 C 
BRANCH  11  12
ATOM     12  C   UNL     1      49.671   5.291  17.321  0.00  0.00    +0.000 A 
ATOM     13  C   UNL     1      48.281   5.402  17.394  0.00  0.00    +0.000 A 
ATOM     14  C   UNL     1      47.503   4.252  17.313  0.00  0.00    +0.000 A 
ATOM     15  C   UNL     1      48.129   3.020  17.180  0.00  0.00    +0.000 A 
ATOM     16  C   UNL     1      49.513   2.990  17.142  0.00  0.00    +0.000 A 
ATOM     17  N   UNL     1      50.295   4.090  17.210  0.00  0.00    +0.000 NA
ENDBRANCH  11  12
ENDBRANCH   8  11
ENDBRANCH   7   8
ENDBRANCH   1   7
BRANCH   4  18
ATOM     18  C   UNL     1      48.205   7.660  11.670  0.00  0.00    +0.000 C 
BRANCH  18  19
ATOM     19  N   UNL     1      47.227   6.597  11.710  0.00  0.00    +0.000 N 
ATOM     20  C   UNL     1      45.871   6.799  11.686  0.00  0.00    +0.000 C 
ATOM     21  O   UNL     1      45.355   7.907  11.791  0.00  0.00    +0.000 OA
ATOM     22  H   UNL     1      47.557   5.708  11.361  0.00  0.00    +0.000 HD
BRANCH  20  23
ATOM     23  C   UNL     1      45.069   5.571  11.594  0.00  0.00    +0.000 A 
ATOM     24  C   UNL     1      44.268   5.173  12.654  0.00  0.00    +0.000 A 
ATOM     25  S   UNL     1      43.482   3.681  12.388  0.00  0.00    +0.000 S 
ATOM     26  C   UNL     1      44.143   3.541  10.827  0.00  0.00    +0.000 A 
ATOM     27  N   UNL     1      43.869   2.468  10.036  0.00  0.00    +0.000 NA
ATOM     28  C   UNL     1      44.421   2.510   8.868  0.00  0.00    +0.000 A 
ATOM     29  N   UNL     1      45.221   3.526   8.416  0.00  0.00    +0.000 N 
ATOM     30  C   UNL     1      45.542   4.619   9.183  0.00  0.00    +0.000 A 
ATOM     31  O   UNL     1      46.289   5.491   8.756  0.00  0.00    +0.000 OA
ATOM     32  C   UNL     1      44.953   4.618  10.512  0.00  0.00    +0.000 A 
ATOM     33  H   UNL     1      45.626   3.501   7.493  0.00  0.00    +0.000 HD
ENDBRANCH  20  23
ENDBRANCH  18  19
ENDBRANCH   4  18
TORSDOF 7
ENDMDL
MODEL 7
REMARK VINA RESULT:    -7.281      3.427      8.435
REMARK INTER + INTRA:         -11.097
REMARK INTER:                  -9.308
REMARK INTRA:                  -1.788
REMARK UNBOUND:                -0.837
REMARK  Name = 
REMARK  8 active torsions:
REMARK  status: ('A' for Active; 'I' for Inactive)
REMARK    1  A    between atoms: C_1  and  C_2
REMARK    2  A    between atoms: C_2  and  N_3
REMARK    3  A    between atoms: C_2  and  C_25
REMARK    4  A    between atoms: N_3  and  C_4
REMARK    5  A    between atoms: C_4  and  C_5
REMARK    6  A    between atoms: C_8  and  C_9
REMARK    7  A    between atoms: C_9  and  N_10
REMARK    8  A    between atoms: C_11  and  C_13
REMARK                            x       y       z     vdW  Elec       q    Type
REMARK                         _______ _______ _______ _____ _____    ______ ____
ROOT
ATOM      1  C   UNL     1      49.294   9.096  15.589  0.00  0.00    +0.000 C 
ATOM      2  C   UNL     1      49.966   9.741  14.363  0.00  0.00    +0.000 C 
ATOM      3  C   UNL     1      50.589   8.713  13.420  0.00  0.00    +0.000 C 
ATOM      4  C   UNL     1      49.602   7.617  12.973  0.00  0.00    +0.000 C 
ATOM      5  C   UNL     1      48.965   6.964  14.207  0.00  0.00    +0.000 C 
ATOM      6  C   UNL     1      48.320   7.989  15.142  0.00  0.00    +0.000 C 
ENDROOT
BRANCH   1   7
ATOM      7  C   UNL     1      50.298   8.546  16.631  0.00  0.00    +0.000 C 
BRANCH   7   8
ATOM      8  N   UNL     1      49.667   7.565  17.514  0.00  0.00    +0.000 NA
ATOM      9  H   UNL     1      49.598   7.953  18.456  0.00  0.00    +0.000 HD
BRANCH   8  11
ATOM     10  C   UNL     1      51.602   6.221  16.643  0.00  0.00    +0.000 C 
ATOM     11  C   UNL     1      50.440   6.312  17.642  0.00  0.00    +0.000 C 
BRANCH  11  12
ATOM     12  C   UNL     1      49.520   5.102  17.472  0.00  0.00    +0.000 A 
ATOM     13  C   UNL     1      48.133   5.264  17.429  0.00  0.00    +0.000 A 
ATOM     14  C   UNL     1      47.325   4.147  17.241  0.00  0.00    +0.000 A 
ATOM     15  C   UNL     1      47.916   2.897  17.117  0.00  0.00    +0.000 A 
ATOM     16  C   UNL     1      49.296   2.816  17.197  0.00  0.00    +0.000 A 
ATOM     17  N   UNL     1      50.108   3.882  17.371  0.00  0.00    +0.000 NA
ENDBRANCH  11  12
ENDBRANCH   8  11
ENDBRANCH   7   8
ENDBRANCH   1   7
BRANCH   4  18
ATOM     18  C   UNL     1      48.515   8.101  11.988  0.00  0.00    +0.000 C 
BRANCH  18  19
ATOM     19  N   UNL     1      47.722   6.994  11.506  0.00  0.00    +0.000 N 
ATOM     20  C   UNL     1      46.353   6.940  11.579  0.00  0.00    +0.000 C 
ATOM     21  O   UNL     1      45.681   7.752  12.206  0.00  0.00    +0.000 OA
ATOM     22  H   UNL     1      48.156   6.454  10.770  0.00  0.00    +0.000 HD
BRANCH  20  23
ATOM     23  C   UNL     1      45.747   5.786  10.900  0.00  0.00    +0.000 A 
ATOM     24  C   UNL     1      45.917   5.604   9.535  0.00  0.00    +0.000 A 
ATOM     25  S   UNL     1      45.069   4.256   8.919  0.00  0.00    +0.000 S 
ATOM     26  C   UNL     1      44.487   3.840  10.463  0.00  0.00    +0.000 A 
ATOM     27  N   UNL     1      43.679   2.760  10.647  0.00  0.00    +0.000 NA
ATOM     28  C   UNL     1      43.337   2.552  11.876  0.00  0.00    +0.000 A 
ATOM     29  N   UNL     1      43.727   3.323  12.938  0.00  0.00    +0.000 N 
ATOM     30  C   UNL     1      44.526   4.431  12.802  0.00  0.00    +0.000 A 
ATOM     31  O   UNL     1      44.827   5.115  13.773  0.00  0.00    +0.000 OA
ATOM     32  C   UNL     1      44.934   4.717  11.436  0.00  0.00    +0.000 A 
ATOM     33  H   UNL     1      43.424   3.110  13.877  0.00  0.00    +0.000 HD
ENDBRANCH  20  23
ENDBRANCH  18  19
ENDBRANCH   4  18
TORSDOF 7
ENDMDL
MODEL 8
REMARK VINA RESULT:    -6.968      1.944      2.316
REMARK INTER + INTRA:         -10.656
REMARK INTER:                  -9.631
REMARK INTRA:                  -1.025
REMARK UNBOUND:                -0.837
REMARK  Name = 
REMARK  8 active torsions:
REMARK  status: ('A' for Active; 'I' for Inactive)
REMARK    1  A    between atoms: C_1  and  C_2
REMARK    2  A    between atoms: C_2  and  N_3
REMARK    3  A    between atoms: C_2  and  C_25
REMARK    4  A    between atoms: N_3  and  C_4
REMARK    5  A    between atoms: C_4  and  C_5
REMARK    6  A    between atoms: C_8  and  C_9
REMARK    7  A    between atoms: C_9  and  N_10
REMARK    8  A    between atoms: C_11  and  C_13
REMARK                            x       y       z     vdW  Elec       q    Type
REMARK                         _______ _______ _______ _____ _____    ______ ____
ROOT
ATOM      1  C   UNL     1      46.011   7.359  12.615  0.00  0.00    +0.000 C 
ATOM      2  C   UNL     1      46.837   6.343  13.425  0.00  0.00    +0.000 C 
ATOM      3  C   UNL     1      48.195   6.043  12.792  0.00  0.00    +0.000 C 
ATOM      4  C   UNL     1      49.030   7.307  12.509  0.00  0.00    +0.000 C 
ATOM      5  C   UNL     1      48.203   8.294  11.675  0.00  0.00    +0.000 C 
ATOM      6  C   UNL     1      46.853   8.615  12.319  0.00  0.00    +0.000 C 
ENDROOT
BRANCH   1   7
ATOM      7  C   UNL     1      45.425   6.778  11.305  0.00  0.00    +0.000 C 
BRANCH   7   8
ATOM      8  N   UNL     1      45.348   5.318  11.356  0.00  0.00    +0.000 NA
ATOM      9  H   UNL     1      46.263   4.923  11.132  0.00  0.00    +0.000 HD
BRANCH   8  11
ATOM     10  C   UNL     1      43.300   3.902  11.027  0.00  0.00    +0.000 C 
ATOM     11  C   UNL     1      44.402   4.748  10.374  0.00  0.00    +0.000 C 
BRANCH  11  12
ATOM     12  C   UNL     1      45.153   3.906   9.341  0.00  0.00    +0.000 A 
ATOM     13  C   UNL     1      45.153   2.512   9.423  0.00  0.00    +0.000 A 
ATOM     14  C   UNL     1      45.819   1.775   8.450  0.00  0.00    +0.000 A 
ATOM     15  C   UNL     1      46.481   2.444   7.429  0.00  0.00    +0.000 A 
ATOM     16  C   UNL     1      46.457   3.828   7.432  0.00  0.00    +0.000 A 
ATOM     17  N   UNL     1      45.814   4.572   8.358  0.00  0.00    +0.000 NA
ENDBRANCH  11  12
ENDBRANCH   8  11
ENDBRANCH   7   8
ENDBRANCH   1   7
BRANCH   4  18
ATOM     18  C   UNL     1      49.591   7.996  13.773  0.00  0.00    +0.000 C 
BRANCH  18  19
ATOM     19  N   UNL     1      49.926   7.024  14.788  0.00  0.00    +0.000 N 
ATOM     20  C   UNL     1      49.413   7.033  16.060  0.00  0.00    +0.000 C 
ATOM     21  O   UNL     1      48.746   7.959  16.509  0.00  0.00    +0.000 OA
ATOM     22  H   UNL     1      50.228   6.128  14.430  0.00  0.00    +0.000 HD
BRANCH  20  23
ATOM     23  C   UNL     1      49.783   5.870  16.880  0.00  0.00    +0.000 A 
ATOM     24  C   UNL     1      48.802   5.070  17.448  0.00  0.00    +0.000 A 
ATOM     25  S   UNL     1      49.429   3.823  18.431  0.00  0.00    +0.000 S 
ATOM     26  C   UNL     1      51.033   4.277  18.090  0.00  0.00    +0.000 A 
ATOM     27  N   UNL     1      52.087   3.606  18.628  0.00  0.00    +0.000 NA
ATOM     28  C   UNL     1      53.246   4.047  18.260  0.00  0.00    +0.000 A 
ATOM     29  N   UNL     1      53.448   5.096  17.403  0.00  0.00    +0.000 N 
ATOM     30  C   UNL     1      52.417   5.814  16.848  0.00  0.00    +0.000 A 
ATOM     31  O   UNL     1      52.638   6.769  16.112  0.00  0.00    +0.000 OA
ATOM     32  C   UNL     1      51.090   5.365  17.237  0.00  0.00    +0.000 A 
ATOM     33  H   UNL     1      54.378   5.395  17.154  0.00  0.00    +0.000 HD
ENDBRANCH  20  23
ENDBRANCH  18  19
ENDBRANCH   4  18
TORSDOF 7
ENDMDL
MODEL 9
REMARK VINA RESULT:    -6.785      5.147      8.317
REMARK INTER + INTRA:         -10.399
REMARK INTER:                  -9.290
REMARK INTRA:                  -1.109
REMARK UNBOUND:                -0.837
REMARK  Name = 
REMARK  8 active torsions:
REMARK  status: ('A' for Active; 'I' for Inactive)
REMARK    1  A    between atoms: C_1  and  C_2
REMARK    2  A    between atoms: C_2  and  N_3
REMARK    3  A    between atoms: C_2  and  C_25
REMARK    4  A    between atoms: N_3  and  C_4
REMARK    5  A    between atoms: C_4  and  C_5
REMARK    6  A    between atoms: C_8  and  C_9
REMARK    7  A    between atoms: C_9  and  N_10
REMARK    8  A    between atoms: C_11  and  C_13
REMARK                            x       y       z     vdW  Elec       q    Type
REMARK                         _______ _______ _______ _____ _____    ______ ____
ROOT
ATOM      1  C   UNL     1      49.687   9.037  11.682  0.00  0.00    +0.000 C 
ATOM      2  C   UNL     1      49.037   7.670  11.401  0.00  0.00    +0.000 C 
ATOM      3  C   UNL     1      48.679   6.910  12.677  0.00  0.00    +0.000 C 
ATOM      4  C   UNL     1      47.806   7.727  13.650  0.00  0.00    +0.000 C 
ATOM      5  C   UNL     1      48.484   9.072  13.944  0.00  0.00    +0.000 C 
ATOM      6  C   UNL     1      48.822   9.846  12.668  0.00  0.00    +0.000 C 
ENDROOT
BRANCH   1   7
ATOM      7  C   UNL     1      51.144   8.938  12.194  0.00  0.00    +0.000 C 
BRANCH   7   8
ATOM      8  N   UNL     1      51.811   7.741  11.680  0.00  0.00    +0.000 NA
ATOM      9  H   UNL     1      52.060   7.131  12.461  0.00  0.00    +0.000 HD
BRANCH   8  11
ATOM     10  C   UNL     1      53.157   9.486  10.477  0.00  0.00    +0.000 C 
ATOM     11  C   UNL     1      53.072   8.034  10.967  0.00  0.00    +0.000 C 
BRANCH  11  12
ATOM     12  C   UNL     1      53.246   7.081   9.785  0.00  0.00    +0.000 A 
ATOM     13  C   UNL     1      52.495   7.248   8.619  0.00  0.00    +0.000 A 
ATOM     14  C   UNL     1      52.700   6.383   7.549  0.00  0.00    +0.000 A 
ATOM     15  C   UNL     1      53.635   5.363   7.673  0.00  0.00    +0.000 A 
ATOM     16  C   UNL     1      54.320   5.247   8.870  0.00  0.00    +0.000 A 
ATOM     17  N   UNL     1      54.149   6.075   9.924  0.00  0.00    +0.000 NA
ENDBRANCH  11  12
ENDBRANCH   8  11
ENDBRANCH   7   8
ENDBRANCH   1   7
BRANCH   4  18
ATOM     18  C   UNL     1      46.352   7.939  13.176  0.00  0.00    +0.000 C 
BRANCH  18  19
ATOM     19  N   UNL     1      45.752   6.691  12.766  0.00  0.00    +0.000 N 
ATOM     20  C   UNL     1      44.838   6.574  11.751  0.00  0.00    +0.000 C 
ATOM     21  O   UNL     1      44.319   7.540  11.200  0.00  0.00    +0.000 OA
ATOM     22  H   UNL     1      46.306   5.870  12.971  0.00  0.00    +0.000 HD
BRANCH  20  23
ATOM     23  C   UNL     1      44.468   5.193  11.413  0.00  0.00    +0.000 A 
ATOM     24  C   UNL     1      43.637   4.462  12.251  0.00  0.00    +0.000 A 
ATOM     25  S   UNL     1      43.393   2.855  11.731  0.00  0.00    +0.000 S 
ATOM     26  C   UNL     1      44.346   3.094  10.342  0.00  0.00    +0.000 A 
ATOM     27  N   UNL     1      44.555   2.092   9.446  0.00  0.00    +0.000 NA
ATOM     28  C   UNL     1      45.278   2.426   8.428  0.00  0.00    +0.000 A 
ATOM     29  N   UNL     1      45.811   3.671   8.222  0.00  0.00    +0.000 N 
ATOM     30  C   UNL     1      45.644   4.709   9.105  0.00  0.00    +0.000 A 
ATOM     31  O   UNL     1      46.165   5.799   8.903  0.00  0.00    +0.000 OA
ATOM     32  C   UNL     1      44.844   4.383  10.275  0.00  0.00    +0.000 A 
ATOM     33  H   UNL     1      46.370   3.871   7.406  0.00  0.00    +0.000 HD
ENDBRANCH  20  23
ENDBRANCH  18  19
ENDBRANCH   4  18
TORSDOF 7
ENDMDL
