MODEL 1
REMARK VINA RESULT:    -7.176      0.000      0.000
REMARK INTER + INTRA:          -8.916
REMARK INTER:                  -8.644
REMARK INTRA:                  -0.272
REMARK UNBOUND:                -0.272
REMARK  Name = 
REMARK  4 active torsions:
REMARK  status: ('A' for Active; 'I' for Inactive)
REMARK    1  A    between atoms: N_1  and  C_2
REMARK    2  A    between atoms: C_2  and  C_3
REMARK    3  A    between atoms: C_7  and  C_8
REMARK    4  A    between atoms: C_8  and  N_9
REMARK                            x       y       z     vdW  Elec       q    Type
REMARK                         _______ _______ _______ _____ _____    ______ ____
ROOT
ATOM      1  C   UNL     1      46.171   2.091   8.025  0.00  0.00    +0.000 A 
ATOM      2  C   UNL     1      46.340   3.364   7.478  0.00  0.00    +0.000 A 
ATOM      3  C   UNL     1      45.648   4.422   8.046  0.00  0.00    +0.000 A 
ATOM      4  N   UNL     1      44.831   4.305   9.111  0.00  0.00    +0.000 NA
ATOM      5  C   UNL     1      44.670   3.066   9.646  0.00  0.00    +0.000 A 
ATOM      6  C   UNL     1      45.318   1.946   9.128  0.00  0.00    +0.000 A 
ENDROOT
BRANCH   1   7
ATOM      7  C   UNL     1      46.895   0.900   7.458  0.00  0.00    +0.000 C 
BRANCH   7   8
ATOM      8  N   UNL     1      47.993   1.319   6.595  0.00  0.00    +0.000 NA
ATOM      9  H   UNL     1      47.980   2.333   6.502  0.00  0.00    +0.000 HD
ATOM     10  H   UNL     1      47.839   0.942   5.661  0.00  0.00    +0.000 HD
ENDBRANCH   7   8
ENDBRANCH   1   7
BRANCH   5  11
ATOM     11  C   UNL     1      43.761   2.935  10.854  0.00  0.00    +0.000 C 
BRANCH  11  12
ATOM     12  N   UNL     1      44.514   2.658  12.064  0.00  0.00    +0.000 N 
ATOM     13  C   UNL     1      45.294   3.636  12.647  0.00  0.00    +0.000 A 
ATOM     14  C   UNL     1      45.046   5.008  12.575  0.00  0.00    +0.000 A 
ATOM     15  N   UNL     1      45.808   5.955  13.186  0.00  0.00    +0.000 NA
ATOM     16  C   UNL     1      46.830   5.469  13.917  0.00  0.00    +0.000 A 
ATOM     17  C   UNL     1      47.081   4.115  14.017  0.00  0.00    +0.000 A 
ATOM     18  N   UNL     1      46.334   3.180  13.379  0.00  0.00    +0.000 NA
ATOM     19  H   UNL     1      44.987   1.764  12.117  0.00  0.00    +0.000 HD
ENDBRANCH  11  12
ENDBRANCH   5  11
TORSDOF 4
ENDMDL
MODEL 2
REMARK VINA RESULT:    -7.173      1.499      5.578
REMARK INTER + INTRA:          -8.912
REMARK INTER:                  -8.555
REMARK INTRA:                  -0.357
REMARK UNBOUND:                -0.272
REMARK  Name = 
REMARK  4 active torsions:
REMARK  status: ('A' for Active; 'I' for Inactive)
REMARK    1  A    between atoms: N_1  and  C_2
REMARK    2  A    between atoms: C_2  and  C_3
REMARK    3  A    between atoms: C_7  and  C_8
REMARK    4  A    between atoms: C_8  and  N_9
REMARK                            x       y       z     vdW  Elec       q    Type
REMARK                         _______ _______ _______ _____ _____    ______ ____
ROOT
ATOM      1  C   UNL     1      46.092   5.273  13.156  0.00  0.00    +0.000 A 
ATOM      2  C   UNL     1      46.170   6.648  12.934  0.00  0.00    +0.000 A 
ATOM      3  C   UNL     1      45.487   7.181  11.852  0.00  0.00    +0.000 A 
ATOM      4  N   UNL     1      44.733   6.455  11.004  0.00  0.00    +0.000 NA
ATOM      5  C   UNL     1      44.654   5.115  11.222  0.00  0.00    +0.000 A 
ATOM      6  C   UNL     1      45.320   4.498  12.280  0.00  0.00    +0.000 A 
ENDROOT
BRANCH   1   7
ATOM      7  C   UNL     1      46.807   4.632  14.314  0.00  0.00    +0.000 C 
BRANCH   7   8
ATOM      8  N   UNL     1      47.207   3.268  13.991  0.00  0.00    +0.000 NA
ATOM      9  H   UNL     1      46.754   2.623  14.636  0.00  0.00    +0.000 HD
ATOM     10  H   UNL     1      48.209   3.175  14.147  0.00  0.00    +0.000 HD
ENDBRANCH   7   8
ENDBRANCH   1   7
BRANCH   5  11
ATOM     11  C   UNL     1      43.793   4.299  10.277  0.00  0.00    +0.000 C 
BRANCH  11  12
ATOM     12  N   UNL     1      44.266   4.389   8.907  0.00  0.00    +0.000 N 
ATOM     13  C   UNL     1      45.181   3.479   8.417  0.00  0.00    +0.000 A 
ATOM     14  C   UNL     1      45.312   2.159   8.853  0.00  0.00    +0.000 A 
ATOM     15  N   UNL     1      46.198   1.268   8.333  0.00  0.00    +0.000 NA
ATOM     16  C   UNL     1      46.942   1.743   7.315  0.00  0.00    +0.000 A 
ATOM     17  C   UNL     1      46.815   3.039   6.856  0.00  0.00    +0.000 A 
ATOM     18  N   UNL     1      45.950   3.930   7.402  0.00  0.00    +0.000 NA
ATOM     19  H   UNL     1      44.477   5.314   8.554  0.00  0.00    +0.000 HD
ENDBRANCH  11  12
ENDBRANCH   5  11
TORSDOF 4
ENDMDL
MODEL 3
REMARK VINA RESULT:    -6.921      1.507      5.535
REMARK INTER + INTRA:          -8.609
REMARK INTER:                  -8.305
REMARK INTRA:                  -0.304
REMARK UNBOUND:                -0.272
REMARK  Name = 
REMARK  4 active torsions:
REMARK  status: ('A' for Active; 'I' for Inactive)
REMARK    1  A    between atoms: N_1  and  C_2
REMARK    2  A    between atoms: C_2  and  C_3
REMARK    3  A    between atoms: C_7  and  C_8
REMARK    4  A    between atoms: C_8  and  N_9
REMARK                            x       y       z     vdW  Elec       q    Type
REMARK                         _______ _______ _______ _____ _____    ______ ____
ROOT
ATOM      1  C   UNL     1      45.646   4.837  12.971  0.00  0.00    +0.000 A 
ATOM      2  C   UNL     1      44.919   6.025  12.884  0.00  0.00    +0.000 A 
ATOM      3  C   UNL     1      43.965   6.143  11.886  0.00  0.00    +0.000 A 
ATOM      4  N   UNL     1      43.680   5.170  10.997  0.00  0.00    +0.000 NA
ATOM      5  C   UNL     1      44.385   4.011  11.085  0.00  0.00    +0.000 A 
ATOM      6  C   UNL     1      45.370   3.816  12.052  0.00  0.00    +0.000 A 
ENDROOT
BRANCH   1   7
ATOM      7  C   UNL     1      46.693   4.644  14.035  0.00  0.00    +0.000 C 
BRANCH   7   8
ATOM      8  N   UNL     1      47.187   3.273  14.039  0.00  0.00    +0.000 NA
ATOM      9  H   UNL     1      48.204   3.282  14.071  0.00  0.00    +0.000 HD
ATOM     10  H   UNL     1      46.931   2.830  13.158  0.00  0.00    +0.000 HD
ENDBRANCH   7   8
ENDBRANCH   1   7
BRANCH   5  11
ATOM     11  C   UNL     1      44.053   2.910  10.095  0.00  0.00    +0.000 C 
BRANCH  11  12
ATOM     12  N   UNL     1      45.231   2.144   9.729  0.00  0.00    +0.000 N 
ATOM     13  C   UNL     1      45.832   2.321   8.500  0.00  0.00    +0.000 A 
ATOM     14  C   UNL     1      45.822   3.508   7.765  0.00  0.00    +0.000 A 
ATOM     15  N   UNL     1      46.450   3.672   6.570  0.00  0.00    +0.000 NA
ATOM     16  C   UNL     1      47.134   2.594   6.141  0.00  0.00    +0.000 A 
ATOM     17  C   UNL     1      47.174   1.417   6.862  0.00  0.00    +0.000 A 
ATOM     18  N   UNL     1      46.519   1.253   8.038  0.00  0.00    +0.000 NA
ATOM     19  H   UNL     1      45.236   1.162   9.978  0.00  0.00    +0.000 HD
ENDBRANCH  11  12
ENDBRANCH   5  11
TORSDOF 4
ENDMDL
MODEL 4
REMARK VINA RESULT:    -6.827      1.694      5.980
REMARK INTER + INTRA:          -8.495
REMARK INTER:                  -8.158
REMARK INTRA:                  -0.337
REMARK UNBOUND:                -0.272
REMARK  Name = 
REMARK  4 active torsions:
REMARK  status: ('A' for Active; 'I' for Inactive)
REMARK    1  A    between atoms: N_1  and  C_2
REMARK    2  A    between atoms: C_2  and  C_3
REMARK    3  A    between atoms: C_7  and  C_8
REMARK    4  A    between atoms: C_8  and  N_9
REMARK                            x       y       z     vdW  Elec       q    Type
REMARK                         _______ _______ _______ _____ _____    ______ ____
ROOT
ATOM      1  C   UNL     1      45.721   6.710  12.336  0.00  0.00    +0.000 A 
ATOM      2  C   UNL     1      46.326   5.843  13.246  0.00  0.00    +0.000 A 
ATOM      3  C   UNL     1      46.037   4.490  13.159  0.00  0.00    +0.000 A 
ATOM      4  N   UNL     1      45.217   3.952  12.234  0.00  0.00    +0.000 NA
ATOM      5  C   UNL     1      44.631   4.796  11.346  0.00  0.00    +0.000 A 
ATOM      6  C   UNL     1      44.858   6.171  11.372  0.00  0.00    +0.000 A 
ENDROOT
BRANCH   1   7
ATOM      7  C   UNL     1      45.995   8.189  12.374  0.00  0.00    +0.000 C 
BRANCH   7   8
ATOM      8  N   UNL     1      46.415   8.609  13.705  0.00  0.00    +0.000 NA
ATOM      9  H   UNL     1      46.728   7.795  14.231  0.00  0.00    +0.000 HD
ATOM     10  H   UNL     1      45.607   8.979  14.203  0.00  0.00    +0.000 HD
ENDBRANCH   7   8
ENDBRANCH   1   7
BRANCH   5  11
ATOM     11  C   UNL     1      43.719   4.190  10.295  0.00  0.00    +0.000 C 
BRANCH  11  12
ATOM     12  N   UNL     1      44.254   4.363   8.956  0.00  0.00    +0.000 N 
ATOM     13  C   UNL     1      45.199   3.490   8.457  0.00  0.00    +0.000 A 
ATOM     14  C   UNL     1      45.322   2.148   8.821  0.00  0.00    +0.000 A 
ATOM     15  N   UNL     1      46.239   1.294   8.292  0.00  0.00    +0.000 NA
ATOM     16  C   UNL     1      47.025   1.832   7.339  0.00  0.00    +0.000 A 
ATOM     17  C   UNL     1      46.907   3.153   6.951  0.00  0.00    +0.000 A 
ATOM     18  N   UNL     1      46.009   4.004   7.506  0.00  0.00    +0.000 NA
ATOM     19  H   UNL     1      44.472   5.309   8.667  0.00  0.00    +0.000 HD
ENDBRANCH  11  12
ENDBRANCH   5  11
TORSDOF 4
ENDMDL
MODEL 5
REMARK VINA RESULT:    -6.802      1.388      2.380
REMARK INTER + INTRA:          -8.466
REMARK INTER:                  -8.258
REMARK INTRA:                  -0.208
REMARK UNBOUND:                -0.272
REMARK  Name = 
REMARK  4 active torsions:
REMARK  status: ('A' for Active; 'I' for Inactive)
REMARK    1  A    between atoms: N_1  and  C_2
REMARK    2  A    between atoms: C_2  and  C_3
REMARK    3  A    between atoms: C_7  and  C_8
REMARK    4  A    between atoms: C_8  and  N_9
REMARK                            x       y       z     vdW  Elec       q    Type
REMARK                         _______ _______ _______ _____ _____    ______ ____
ROOT
ATOM      1  C   UNL     1      46.593   2.552   6.641  0.00  0.00    +0.000 A 
ATOM      2  C   UNL     1      46.690   1.275   7.194  0.00  0.00    +0.000 A 
ATOM      3  C   UNL     1      46.000   1.011   8.367  0.00  0.00    +0.000 A 
ATOM      4  N   UNL     1      45.222   1.909   9.003  0.00  0.00    +0.000 NA
ATOM      5  C   UNL     1      45.124   3.152   8.462  0.00  0.00    +0.000 A 
ATOM      6  C   UNL     1      45.795   3.503   7.292  0.00  0.00    +0.000 A 
ENDROOT
BRANCH   1   7
ATOM      7  C   UNL     1      47.315   2.903   5.368  0.00  0.00    +0.000 C 
BRANCH   7   8
ATOM      8  N   UNL     1      48.548   2.137   5.238  0.00  0.00    +0.000 NA
ATOM      9  H   UNL     1      48.927   2.267   4.302  0.00  0.00    +0.000 HD
ATOM     10  H   UNL     1      48.329   1.146   5.325  0.00  0.00    +0.000 HD
ENDBRANCH   7   8
ENDBRANCH   1   7
BRANCH   5  11
ATOM     11  C   UNL     1      44.236   4.158   9.169  0.00  0.00    +0.000 C 
BRANCH  11  12
ATOM     12  N   UNL     1      45.015   5.178   9.846  0.00  0.00    +0.000 N 
ATOM     13  C   UNL     1      45.287   5.076  11.196  0.00  0.00    +0.000 A 
ATOM     14  C   UNL     1      45.405   3.877  11.901  0.00  0.00    +0.000 A 
ATOM     15  N   UNL     1      45.708   3.796  13.224  0.00  0.00    +0.000 NA
ATOM     16  C   UNL     1      45.928   4.982  13.825  0.00  0.00    +0.000 A 
ATOM     17  C   UNL     1      45.837   6.178  13.140  0.00  0.00    +0.000 A 
ATOM     18  N   UNL     1      45.503   6.250  11.828  0.00  0.00    +0.000 NA
ATOM     19  H   UNL     1      44.818   6.143   9.607  0.00  0.00    +0.000 HD
ENDBRANCH  11  12
ENDBRANCH   5  11
TORSDOF 4
ENDMDL
MODEL 6
REMARK VINA RESULT:    -5.961      2.816      4.445
REMARK INTER + INTRA:          -7.452
REMARK INTER:                  -7.240
REMARK INTRA:                  -0.212
REMARK UNBOUND:                -0.272
REMARK  Name = 
REMARK  4 active torsions:
REMARK  status: ('A' for Active; 'I' for Inactive)
REMARK    1  A    between atoms: N_1  and  C_2
REMARK    2  A    between atoms: C_2  and  C_3
REMARK    3  A    between atoms: C_7  and  C_8
REMARK    4  A    between atoms: C_8  and  N_9
REMARK                            x       y       z     vdW  Elec       q    Type
REMARK                         _______ _______ _______ _____ _____    ______ ____
ROOT
ATOM      1  C   UNL     1      44.771   3.818  11.035  0.00  0.00    +0.000 A 
ATOM      2  C   UNL     1      45.069   4.893  10.197  0.00  0.00    +0.000 A 
ATOM      3  C   UNL     1      45.798   5.951  10.715  0.00  0.00    +0.000 A 
ATOM      4  N   UNL     1      46.257   6.002  11.982  0.00  0.00    +0.000 NA
ATOM      5  C   UNL     1      45.970   4.953  12.797  0.00  0.00    +0.000 A 
ATOM      6  C   UNL     1      45.231   3.855  12.358  0.00  0.00    +0.000 A 
ENDROOT
BRANCH   1   7
ATOM      7  C   UNL     1      43.985   2.637  10.533  0.00  0.00    +0.000 C 
BRANCH   7   8
ATOM      8  N   UNL     1      43.044   2.168  11.542  0.00  0.00    +0.000 NA
ATOM      9  H   UNL     1      42.169   2.681  11.449  0.00  0.00    +0.000 HD
ATOM     10  H   UNL     1      43.413   2.393  12.465  0.00  0.00    +0.000 HD
ENDBRANCH   7   8
ENDBRANCH   1   7
BRANCH   5  11
ATOM     11  C   UNL     1      46.499   5.003  14.219  0.00  0.00    +0.000 C 
BRANCH  11  12
ATOM     12  N   UNL     1      46.993   3.708  14.653  0.00  0.00    +0.000 N 
ATOM     13  C   UNL     1      47.713   3.586  15.824  0.00  0.00    +0.000 A 
ATOM     14  C   UNL     1      47.575   4.413  16.940  0.00  0.00    +0.000 A 
ATOM     15  N   UNL     1      48.270   4.255  18.098  0.00  0.00    +0.000 NA
ATOM     16  C   UNL     1      49.104   3.196  18.114  0.00  0.00    +0.000 A 
ATOM     17  C   UNL     1      49.241   2.355  17.027  0.00  0.00    +0.000 A 
ATOM     18  N   UNL     1      48.566   2.539  15.866  0.00  0.00    +0.000 NA
ATOM     19  H   UNL     1      47.386   3.104  13.941  0.00  0.00    +0.000 HD
ENDBRANCH  11  12
ENDBRANCH   5  11
TORSDOF 4
ENDMDL
MODEL 7
REMARK VINA RESULT:    -5.886      3.373      7.644
REMARK INTER + INTRA:          -7.363
REMARK INTER:                  -7.162
REMARK INTRA:                  -0.201
REMARK UNBOUND:                -0.272
REMARK  Name = 
REMARK  4 active torsions:
REMARK  status: ('A' for Active; 'I' for Inactive)
REMARK    1  A    between atoms: N_1  and  C_2
REMARK    2  A    between atoms: C_2  and  C_3
REMARK    3  A    between atoms: C_7  and  C_8
REMARK    4  A    between atoms: C_8  and  N_9
REMARK                            x       y       z     vdW  Elec       q    Type
REMARK                         _______ _______ _______ _____ _____    ______ ____
ROOT
ATOM      1  C   UNL     1      48.349   4.099  18.073  0.00  0.00    +0.000 A 
ATOM      2  C   UNL     1      49.006   2.895  17.821  0.00  0.00    +0.000 A 
ATOM      3  C   UNL     1      48.885   2.328  16.562  0.00  0.00    +0.000 A 
ATOM      4  N   UNL     1      48.182   2.879  15.552  0.00  0.00    +0.000 NA
ATOM      5  C   UNL     1      47.545   4.055  15.796  0.00  0.00    +0.000 A 
ATOM      6  C   UNL     1      47.606   4.684  17.038  0.00  0.00    +0.000 A 
ENDROOT
BRANCH   1   7
ATOM      7  C   UNL     1      48.442   4.768  19.418  0.00  0.00    +0.000 C 
BRANCH   7   8
ATOM      8  N   UNL     1      48.444   3.783  20.492  0.00  0.00    +0.000 NA
ATOM      9  H   UNL     1      48.050   2.910  20.148  0.00  0.00    +0.000 HD
ATOM     10  H   UNL     1      47.825   4.106  21.234  0.00  0.00    +0.000 HD
ENDBRANCH   7   8
ENDBRANCH   1   7
BRANCH   5  11
ATOM     11  C   UNL     1      46.767   4.683  14.655  0.00  0.00    +0.000 C 
BRANCH  11  12
ATOM     12  N   UNL     1      46.161   3.677  13.801  0.00  0.00    +0.000 N 
ATOM     13  C   UNL     1      45.184   4.023  12.890  0.00  0.00    +0.000 A 
ATOM     14  C   UNL     1      45.071   5.267  12.269  0.00  0.00    +0.000 A 
ATOM     15  N   UNL     1      44.120   5.578  11.347  0.00  0.00    +0.000 NA
ATOM     16  C   UNL     1      43.287   4.565  11.035  0.00  0.00    +0.000 A 
ATOM     17  C   UNL     1      43.394   3.321  11.624  0.00  0.00    +0.000 A 
ATOM     18  N   UNL     1      44.326   3.030  12.565  0.00  0.00    +0.000 NA
ATOM     19  H   UNL     1      45.935   2.787  14.228  0.00  0.00    +0.000 HD
ENDBRANCH  11  12
ENDBRANCH   5  11
TORSDOF 4
ENDMDL
MODEL 8
REMARK VINA RESULT:    -5.426      3.683      7.197
REMARK INTER + INTRA:          -6.808
REMARK INTER:                  -6.505
REMARK INTRA:                  -0.303
REMARK UNBOUND:                -0.272
REMARK  Name = 
REMARK  4 active torsions:
REMARK  status: ('A' for Active; 'I' for Inactive)
REMARK    1  A    between atoms: N_1  and  C_2
REMARK    2  A    between atoms: C_2  and  C_3
REMARK    3  A    between atoms: C_7  and  C_8
REMARK    4  A    between atoms: C_8  and  N_9
REMARK                            x       y       z     vdW  Elec       q    Type
REMARK                         _______ _______ _______ _____ _____    ______ ____
ROOT
ATOM      1  C   UNL     1      48.440   4.602  17.083  0.00  0.00    +0.000 A 
ATOM      2  C   UNL     1      49.539   5.411  17.371  0.00  0.00    +0.000 A 
ATOM      3  C   UNL     1      49.926   6.355  16.432  0.00  0.00    +0.000 A 
ATOM      4  N   UNL     1      49.294   6.555  15.259  0.00  0.00    +0.000 NA
ATOM      5  C   UNL     1      48.221   5.769  14.980  0.00  0.00    +0.000 A 
ATOM      6  C   UNL     1      47.774   4.788  15.864  0.00  0.00    +0.000 A 
ENDROOT
BRANCH   1   7
ATOM      7  C   UNL     1      47.966   3.560  18.061  0.00  0.00    +0.000 C 
BRANCH   7   8
ATOM      8  N   UNL     1      46.707   2.968  17.624  0.00  0.00    +0.000 NA
ATOM      9  H   UNL     1      46.359   3.479  16.815  0.00  0.00    +0.000 HD
ATOM     10  H   UNL     1      46.015   3.089  18.361  0.00  0.00    +0.000 HD
ENDBRANCH   7   8
ENDBRANCH   1   7
BRANCH   5  11
ATOM     11  C   UNL     1      47.500   6.003  13.666  0.00  0.00    +0.000 C 
BRANCH  11  12
ATOM     12  N   UNL     1      46.064   6.106  13.852  0.00  0.00    +0.000 N 
ATOM     13  C   UNL     1      45.210   5.199  13.259  0.00  0.00    +0.000 A 
ATOM     14  C   UNL     1      45.531   3.874  12.959  0.00  0.00    +0.000 A 
ATOM     15  N   UNL     1      44.663   2.985  12.406  0.00  0.00    +0.000 NA
ATOM     16  C   UNL     1      43.424   3.467  12.189  0.00  0.00    +0.000 A 
ATOM     17  C   UNL     1      43.081   4.769  12.497  0.00  0.00    +0.000 A 
ATOM     18  N   UNL     1      43.962   5.657  13.020  0.00  0.00    +0.000 NA
ATOM     19  H   UNL     1      45.661   7.035  13.814  0.00  0.00    +0.000 HD
ENDBRANCH  11  12
ENDBRANCH   5  11
TORSDOF 4
ENDMDL
MODEL 9
REMARK VINA RESULT:    -5.393      2.220      5.681
REMARK INTER + INTRA:          -6.769
REMARK INTER:                  -6.499
REMARK INTRA:                  -0.270
REMARK UNBOUND:                -0.272
REMARK  Name = 
REMARK  4 active torsions:
REMARK  status: ('A' for Active; 'I' for Inactive)
REMARK    1  A    between atoms: N_1  and  C_2
REMARK    2  A    between atoms: C_2  and  C_3
REMARK    3  A    between atoms: C_7  and  C_8
REMARK    4  A    between atoms: C_8  and  N_9
REMARK                            x       y       z     vdW  Elec       q    Type
REMARK                         _______ _______ _______ _____ _____    ______ ____
ROOT
ATOM      1  C   UNL     1      46.595   7.461  12.812  0.00  0.00    +0.000 A 
ATOM      2  C   UNL     1      46.200   8.774  12.558  0.00  0.00    +0.000 A 
ATOM      3  C   UNL     1      45.037   8.985  11.835  0.00  0.00    +0.000 A 
ATOM      4  N   UNL     1      44.247   7.995  11.372  0.00  0.00    +0.000 NA
ATOM      5  C   UNL     1      44.630   6.715  11.623  0.00  0.00    +0.000 A 
ATOM      6  C   UNL     1      45.792   6.417  12.333  0.00  0.00    +0.000 A 
ENDROOT
BRANCH   1   7
ATOM      7  C   UNL     1      47.846   7.164  13.595  0.00  0.00    +0.000 C 
BRANCH   7   8
ATOM      8  N   UNL     1      48.308   5.804  13.345  0.00  0.00    +0.000 NA
ATOM      9  H   UNL     1      47.538   5.155  13.494  0.00  0.00    +0.000 HD
ATOM     10  H   UNL     1      49.020   5.568  14.034  0.00  0.00    +0.000 HD
ENDBRANCH   7   8
ENDBRANCH   1   7
BRANCH   5  11
ATOM     11  C   UNL     1      43.734   5.601  11.116  0.00  0.00    +0.000 C 
BRANCH  11  12
ATOM     12  N   UNL     1      44.428   4.327  11.083  0.00  0.00    +0.000 N 
ATOM     13  C   UNL     1      44.935   3.832   9.899  0.00  0.00    +0.000 A 
ATOM     14  C   UNL     1      45.374   4.610   8.827  0.00  0.00    +0.000 A 
ATOM     15  N   UNL     1      45.903   4.104   7.681  0.00  0.00    +0.000 NA
ATOM     16  C   UNL     1      46.014   2.761   7.658  0.00  0.00    +0.000 A 
ATOM     17  C   UNL     1      45.604   1.974   8.716  0.00  0.00    +0.000 A 
ATOM     18  N   UNL     1      45.049   2.487   9.842  0.00  0.00    +0.000 NA
ATOM     19  H   UNL     1      44.030   3.572  11.630  0.00  0.00    +0.000 HD
ENDBRANCH  11  12
ENDBRANCH   5  11
TORSDOF 4
ENDMDL
