MODEL 1
REMARK VINA RESULT:    -8.710      0.000      0.000
REMARK INTER + INTRA:         -11.900
REMARK INTER:                 -11.256
REMARK INTRA:                  -0.644
REMARK UNBOUND:                -0.644
REMARK  Name = 
REMARK  5 active torsions:
REMARK  status: ('A' for Active; 'I' for Inactive)
REMARK    1  A    between atoms: C_2  and  C_4
REMARK    2  A    between atoms: C_7  and  O_8
REMARK    3  A    between atoms: O_8  and  C_9
REMARK    4  A    between atoms: C_9  and  C_10
REMARK    5  A    between atoms: C_14  and  C_15
REMARK                            x       y       z     vdW  Elec       q    Type
REMARK                         _______ _______ _______ _____ _____    ______ ____
ROOT
ATOM      1  C   UNL     1      43.527   4.242  11.148  0.00  0.00    +0.000 C 
ENDROOT
BRANCH   1   2
ATOM      2  C   UNL     1      44.734   4.702  11.923  0.00  0.00    +0.000 A 
ATOM      3  C   UNL     1      45.325   3.853  12.850  0.00  0.00    +0.000 A 
ATOM      4  N   UNL     1      46.430   4.162  13.556  0.00  0.00    +0.000 NA
ATOM      5  C   UNL     1      46.979   5.379  13.322  0.00  0.00    +0.000 A 
ATOM      6  C   UNL     1      46.504   6.317  12.402  0.00  0.00    +0.000 A 
ATOM      7  C   UNL     1      45.354   5.936  11.692  0.00  0.00    +0.000 A 
BRANCH   6   8
ATOM      8  C   UNL     1      47.168   7.621  12.183  0.00  0.00    +0.000 A 
ATOM      9  C   UNL     1      48.528   7.712  11.855  0.00  0.00    +0.000 A 
ATOM     10  C   UNL     1      49.103   8.960  11.655  0.00  0.00    +0.000 A 
ATOM     11  N   UNL     1      48.428  10.121  11.749  0.00  0.00    +0.000 NA
ATOM     12  C   UNL     1      47.124  10.024  12.061  0.00  0.00    +0.000 A 
ATOM     13  F   UNL     1      46.424  11.164  12.155  0.00  0.00    +0.000 F 
ATOM     14  C   UNL     1      46.463   8.828  12.287  0.00  0.00    +0.000 A 
ENDBRANCH   6   8
ENDBRANCH   1   2
BRANCH   1  15
ATOM     15  O   UNL     1      43.614   4.662   9.781  0.00  0.00    +0.000 OA
BRANCH  15  19
ATOM     16  C   UNL     1      46.406   2.453   7.709  0.00  0.00    +0.000 A 
ATOM     17  C   UNL     1      45.549   1.815   8.609  0.00  0.00    +0.000 A 
ATOM     18  C   UNL     1      44.610   2.575   9.311  0.00  0.00    +0.000 A 
ATOM     19  C   UNL     1      44.562   3.943   9.082  0.00  0.00    +0.000 A 
ATOM     20  N   UNL     1      45.387   4.586   8.229  0.00  0.00    +0.000 NA
ATOM     21  C   UNL     1      46.297   3.829   7.569  0.00  0.00    +0.000 A 
BRANCH  16  23
ATOM     22  N   UNL     1      48.488   2.481   6.463  0.00  0.00    +0.000 N 
ATOM     23  C   UNL     1      47.428   1.748   6.913  0.00  0.00    +0.000 C 
ATOM     24  O   UNL     1      47.353   0.545   6.704  0.00  0.00    +0.000 OA
ATOM     25  H   UNL     1      49.239   1.956   6.031  0.00  0.00    +0.000 HD
ATOM     26  H   UNL     1      48.713   3.397   6.828  0.00  0.00    +0.000 HD
ENDBRANCH  16  23
ENDBRANCH  15  19
ENDBRANCH   1  15
TORSDOF 5
ENDMDL
MODEL 2
REMARK VINA RESULT:    -8.635      1.346      1.513
REMARK INTER + INTRA:         -11.803
REMARK INTER:                 -11.032
REMARK INTRA:                  -0.771
REMARK UNBOUND:                -0.644
REMARK  Name = 
REMARK  5 active torsions:
REMARK  status: ('A' for Active; 'I' for Inactive)
REMARK    1  A    between atoms: C_2  and  C_4
REMARK    2  A    between atoms: C_7  and  O_8
REMARK    3  A    between atoms: O_8  and  C_9
REMARK    4  A    between atoms: C_9  and  C_10
REMARK    5  A    between atoms: C_14  and  C_15
REMARK                            x       y       z     vdW  Elec       q    Type
REMARK                         _______ _______ _______ _____ _____    ______ ____
ROOT
ATOM      1  C   UNL     1      43.773   5.126  10.607  0.00  0.00    +0.000 C 
ENDROOT
BRANCH   1   2
ATOM      2  C   UNL     1      44.795   5.129  11.713  0.00  0.00    +0.000 A 
ATOM      3  C   UNL     1      44.729   4.173  12.718  0.00  0.00    +0.000 A 
ATOM      4  N   UNL     1      45.623   4.073  13.722  0.00  0.00    +0.000 NA
ATOM      5  C   UNL     1      46.640   4.968  13.720  0.00  0.00    +0.000 A 
ATOM      6  C   UNL     1      46.841   5.963  12.759  0.00  0.00    +0.000 A 
ATOM      7  C   UNL     1      45.881   6.014  11.736  0.00  0.00    +0.000 A 
BRANCH   6   8
ATOM      8  C   UNL     1      47.988   6.896  12.809  0.00  0.00    +0.000 A 
ATOM      9  C   UNL     1      48.908   6.880  13.867  0.00  0.00    +0.000 A 
ATOM     10  C   UNL     1      49.970   7.774  13.864  0.00  0.00    +0.000 A 
ATOM     11  N   UNL     1      50.191   8.674  12.889  0.00  0.00    +0.000 NA
ATOM     12  C   UNL     1      49.306   8.681  11.877  0.00  0.00    +0.000 A 
ATOM     13  F   UNL     1      49.504   9.563  10.887  0.00  0.00    +0.000 F 
ATOM     14  C   UNL     1      48.211   7.836  11.794  0.00  0.00    +0.000 A 
ENDBRANCH   6   8
ENDBRANCH   1   2
BRANCH   1  15
ATOM     15  O   UNL     1      43.573   3.798  10.106  0.00  0.00    +0.000 OA
BRANCH  15  19
ATOM     16  C   UNL     1      46.513   2.628   7.469  0.00  0.00    +0.000 A 
ATOM     17  C   UNL     1      45.987   1.702   8.373  0.00  0.00    +0.000 A 
ATOM     18  C   UNL     1      44.995   2.111   9.267  0.00  0.00    +0.000 A 
ATOM     19  C   UNL     1      44.565   3.430   9.220  0.00  0.00    +0.000 A 
ATOM     20  N   UNL     1      45.066   4.348   8.366  0.00  0.00    +0.000 NA
ATOM     21  C   UNL     1      46.036   3.930   7.517  0.00  0.00    +0.000 A 
BRANCH  16  23
ATOM     22  N   UNL     1      47.609   3.064   5.348  0.00  0.00    +0.000 N 
ATOM     23  C   UNL     1      47.558   2.303   6.481  0.00  0.00    +0.000 C 
ATOM     24  O   UNL     1      48.376   1.417   6.688  0.00  0.00    +0.000 OA
ATOM     25  H   UNL     1      48.408   2.909   4.745  0.00  0.00    +0.000 HD
ATOM     26  H   UNL     1      47.129   3.949   5.264  0.00  0.00    +0.000 HD
ENDBRANCH  16  23
ENDBRANCH  15  19
ENDBRANCH   1  15
TORSDOF 5
ENDMDL
MODEL 3
REMARK VINA RESULT:    -8.589      2.777      3.864
REMARK INTER + INTRA:         -11.743
REMARK INTER:                 -11.166
REMARK INTRA:                  -0.577
REMARK UNBOUND:                -0.644
REMARK  Name = 
REMARK  5 active torsions:
REMARK  status: ('A' for Active; 'I' for Inactive)
REMARK    1  A    between atoms: C_2  and  C_4
REMARK    2  A    between atoms: C_7  and  O_8
REMARK    3  A    between atoms: O_8  and  C_9
REMARK    4  A    between atoms: C_9  and  C_10
REMARK    5  A    between atoms: C_14  and  C_15
REMARK                            x       y       z     vdW  Elec       q    Type
REMARK                         _______ _______ _______ _____ _____    ______ ____
ROOT
ATOM      1  C   UNL     1      43.868   4.325  11.383  0.00  0.00    +0.000 C 
ENDROOT
BRANCH   1   2
ATOM      2  C   UNL     1      44.999   5.131  11.963  0.00  0.00    +0.000 A 
ATOM      3  C   UNL     1      45.362   6.337  11.377  0.00  0.00    +0.000 A 
ATOM      4  N   UNL     1      46.331   7.144  11.851  0.00  0.00    +0.000 NA
ATOM      5  C   UNL     1      46.968   6.732  12.974  0.00  0.00    +0.000 A 
ATOM      6  C   UNL     1      46.687   5.558  13.679  0.00  0.00    +0.000 A 
ATOM      7  C   UNL     1      45.665   4.761  13.140  0.00  0.00    +0.000 A 
BRANCH   6   8
ATOM      8  C   UNL     1      47.410   5.180  14.913  0.00  0.00    +0.000 A 
ATOM      9  C   UNL     1      48.369   6.022  15.495  0.00  0.00    +0.000 A 
ATOM     10  C   UNL     1      49.017   5.623  16.656  0.00  0.00    +0.000 A 
ATOM     11  N   UNL     1      48.781   4.456  17.284  0.00  0.00    +0.000 NA
ATOM     12  C   UNL     1      47.859   3.656  16.721  0.00  0.00    +0.000 A 
ATOM     13  F   UNL     1      47.597   2.489  17.328  0.00  0.00    +0.000 F 
ATOM     14  C   UNL     1      47.166   3.962  15.561  0.00  0.00    +0.000 A 
ENDBRANCH   6   8
ENDBRANCH   1   2
BRANCH   1  15
ATOM     15  O   UNL     1      43.713   4.602   9.986  0.00  0.00    +0.000 OA
BRANCH  15  19
ATOM     16  C   UNL     1      46.378   2.431   7.715  0.00  0.00    +0.000 A 
ATOM     17  C   UNL     1      45.595   1.781   8.673  0.00  0.00    +0.000 A 
ATOM     18  C   UNL     1      44.699   2.527   9.441  0.00  0.00    +0.000 A 
ATOM     19  C   UNL     1      44.618   3.895   9.220  0.00  0.00    +0.000 A 
ATOM     20  N   UNL     1      45.372   4.550   8.312  0.00  0.00    +0.000 NA
ATOM     21  C   UNL     1      46.242   3.806   7.587  0.00  0.00    +0.000 A 
BRANCH  16  23
ATOM     22  N   UNL     1      48.455   2.442   6.461  0.00  0.00    +0.000 N 
ATOM     23  C   UNL     1      47.350   1.741   6.847  0.00  0.00    +0.000 C 
ATOM     24  O   UNL     1      47.195   0.570   6.524  0.00  0.00    +0.000 OA
ATOM     25  H   UNL     1      49.168   1.913   5.973  0.00  0.00    +0.000 HD
ATOM     26  H   UNL     1      48.740   3.302   6.910  0.00  0.00    +0.000 HD
ENDBRANCH  16  23
ENDBRANCH  15  19
ENDBRANCH   1  15
TORSDOF 5
ENDMDL
MODEL 4
REMARK VINA RESULT:    -8.102      2.400      2.856
REMARK INTER + INTRA:         -11.114
REMARK INTER:                 -10.459
REMARK INTRA:                  -0.654
REMARK UNBOUND:                -0.644
REMARK  Name = 
REMARK  5 active torsions:
REMARK  status: ('A' for Active; 'I' for Inactive)
REMARK    1  A    between atoms: C_2  and  C_4
REMARK    2  A    between atoms: C_7  and  O_8
REMARK    3  A    between atoms: O_8  and  C_9
REMARK    4  A    between atoms: C_9  and  C_10
REMARK    5  A    between atoms: C_14  and  C_15
REMARK                            x       y       z     vdW  Elec       q    Type
REMARK                         _______ _______ _______ _____ _____    ______ ____
ROOT
ATOM      1  C   UNL     1      44.062   3.374  11.509  0.00  0.00    +0.000 C 
ENDROOT
BRANCH   1   2
ATOM      2  C   UNL     1      44.604   4.755  11.771  0.00  0.00    +0.000 A 
ATOM      3  C   UNL     1      43.865   5.870  11.397  0.00  0.00    +0.000 A 
ATOM      4  N   UNL     1      44.250   7.140  11.630  0.00  0.00    +0.000 NA
ATOM      5  C   UNL     1      45.430   7.309  12.273  0.00  0.00    +0.000 A 
ATOM      6  C   UNL     1      46.259   6.278  12.727  0.00  0.00    +0.000 A 
ATOM      7  C   UNL     1      45.802   4.977  12.461  0.00  0.00    +0.000 A 
BRANCH   6   8
ATOM      8  C   UNL     1      47.526   6.536  13.444  0.00  0.00    +0.000 A 
ATOM      9  C   UNL     1      48.571   7.267  12.859  0.00  0.00    +0.000 A 
ATOM     10  C   UNL     1      49.739   7.485  13.576  0.00  0.00    +0.000 A 
ATOM     11  N   UNL     1      49.946   7.039  14.829  0.00  0.00    +0.000 NA
ATOM     12  C   UNL     1      48.939   6.341  15.382  0.00  0.00    +0.000 A 
ATOM     13  F   UNL     1      49.114   5.888  16.633  0.00  0.00    +0.000 F 
ATOM     14  C   UNL     1      47.741   6.064  14.746  0.00  0.00    +0.000 A 
ENDBRANCH   6   8
ENDBRANCH   1   2
BRANCH   1  15
ATOM     15  O   UNL     1      43.551   3.275  10.174  0.00  0.00    +0.000 OA
BRANCH  15  19
ATOM     16  C   UNL     1      46.546   2.528   7.446  0.00  0.00    +0.000 A 
ATOM     17  C   UNL     1      45.966   3.798   7.506  0.00  0.00    +0.000 A 
ATOM     18  C   UNL     1      44.947   4.039   8.431  0.00  0.00    +0.000 A 
ATOM     19  C   UNL     1      44.550   3.001   9.262  0.00  0.00    +0.000 A 
ATOM     20  N   UNL     1      45.084   1.762   9.216  0.00  0.00    +0.000 NA
ATOM     21  C   UNL     1      46.063   1.550   8.303  0.00  0.00    +0.000 A 
BRANCH  16  23
ATOM     22  N   UNL     1      47.820   2.975   5.430  0.00  0.00    +0.000 N 
ATOM     23  C   UNL     1      47.630   2.167   6.514  0.00  0.00    +0.000 C 
ATOM     24  O   UNL     1      48.360   1.208   6.728  0.00  0.00    +0.000 OA
ATOM     25  H   UNL     1      48.646   2.784   4.874  0.00  0.00    +0.000 HD
ATOM     26  H   UNL     1      47.417   3.899   5.361  0.00  0.00    +0.000 HD
ENDBRANCH  16  23
ENDBRANCH  15  19
ENDBRANCH   1  15
TORSDOF 5
ENDMDL
MODEL 5
REMARK VINA RESULT:    -7.910      3.645      7.129
REMARK INTER + INTRA:         -10.866
REMARK INTER:                 -10.090
REMARK INTRA:                  -0.776
REMARK UNBOUND:                -0.644
REMARK  Name = 
REMARK  5 active torsions:
REMARK  status: ('A' for Active; 'I' for Inactive)
REMARK    1  A    between atoms: C_2  and  C_4
REMARK    2  A    between atoms: C_7  and  O_8
REMARK    3  A    between atoms: O_8  and  C_9
REMARK    4  A    between atoms: C_9  and  C_10
REMARK    5  A    between atoms: C_14  and  C_15
REMARK                            x       y       z     vdW  Elec       q    Type
REMARK                         _______ _______ _______ _____ _____    ______ ____
ROOT
ATOM      1  C   UNL     1      44.306   6.570  11.354  0.00  0.00    +0.000 C 
ENDROOT
BRANCH   1   2
ATOM      2  C   UNL     1      44.255   5.116  10.964  0.00  0.00    +0.000 A 
ATOM      3  C   UNL     1      43.333   4.270  11.567  0.00  0.00    +0.000 A 
ATOM      4  N   UNL     1      43.187   2.968  11.251  0.00  0.00    +0.000 NA
ATOM      5  C   UNL     1      43.998   2.485  10.279  0.00  0.00    +0.000 A 
ATOM      6  C   UNL     1      44.949   3.229   9.574  0.00  0.00    +0.000 A 
ATOM      7  C   UNL     1      45.051   4.579   9.943  0.00  0.00    +0.000 A 
BRANCH   6   8
ATOM      8  C   UNL     1      45.787   2.639   8.508  0.00  0.00    +0.000 A 
ATOM      9  C   UNL     1      46.430   3.434   7.548  0.00  0.00    +0.000 A 
ATOM     10  C   UNL     1      47.210   2.831   6.570  0.00  0.00    +0.000 A 
ATOM     11  N   UNL     1      47.405   1.503   6.478  0.00  0.00    +0.000 NA
ATOM     12  C   UNL     1      46.787   0.748   7.404  0.00  0.00    +0.000 A 
ATOM     13  F   UNL     1      46.967  -0.579   7.342  0.00  0.00    +0.000 F 
ATOM     14  C   UNL     1      45.983   1.254   8.412  0.00  0.00    +0.000 A 
ENDBRANCH   6   8
ENDBRANCH   1   2
BRANCH   1  15
ATOM     15  O   UNL     1      44.847   6.722  12.672  0.00  0.00    +0.000 OA
BRANCH  15  19
ATOM     16  C   UNL     1      48.824   7.787  12.571  0.00  0.00    +0.000 A 
ATOM     17  C   UNL     1      47.863   8.654  12.046  0.00  0.00    +0.000 A 
ATOM     18  C   UNL     1      46.518   8.281  12.080  0.00  0.00    +0.000 A 
ATOM     19  C   UNL     1      46.186   7.055  12.641  0.00  0.00    +0.000 A 
ATOM     20  N   UNL     1      47.095   6.194  13.143  0.00  0.00    +0.000 NA
ATOM     21  C   UNL     1      48.395   6.574  13.088  0.00  0.00    +0.000 A 
BRANCH  16  23
ATOM     22  N   UNL     1      50.971   7.704  13.700  0.00  0.00    +0.000 N 
ATOM     23  C   UNL     1      50.269   8.084  12.592  0.00  0.00    +0.000 C 
ATOM     24  O   UNL     1      50.824   8.607  11.635  0.00  0.00    +0.000 OA
ATOM     25  H   UNL     1      51.979   7.801  13.640  0.00  0.00    +0.000 HD
ATOM     26  H   UNL     1      50.607   7.052  14.380  0.00  0.00    +0.000 HD
ENDBRANCH  16  23
ENDBRANCH  15  19
ENDBRANCH   1  15
TORSDOF 5
ENDMDL
MODEL 6
REMARK VINA RESULT:    -7.658      3.730      7.467
REMARK INTER + INTRA:         -10.540
REMARK INTER:                 -10.207
REMARK INTRA:                  -0.333
REMARK UNBOUND:                -0.644
REMARK  Name = 
REMARK  5 active torsions:
REMARK  status: ('A' for Active; 'I' for Inactive)
REMARK    1  A    between atoms: C_2  and  C_4
REMARK    2  A    between atoms: C_7  and  O_8
REMARK    3  A    between atoms: O_8  and  C_9
REMARK    4  A    between atoms: C_9  and  C_10
REMARK    5  A    between atoms: C_14  and  C_15
REMARK                            x       y       z     vdW  Elec       q    Type
REMARK                         _______ _______ _______ _____ _____    ______ ____
ROOT
ATOM      1  C   UNL     1      46.119   6.871  11.694  0.00  0.00    +0.000 C 
ENDROOT
BRANCH   1   2
ATOM      2  C   UNL     1      45.376   5.830  10.900  0.00  0.00    +0.000 A 
ATOM      3  C   UNL     1      43.997   5.721  11.021  0.00  0.00    +0.000 A 
ATOM      4  N   UNL     1      43.245   4.850  10.319  0.00  0.00    +0.000 NA
ATOM      5  C   UNL     1      43.902   4.050   9.444  0.00  0.00    +0.000 A 
ATOM      6  C   UNL     1      45.279   4.073   9.204  0.00  0.00    +0.000 A 
ATOM      7  C   UNL     1      46.007   5.004   9.960  0.00  0.00    +0.000 A 
BRANCH   6   8
ATOM      8  C   UNL     1      45.927   3.183   8.216  0.00  0.00    +0.000 A 
ATOM      9  C   UNL     1      46.459   3.674   7.015  0.00  0.00    +0.000 A 
ATOM     10  C   UNL     1      47.062   2.797   6.124  0.00  0.00    +0.000 A 
ATOM     11  N   UNL     1      47.180   1.473   6.336  0.00  0.00    +0.000 NA
ATOM     12  C   UNL     1      46.669   1.011   7.491  0.00  0.00    +0.000 A 
ATOM     13  F   UNL     1      46.778  -0.303   7.734  0.00  0.00    +0.000 F 
ATOM     14  C   UNL     1      46.043   1.804   8.438  0.00  0.00    +0.000 A 
ENDBRANCH   6   8
ENDBRANCH   1   2
BRANCH   1  15
ATOM     15  O   UNL     1      47.420   6.395  12.060  0.00  0.00    +0.000 OA
BRANCH  15  19
ATOM     16  C   UNL     1      47.375   4.480  15.707  0.00  0.00    +0.000 A 
ATOM     17  C   UNL     1      46.680   3.928  14.627  0.00  0.00    +0.000 A 
ATOM     18  C   UNL     1      46.698   4.588  13.397  0.00  0.00    +0.000 A 
ATOM     19  C   UNL     1      47.412   5.774  13.293  0.00  0.00    +0.000 A 
ATOM     20  N   UNL     1      48.079   6.336  14.322  0.00  0.00    +0.000 NA
ATOM     21  C   UNL     1      48.038   5.682  15.509  0.00  0.00    +0.000 A 
BRANCH  16  23
ATOM     22  N   UNL     1      48.395   4.306  17.902  0.00  0.00    +0.000 N 
ATOM     23  C   UNL     1      47.428   3.864  17.046  0.00  0.00    +0.000 C 
ATOM     24  O   UNL     1      46.608   3.024  17.392  0.00  0.00    +0.000 OA
ATOM     25  H   UNL     1      48.335   3.965  18.854  0.00  0.00    +0.000 HD
ATOM     26  H   UNL     1      48.911   5.162  17.747  0.00  0.00    +0.000 HD
ENDBRANCH  16  23
ENDBRANCH  15  19
ENDBRANCH   1  15
TORSDOF 5
ENDMDL
MODEL 7
REMARK VINA RESULT:    -7.451      4.387      8.168
REMARK INTER + INTRA:         -10.273
REMARK INTER:                  -9.758
REMARK INTRA:                  -0.515
REMARK UNBOUND:                -0.644
REMARK  Name = 
REMARK  5 active torsions:
REMARK  status: ('A' for Active; 'I' for Inactive)
REMARK    1  A    between atoms: C_2  and  C_4
REMARK    2  A    between atoms: C_7  and  O_8
REMARK    3  A    between atoms: O_8  and  C_9
REMARK    4  A    between atoms: C_9  and  C_10
REMARK    5  A    between atoms: C_14  and  C_15
REMARK                            x       y       z     vdW  Elec       q    Type
REMARK                         _______ _______ _______ _____ _____    ______ ____
ROOT
ATOM      1  C   UNL     1      45.270   4.483  13.621  0.00  0.00    +0.000 C 
ENDROOT
BRANCH   1   2
ATOM      2  C   UNL     1      44.767   4.449  12.202  0.00  0.00    +0.000 A 
ATOM      3  C   UNL     1      43.628   5.164  11.854  0.00  0.00    +0.000 A 
ATOM      4  N   UNL     1      43.131   5.226  10.603  0.00  0.00    +0.000 NA
ATOM      5  C   UNL     1      43.807   4.546   9.647  0.00  0.00    +0.000 A 
ATOM      6  C   UNL     1      44.978   3.810   9.852  0.00  0.00    +0.000 A 
ATOM      7  C   UNL     1      45.451   3.787  11.174  0.00  0.00    +0.000 A 
BRANCH   6   8
ATOM      8  C   UNL     1      45.677   3.107   8.755  0.00  0.00    +0.000 A 
ATOM      9  C   UNL     1      46.238   3.801   7.672  0.00  0.00    +0.000 A 
ATOM     10  C   UNL     1      46.888   3.094   6.669  0.00  0.00    +0.000 A 
ATOM     11  N   UNL     1      47.029   1.756   6.664  0.00  0.00    +0.000 NA
ATOM     12  C   UNL     1      46.491   1.099   7.706  0.00  0.00    +0.000 A 
ATOM     13  F   UNL     1      46.621  -0.235   7.732  0.00  0.00    +0.000 F 
ATOM     14  C   UNL     1      45.817   1.713   8.749  0.00  0.00    +0.000 A 
ENDBRANCH   6   8
ENDBRANCH   1   2
BRANCH   1  15
ATOM     15  O   UNL     1      46.658   4.834  13.657  0.00  0.00    +0.000 OA
BRANCH  15  19
ATOM     16  C   UNL     1      48.223   4.654  17.463  0.00  0.00    +0.000 A 
ATOM     17  C   UNL     1      48.654   5.651  16.585  0.00  0.00    +0.000 A 
ATOM     18  C   UNL     1      48.121   5.700  15.295  0.00  0.00    +0.000 A 
ATOM     19  C   UNL     1      47.175   4.750  14.934  0.00  0.00    +0.000 A 
ATOM     20  N   UNL     1      46.752   3.769  15.757  0.00  0.00    +0.000 NA
ATOM     21  C   UNL     1      47.292   3.736  17.000  0.00  0.00    +0.000 A 
BRANCH  16  23
ATOM     22  N   UNL     1      48.509   3.315  19.467  0.00  0.00    +0.000 N 
ATOM     23  C   UNL     1      48.714   4.514  18.846  0.00  0.00    +0.000 C 
ATOM     24  O   UNL     1      49.322   5.420  19.400  0.00  0.00    +0.000 OA
ATOM     25  H   UNL     1      48.964   3.197  20.365  0.00  0.00    +0.000 HD
ATOM     26  H   UNL     1      48.251   2.478  18.964  0.00  0.00    +0.000 HD
ENDBRANCH  16  23
ENDBRANCH  15  19
ENDBRANCH   1  15
TORSDOF 5
ENDMDL
MODEL 8
REMARK VINA RESULT:    -7.371      2.043      2.653
REMARK INTER + INTRA:         -10.170
REMARK INTER:                  -9.468
REMARK INTRA:                  -0.702
REMARK UNBOUND:                -0.644
REMARK  Name = 
REMARK  5 active torsions:
REMARK  status: ('A' for Active; 'I' for Inactive)
REMARK    1  A    between atoms: C_2  and  C_4
REMARK    2  A    between atoms: C_7  and  O_8
REMARK    3  A    between atoms: O_8  and  C_9
REMARK    4  A    between atoms: C_9  and  C_10
REMARK    5  A    between atoms: C_14  and  C_15
REMARK                            x       y       z     vdW  Elec       q    Type
REMARK                         _______ _______ _______ _____ _____    ______ ____
ROOT
ATOM      1  C   UNL     1      45.173   4.279  11.803  0.00  0.00    +0.000 C 
ENDROOT
BRANCH   1   2
ATOM      2  C   UNL     1      45.457   5.758  11.851  0.00  0.00    +0.000 A 
ATOM      3  C   UNL     1      44.409   6.659  11.988  0.00  0.00    +0.000 A 
ATOM      4  N   UNL     1      44.571   7.993  12.083  0.00  0.00    +0.000 NA
ATOM      5  C   UNL     1      45.845   8.454  12.046  0.00  0.00    +0.000 A 
ATOM      6  C   UNL     1      46.990   7.659  11.939  0.00  0.00    +0.000 A 
ATOM      7  C   UNL     1      46.758   6.277  11.850  0.00  0.00    +0.000 A 
BRANCH   6   8
ATOM      8  C   UNL     1      48.355   8.229  11.927  0.00  0.00    +0.000 A 
ATOM      9  C   UNL     1      48.626   9.508  12.435  0.00  0.00    +0.000 A 
ATOM     10  C   UNL     1      49.925   9.996  12.404  0.00  0.00    +0.000 A 
ATOM     11  N   UNL     1      50.974   9.309  11.914  0.00  0.00    +0.000 NA
ATOM     12  C   UNL     1      50.705   8.084  11.431  0.00  0.00    +0.000 A 
ATOM     13  F   UNL     1      51.732   7.372  10.942  0.00  0.00    +0.000 F 
ATOM     14  C   UNL     1      49.443   7.514  11.410  0.00  0.00    +0.000 A 
ENDBRANCH   6   8
ENDBRANCH   1   2
BRANCH   1  15
ATOM     15  O   UNL     1      44.326   3.963  10.692  0.00  0.00    +0.000 OA
BRANCH  15  19
ATOM     16  C   UNL     1      46.520   2.740   7.428  0.00  0.00    +0.000 A 
ATOM     17  C   UNL     1      46.270   4.100   7.622  0.00  0.00    +0.000 A 
ATOM     18  C   UNL     1      45.520   4.504   8.729  0.00  0.00    +0.000 A 
ATOM     19  C   UNL     1      45.051   3.530   9.601  0.00  0.00    +0.000 A 
ATOM     20  N   UNL     1      45.267   2.209   9.429  0.00  0.00    +0.000 NA
ATOM     21  C   UNL     1      45.988   1.842   8.342  0.00  0.00    +0.000 A 
BRANCH  16  23
ATOM     22  N   UNL     1      47.429   2.995   5.192  0.00  0.00    +0.000 N 
ATOM     23  C   UNL     1      47.303   2.205   6.299  0.00  0.00    +0.000 C 
ATOM     24  O   UNL     1      47.857   1.116   6.368  0.00  0.00    +0.000 OA
ATOM     25  H   UNL     1      48.073   2.666   4.483  0.00  0.00    +0.000 HD
ATOM     26  H   UNL     1      47.212   3.982   5.200  0.00  0.00    +0.000 HD
ENDBRANCH  16  23
ENDBRANCH  15  19
ENDBRANCH   1  15
TORSDOF 5
ENDMDL
MODEL 9
REMARK VINA RESULT:    -7.215      3.839      7.690
REMARK INTER + INTRA:          -9.967
REMARK INTER:                  -9.320
REMARK INTRA:                  -0.648
REMARK UNBOUND:                -0.644
REMARK  Name = 
REMARK  5 active torsions:
REMARK  status: ('A' for Active; 'I' for Inactive)
REMARK    1  A    between atoms: C_2  and  C_4
REMARK    2  A    between atoms: C_7  and  O_8
REMARK    3  A    between atoms: O_8  and  C_9
REMARK    4  A    between atoms: C_9  and  C_10
REMARK    5  A    between atoms: C_14  and  C_15
REMARK                            x       y       z     vdW  Elec       q    Type
REMARK                         _______ _______ _______ _____ _____    ______ ____
ROOT
ATOM      1  C   UNL     1      44.807   6.691  11.512  0.00  0.00    +0.000 C 
ENDROOT
BRANCH   1   2
ATOM      2  C   UNL     1      44.559   5.281  11.045  0.00  0.00    +0.000 A 
ATOM      3  C   UNL     1      43.510   4.548  11.585  0.00  0.00    +0.000 A 
ATOM      4  N   UNL     1      43.188   3.298  11.198  0.00  0.00    +0.000 NA
ATOM      5  C   UNL     1      43.946   2.752  10.216  0.00  0.00    +0.000 A 
ATOM      6  C   UNL     1      45.011   3.386   9.569  0.00  0.00    +0.000 A 
ATOM      7  C   UNL     1      45.295   4.687  10.011  0.00  0.00    +0.000 A 
BRANCH   6   8
ATOM      8  C   UNL     1      45.783   2.735   8.488  0.00  0.00    +0.000 A 
ATOM      9  C   UNL     1      46.369   3.475   7.451  0.00  0.00    +0.000 A 
ATOM     10  C   UNL     1      47.088   2.816   6.462  0.00  0.00    +0.000 A 
ATOM     11  N   UNL     1      47.274   1.484   6.430  0.00  0.00    +0.000 NA
ATOM     12  C   UNL     1      46.710   0.783   7.429  0.00  0.00    +0.000 A 
ATOM     13  F   UNL     1      46.884  -0.547   7.428  0.00  0.00    +0.000 F 
ATOM     14  C   UNL     1      45.969   1.347   8.454  0.00  0.00    +0.000 A 
ENDBRANCH   6   8
ENDBRANCH   1   2
BRANCH   1  15
ATOM     15  O   UNL     1      46.146   7.098  11.203  0.00  0.00    +0.000 OA
BRANCH  15  19
ATOM     16  C   UNL     1      48.321   7.827  14.624  0.00  0.00    +0.000 A 
ATOM     17  C   UNL     1      47.515   8.835  14.089  0.00  0.00    +0.000 A 
ATOM     18  C   UNL     1      46.786   8.579  12.926  0.00  0.00    +0.000 A 
ATOM     19  C   UNL     1      46.890   7.323  12.343  0.00  0.00    +0.000 A 
ATOM     20  N   UNL     1      47.671   6.337  12.831  0.00  0.00    +0.000 NA
ATOM     21  C   UNL     1      48.377   6.613  13.954  0.00  0.00    +0.000 A 
BRANCH  16  23
ATOM     22  N   UNL     1      50.474   8.144  15.697  0.00  0.00    +0.000 N 
ATOM     23  C   UNL     1      49.127   7.987  15.849  0.00  0.00    +0.000 C 
ATOM     24  O   UNL     1      48.603   8.024  16.954  0.00  0.00    +0.000 OA
ATOM     25  H   UNL     1      50.991   8.379  16.537  0.00  0.00    +0.000 HD
ATOM     26  H   UNL     1      50.900   8.376  14.811  0.00  0.00    +0.000 HD
ENDBRANCH  16  23
ENDBRANCH  15  19
ENDBRANCH   1  15
TORSDOF 5
ENDMDL
