MODEL 1
REMARK VINA RESULT:    -7.019      0.000      0.000
REMARK INTER + INTRA:         -12.721
REMARK INTER:                 -11.533
REMARK INTRA:                  -1.188
REMARK UNBOUND:                -1.188
REMARK  Name = 
REMARK  15 active torsions:
REMARK  status: ('A' for Active; 'I' for Inactive)
REMARK    1  A    between atoms: C_1  and  C_2
REMARK    2  A    between atoms: C_2  and  N_3
REMARK    3  A    between atoms: N_3  and  C_4
REMARK    4  A    between atoms: N_3  and  C_6
REMARK    5  A    between atoms: C_4  and  C_5
REMARK    6  A    between atoms: C_6  and  C_7
REMARK    7  A    between atoms: C_7  and  C_8
REMARK    8  A    between atoms: C_8  and  C_9
REMARK    9  A    between atoms: C_9  and  C_10
REMARK   10  A    between atoms: C_9  and  C_11
REMARK   11  A    between atoms: C_9  and  C_22
REMARK   12  A    between atoms: C_11  and  N_12
REMARK   13  A    between atoms: C_16  and  C_17
REMARK   14  A    between atoms: C_26  and  O_27
REMARK   15  A    between atoms: O_27  and  C_28
REMARK                            x       y       z     vdW  Elec       q    Type
REMARK                         _______ _______ _______ _____ _____    ______ ____
ROOT
ATOM      1  C   UNL     1      44.161   5.910  12.015  0.00  0.00    +0.000 C 
ATOM      2  C   UNL     1      42.964   6.005  12.984  0.00  0.00    +0.000 C 
ENDROOT
BRANCH   1   3
ATOM      3  C   UNL     1      45.464   5.810  12.863  0.00  0.00    +0.000 A 
ATOM      4  C   UNL     1      46.469   6.780  12.788  0.00  0.00    +0.000 A 
ATOM      5  C   UNL     1      47.621   6.640  13.564  0.00  0.00    +0.000 A 
ATOM      6  C   UNL     1      47.748   5.544  14.410  0.00  0.00    +0.000 A 
ATOM      7  C   UNL     1      46.716   4.630  14.433  0.00  0.00    +0.000 A 
ATOM      8  N   UNL     1      45.598   4.739  13.682  0.00  0.00    +0.000 NA
BRANCH   7   9
ATOM      9  O   UNL     1      46.867   3.555  15.287  0.00  0.00    +0.000 OA
ATOM     10  C   UNL     1      47.180   3.951  16.619  0.00  0.00    +0.000 C 
ENDBRANCH   7   9
ENDBRANCH   1   3
BRANCH   1  11
ATOM     11  C   UNL     1      44.287   7.196  11.120  0.00  0.00    +0.000 C 
BRANCH  11  12
ATOM     12  C   UNL     1      43.164   8.239  11.223  0.00  0.00    +0.000 C 
BRANCH  12  13
ATOM     13  C   UNL     1      43.553   9.665  10.812  0.00  0.00    +0.000 C 
BRANCH  13  14
ATOM     14  N   UNL     1      42.524  10.427  10.079  0.00  0.00    +0.000 NA
BRANCH  14  16
ATOM     15  C   UNL     1      40.131  10.344  10.887  0.00  0.00    +0.000 C 
ATOM     16  C   UNL     1      41.500  11.020  10.959  0.00  0.00    +0.000 C 
ENDBRANCH  14  16
BRANCH  14  17
ATOM     17  C   UNL     1      43.149  11.393   9.157  0.00  0.00    +0.000 C 
ATOM     18  C   UNL     1      43.647  10.835   7.826  0.00  0.00    +0.000 C 
ENDBRANCH  14  17
ENDBRANCH  13  14
ENDBRANCH  12  13
ENDBRANCH  11  12
ENDBRANCH   1  11
BRANCH   1  19
ATOM     19  C   UNL     1      44.030   4.586  11.169  0.00  0.00    +0.000 C 
BRANCH  19  20
ATOM     20  N   UNL     1      43.981   4.790   9.717  0.00  0.00    +0.000 N 
ATOM     21  C   UNL     1      44.788   3.906   9.008  0.00  0.00    +0.000 A 
ATOM     22  N   UNL     1      44.833   2.606   9.309  0.00  0.00    +0.000 NA
ATOM     23  C   UNL     1      45.697   1.852   8.596  0.00  0.00    +0.000 A 
ATOM     24  C   UNL     1      46.502   2.347   7.594  0.00  0.00    +0.000 A 
ATOM     25  C   UNL     1      46.379   3.694   7.361  0.00  0.00    +0.000 A 
ATOM     26  N   UNL     1      45.530   4.488   8.048  0.00  0.00    +0.000 NA
ATOM     27  H   UNL     1      44.403   5.651   9.409  0.00  0.00    +0.000 HD
BRANCH  24  28
ATOM     28  C   UNL     1      47.451   1.463   6.906  0.00  0.00    +0.000 C 
ATOM     29  N   UNL     1      48.553   2.020   6.335  0.00  0.00    +0.000 N 
ATOM     30  O   UNL     1      47.243   0.259   6.834  0.00  0.00    +0.000 OA
ATOM     31  H   UNL     1      48.660   3.011   6.156  0.00  0.00    +0.000 HD
ATOM     32  H   UNL     1      49.136   1.392   5.789  0.00  0.00    +0.000 HD
ENDBRANCH  24  28
ENDBRANCH  19  20
ENDBRANCH   1  19
TORSDOF 11
ENDMDL
MODEL 2
REMARK VINA RESULT:    -6.718      3.167      7.648
REMARK INTER + INTRA:         -12.226
REMARK INTER:                 -11.122
REMARK INTRA:                  -1.105
REMARK UNBOUND:                -1.188
REMARK  Name = 
REMARK  15 active torsions:
REMARK  status: ('A' for Active; 'I' for Inactive)
REMARK    1  A    between atoms: C_1  and  C_2
REMARK    2  A    between atoms: C_2  and  N_3
REMARK    3  A    between atoms: N_3  and  C_4
REMARK    4  A    between atoms: N_3  and  C_6
REMARK    5  A    between atoms: C_4  and  C_5
REMARK    6  A    between atoms: C_6  and  C_7
REMARK    7  A    between atoms: C_7  and  C_8
REMARK    8  A    between atoms: C_8  and  C_9
REMARK    9  A    between atoms: C_9  and  C_10
REMARK   10  A    between atoms: C_9  and  C_11
REMARK   11  A    between atoms: C_9  and  C_22
REMARK   12  A    between atoms: C_11  and  N_12
REMARK   13  A    between atoms: C_16  and  C_17
REMARK   14  A    between atoms: C_26  and  O_27
REMARK   15  A    between atoms: O_27  and  C_28
REMARK                            x       y       z     vdW  Elec       q    Type
REMARK                         _______ _______ _______ _____ _____    ______ ____
ROOT
ATOM      1  C   UNL     1      44.663   5.384  12.021  0.00  0.00    +0.000 C 
ATOM      2  C   UNL     1      43.138   5.147  11.987  0.00  0.00    +0.000 C 
ENDROOT
BRANCH   1   3
ATOM      3  C   UNL     1      44.914   6.920  12.046  0.00  0.00    +0.000 A 
ATOM      4  C   UNL     1      44.180   7.801  11.245  0.00  0.00    +0.000 A 
ATOM      5  C   UNL     1      44.449   9.170  11.300  0.00  0.00    +0.000 A 
ATOM      6  C   UNL     1      45.436   9.640  12.159  0.00  0.00    +0.000 A 
ATOM      7  C   UNL     1      46.117   8.714  12.919  0.00  0.00    +0.000 A 
ATOM      8  N   UNL     1      45.883   7.384  12.874  0.00  0.00    +0.000 NA
BRANCH   7   9
ATOM      9  O   UNL     1      47.088   9.210  13.767  0.00  0.00    +0.000 OA
ATOM     10  C   UNL     1      48.216   9.728  13.067  0.00  0.00    +0.000 C 
ENDBRANCH   7   9
ENDBRANCH   1   3
BRANCH   1  11
ATOM     11  C   UNL     1      45.368   4.818  10.735  0.00  0.00    +0.000 C 
BRANCH  11  12
ATOM     12  C   UNL     1      44.576   3.819   9.880  0.00  0.00    +0.000 C 
BRANCH  12  13
ATOM     13  C   UNL     1      44.710   4.003   8.362  0.00  0.00    +0.000 C 
BRANCH  13  14
ATOM     14  N   UNL     1      45.549   3.008   7.665  0.00  0.00    +0.000 NA
BRANCH  14  16
ATOM     15  C   UNL     1      47.014   3.082   5.608  0.00  0.00    +0.000 C 
ATOM     16  C   UNL     1      46.737   3.597   7.019  0.00  0.00    +0.000 C 
ENDBRANCH  14  16
BRANCH  14  17
ATOM     17  C   UNL     1      45.855   1.872   8.553  0.00  0.00    +0.000 C 
ATOM     18  C   UNL     1      46.468   0.639   7.892  0.00  0.00    +0.000 C 
ENDBRANCH  14  17
ENDBRANCH  13  14
ENDBRANCH  12  13
ENDBRANCH  11  12
ENDBRANCH   1  11
BRANCH   1  19
ATOM     19  C   UNL     1      45.245   4.775  13.355  0.00  0.00    +0.000 C 
BRANCH  19  20
ATOM     20  N   UNL     1      46.708   4.785  13.445  0.00  0.00    +0.000 N 
ATOM     21  C   UNL     1      47.182   4.733  14.752  0.00  0.00    +0.000 A 
ATOM     22  N   UNL     1      46.651   3.904  15.655  0.00  0.00    +0.000 NA
ATOM     23  C   UNL     1      47.146   3.982  16.909  0.00  0.00    +0.000 A 
ATOM     24  C   UNL     1      48.152   4.844  17.285  0.00  0.00    +0.000 A 
ATOM     25  C   UNL     1      48.631   5.652  16.284  0.00  0.00    +0.000 A 
ATOM     26  N   UNL     1      48.167   5.611  15.016  0.00  0.00    +0.000 NA
ATOM     27  H   UNL     1      47.131   5.658  13.173  0.00  0.00    +0.000 HD
BRANCH  24  28
ATOM     28  C   UNL     1      48.592   4.897  18.685  0.00  0.00    +0.000 C 
ATOM     29  N   UNL     1      47.650   5.078  19.650  0.00  0.00    +0.000 N 
ATOM     30  O   UNL     1      49.778   4.801  18.971  0.00  0.00    +0.000 OA
ATOM     31  H   UNL     1      46.706   5.396  19.469  0.00  0.00    +0.000 HD
ATOM     32  H   UNL     1      48.001   5.204  20.595  0.00  0.00    +0.000 HD
ENDBRANCH  24  28
ENDBRANCH  19  20
ENDBRANCH   1  19
TORSDOF 11
ENDMDL
MODEL 3
REMARK VINA RESULT:    -6.570      2.851      7.804
REMARK INTER + INTRA:         -11.983
REMARK INTER:                 -11.015
REMARK INTRA:                  -0.969
REMARK UNBOUND:                -1.188
REMARK  Name = 
REMARK  15 active torsions:
REMARK  status: ('A' for Active; 'I' for Inactive)
REMARK    1  A    between atoms: C_1  and  C_2
REMARK    2  A    between atoms: C_2  and  N_3
REMARK    3  A    between atoms: N_3  and  C_4
REMARK    4  A    between atoms: N_3  and  C_6
REMARK    5  A    between atoms: C_4  and  C_5
REMARK    6  A    between atoms: C_6  and  C_7
REMARK    7  A    between atoms: C_7  and  C_8
REMARK    8  A    between atoms: C_8  and  C_9
REMARK    9  A    between atoms: C_9  and  C_10
REMARK   10  A    between atoms: C_9  and  C_11
REMARK   11  A    between atoms: C_9  and  C_22
REMARK   12  A    between atoms: C_11  and  N_12
REMARK   13  A    between atoms: C_16  and  C_17
REMARK   14  A    between atoms: C_26  and  O_27
REMARK   15  A    between atoms: O_27  and  C_28
REMARK                            x       y       z     vdW  Elec       q    Type
REMARK                         _______ _______ _______ _____ _____    ______ ____
ROOT
ATOM      1  C   UNL     1      45.528   5.554  12.142  0.00  0.00    +0.000 C 
ATOM      2  C   UNL     1      44.218   5.016  12.757  0.00  0.00    +0.000 C 
ENDROOT
BRANCH   1   3
ATOM      3  C   UNL     1      45.456   7.110  12.136  0.00  0.00    +0.000 A 
ATOM      4  C   UNL     1      46.283   7.890  12.951  0.00  0.00    +0.000 A 
ATOM      5  C   UNL     1      46.174   9.281  12.913  0.00  0.00    +0.000 A 
ATOM      6  C   UNL     1      45.253   9.872  12.056  0.00  0.00    +0.000 A 
ATOM      7  C   UNL     1      44.473   9.041  11.281  0.00  0.00    +0.000 A 
ATOM      8  N   UNL     1      44.553   7.692  11.311  0.00  0.00    +0.000 NA
BRANCH   7   9
ATOM      9  O   UNL     1      43.572   9.656  10.436  0.00  0.00    +0.000 OA
ATOM     10  C   UNL     1      42.617  10.449  11.135  0.00  0.00    +0.000 C 
ENDBRANCH   7   9
ENDBRANCH   1   3
BRANCH   1  11
ATOM     11  C   UNL     1      45.703   5.091  10.651  0.00  0.00    +0.000 C 
BRANCH  11  12
ATOM     12  C   UNL     1      44.716   4.041  10.119  0.00  0.00    +0.000 C 
BRANCH  12  13
ATOM     13  C   UNL     1      44.520   4.036   8.597  0.00  0.00    +0.000 C 
BRANCH  13  14
ATOM     14  N   UNL     1      45.355   3.080   7.844  0.00  0.00    +0.000 NA
BRANCH  14  16
ATOM     15  C   UNL     1      46.788   3.330   5.778  0.00  0.00    +0.000 C 
ATOM     16  C   UNL     1      46.550   3.700   7.240  0.00  0.00    +0.000 C 
ENDBRANCH  14  16
BRANCH  14  17
ATOM     17  C   UNL     1      45.649   1.889   8.661  0.00  0.00    +0.000 C 
ATOM     18  C   UNL     1      46.416   0.764   7.969  0.00  0.00    +0.000 C 
ENDBRANCH  14  17
ENDBRANCH  13  14
ENDBRANCH  12  13
ENDBRANCH  11  12
ENDBRANCH   1  11
BRANCH   1  19
ATOM     19  C   UNL     1      46.737   5.127  13.061  0.00  0.00    +0.000 C 
BRANCH  19  20
ATOM     20  N   UNL     1      46.426   4.074  14.033  0.00  0.00    +0.000 N 
ATOM     21  C   UNL     1      47.266   4.079  15.141  0.00  0.00    +0.000 A 
ATOM     22  N   UNL     1      47.604   5.215  15.757  0.00  0.00    +0.000 NA
ATOM     23  C   UNL     1      48.474   5.108  16.783  0.00  0.00    +0.000 A 
ATOM     24  C   UNL     1      49.005   3.915  17.219  0.00  0.00    +0.000 A 
ATOM     25  C   UNL     1      48.594   2.806  16.522  0.00  0.00    +0.000 A 
ATOM     26  N   UNL     1      47.726   2.863  15.488  0.00  0.00    +0.000 NA
ATOM     27  H   UNL     1      46.624   3.142  13.705  0.00  0.00    +0.000 HD
BRANCH  24  28
ATOM     28  C   UNL     1      49.987   3.900  18.311  0.00  0.00    +0.000 C 
ATOM     29  N   UNL     1      49.539   4.087  19.581  0.00  0.00    +0.000 N 
ATOM     30  O   UNL     1      51.177   3.741  18.078  0.00  0.00    +0.000 OA
ATOM     31  H   UNL     1      48.624   4.453  19.813  0.00  0.00    +0.000 HD
ATOM     32  H   UNL     1      50.255   4.165  20.298  0.00  0.00    +0.000 HD
ENDBRANCH  24  28
ENDBRANCH  19  20
ENDBRANCH   1  19
TORSDOF 11
ENDMDL
MODEL 4
REMARK VINA RESULT:    -6.386      1.535      2.293
REMARK INTER + INTRA:         -11.680
REMARK INTER:                 -10.232
REMARK INTRA:                  -1.448
REMARK UNBOUND:                -1.188
REMARK  Name = 
REMARK  15 active torsions:
REMARK  status: ('A' for Active; 'I' for Inactive)
REMARK    1  A    between atoms: C_1  and  C_2
REMARK    2  A    between atoms: C_2  and  N_3
REMARK    3  A    between atoms: N_3  and  C_4
REMARK    4  A    between atoms: N_3  and  C_6
REMARK    5  A    between atoms: C_4  and  C_5
REMARK    6  A    between atoms: C_6  and  C_7
REMARK    7  A    between atoms: C_7  and  C_8
REMARK    8  A    between atoms: C_8  and  C_9
REMARK    9  A    between atoms: C_9  and  C_10
REMARK   10  A    between atoms: C_9  and  C_11
REMARK   11  A    between atoms: C_9  and  C_22
REMARK   12  A    between atoms: C_11  and  N_12
REMARK   13  A    between atoms: C_16  and  C_17
REMARK   14  A    between atoms: C_26  and  O_27
REMARK   15  A    between atoms: O_27  and  C_28
REMARK                            x       y       z     vdW  Elec       q    Type
REMARK                         _______ _______ _______ _____ _____    ______ ____
ROOT
ATOM      1  C   UNL     1      44.213   6.011  11.919  0.00  0.00    +0.000 C 
ATOM      2  C   UNL     1      42.983   6.126  12.844  0.00  0.00    +0.000 C 
ENDROOT
BRANCH   1   3
ATOM      3  C   UNL     1      45.473   5.811  12.811  0.00  0.00    +0.000 A 
ATOM      4  C   UNL     1      45.757   4.586  13.424  0.00  0.00    +0.000 A 
ATOM      5  C   UNL     1      46.896   4.460  14.220  0.00  0.00    +0.000 A 
ATOM      6  C   UNL     1      47.740   5.553  14.385  0.00  0.00    +0.000 A 
ATOM      7  C   UNL     1      47.398   6.728  13.750  0.00  0.00    +0.000 A 
ATOM      8  N   UNL     1      46.294   6.875  12.985  0.00  0.00    +0.000 NA
BRANCH   7   9
ATOM      9  O   UNL     1      48.257   7.794  13.927  0.00  0.00    +0.000 OA
ATOM     10  C   UNL     1      49.613   7.460  13.645  0.00  0.00    +0.000 C 
ENDBRANCH   7   9
ENDBRANCH   1   3
BRANCH   1  11
ATOM     11  C   UNL     1      44.437   7.324  11.086  0.00  0.00    +0.000 C 
BRANCH  11  12
ATOM     12  C   UNL     1      43.281   8.334  11.037  0.00  0.00    +0.000 C 
BRANCH  12  13
ATOM     13  C   UNL     1      43.648   9.772  11.429  0.00  0.00    +0.000 C 
BRANCH  13  14
ATOM     14  N   UNL     1      44.909  10.292  10.864  0.00  0.00    +0.000 NA
BRANCH  14  16
ATOM     15  C   UNL     1      43.806  10.971   8.695  0.00  0.00    +0.000 C 
ATOM     16  C   UNL     1      44.704  11.359   9.868  0.00  0.00    +0.000 C 
ENDBRANCH  14  16
BRANCH  14  17
ATOM     17  C   UNL     1      45.851  10.651  11.939  0.00  0.00    +0.000 C 
ATOM     18  C   UNL     1      47.337  10.494  11.619  0.00  0.00    +0.000 C 
ENDBRANCH  14  17
ENDBRANCH  13  14
ENDBRANCH  12  13
ENDBRANCH  11  12
ENDBRANCH   1  11
BRANCH   1  19
ATOM     19  C   UNL     1      44.052   4.731  11.011  0.00  0.00    +0.000 C 
BRANCH  19  20
ATOM     20  N   UNL     1      44.126   4.990   9.569  0.00  0.00    +0.000 N 
ATOM     21  C   UNL     1      44.916   4.073   8.884  0.00  0.00    +0.000 A 
ATOM     22  N   UNL     1      44.843   2.763   9.133  0.00  0.00    +0.000 NA
ATOM     23  C   UNL     1      45.700   1.972   8.453  0.00  0.00    +0.000 A 
ATOM     24  C   UNL     1      46.612   2.439   7.533  0.00  0.00    +0.000 A 
ATOM     25  C   UNL     1      46.606   3.799   7.347  0.00  0.00    +0.000 A 
ATOM     26  N   UNL     1      45.769   4.631   8.005  0.00  0.00    +0.000 NA
ATOM     27  H   UNL     1      44.633   5.827   9.327  0.00  0.00    +0.000 HD
BRANCH  24  28
ATOM     28  C   UNL     1      47.541   1.510   6.879  0.00  0.00    +0.000 C 
ATOM     29  N   UNL     1      48.608   2.029   6.212  0.00  0.00    +0.000 N 
ATOM     30  O   UNL     1      47.349   0.302   6.918  0.00  0.00    +0.000 OA
ATOM     31  H   UNL     1      48.691   3.001   5.944  0.00  0.00    +0.000 HD
ATOM     32  H   UNL     1      49.174   1.363   5.693  0.00  0.00    +0.000 HD
ENDBRANCH  24  28
ENDBRANCH  19  20
ENDBRANCH   1  19
TORSDOF 11
ENDMDL
MODEL 5
REMARK VINA RESULT:    -6.312      3.484      7.759
REMARK INTER + INTRA:         -11.559
REMARK INTER:                 -10.446
REMARK INTRA:                  -1.113
REMARK UNBOUND:                -1.188
REMARK  Name = 
REMARK  15 active torsions:
REMARK  status: ('A' for Active; 'I' for Inactive)
REMARK    1  A    between atoms: C_1  and  C_2
REMARK    2  A    between atoms: C_2  and  N_3
REMARK    3  A    between atoms: N_3  and  C_4
REMARK    4  A    between atoms: N_3  and  C_6
REMARK    5  A    between atoms: C_4  and  C_5
REMARK    6  A    between atoms: C_6  and  C_7
REMARK    7  A    between atoms: C_7  and  C_8
REMARK    8  A    between atoms: C_8  and  C_9
REMARK    9  A    between atoms: C_9  and  C_10
REMARK   10  A    between atoms: C_9  and  C_11
REMARK   11  A    between atoms: C_9  and  C_22
REMARK   12  A    between atoms: C_11  and  N_12
REMARK   13  A    between atoms: C_16  and  C_17
REMARK   14  A    between atoms: C_26  and  O_27
REMARK   15  A    between atoms: O_27  and  C_28
REMARK                            x       y       z     vdW  Elec       q    Type
REMARK                         _______ _______ _______ _____ _____    ______ ____
ROOT
ATOM      1  C   UNL     1      45.743   5.047  12.648  0.00  0.00    +0.000 C 
ATOM      2  C   UNL     1      44.296   4.969  13.180  0.00  0.00    +0.000 C 
ENDROOT
BRANCH   1   3
ATOM      3  C   UNL     1      46.128   6.550  12.510  0.00  0.00    +0.000 A 
ATOM      4  C   UNL     1      45.185   7.571  12.671  0.00  0.00    +0.000 A 
ATOM      5  C   UNL     1      45.580   8.902  12.530  0.00  0.00    +0.000 A 
ATOM      6  C   UNL     1      46.908   9.196  12.244  0.00  0.00    +0.000 A 
ATOM      7  C   UNL     1      47.781   8.139  12.101  0.00  0.00    +0.000 A 
ATOM      8  N   UNL     1      47.419   6.843  12.220  0.00  0.00    +0.000 NA
BRANCH   7   9
ATOM      9  O   UNL     1      49.094   8.461  11.822  0.00  0.00    +0.000 OA
ATOM     10  C   UNL     1      50.019   7.763  12.651  0.00  0.00    +0.000 C 
ENDBRANCH   7   9
ENDBRANCH   1   3
BRANCH   1  11
ATOM     11  C   UNL     1      45.873   4.402  11.221  0.00  0.00    +0.000 C 
BRANCH  11  12
ATOM     12  C   UNL     1      45.171   5.118  10.058  0.00  0.00    +0.000 C 
BRANCH  12  13
ATOM     13  C   UNL     1      45.913   5.071   8.715  0.00  0.00    +0.000 C 
BRANCH  13  14
ATOM     14  N   UNL     1      45.567   3.943   7.828  0.00  0.00    +0.000 NA
BRANCH  14  16
ATOM     15  C   UNL     1      46.755   2.999   5.808  0.00  0.00    +0.000 C 
ATOM     16  C   UNL     1      46.747   3.220   7.319  0.00  0.00    +0.000 C 
ENDBRANCH  14  16
BRANCH  14  17
ATOM     17  C   UNL     1      44.560   3.073   8.461  0.00  0.00    +0.000 C 
ATOM     18  C   UNL     1      45.024   1.670   8.850  0.00  0.00    +0.000 C 
ENDBRANCH  14  17
ENDBRANCH  13  14
ENDBRANCH  12  13
ENDBRANCH  11  12
ENDBRANCH   1  11
BRANCH   1  19
ATOM     19  C   UNL     1      46.713   4.392  13.706  0.00  0.00    +0.000 C 
BRANCH  19  20
ATOM     20  N   UNL     1      46.186   4.347  15.073  0.00  0.00    +0.000 N 
ATOM     21  C   UNL     1      47.175   4.411  16.049  0.00  0.00    +0.000 A 
ATOM     22  N   UNL     1      48.194   5.270  15.955  0.00  0.00    +0.000 NA
ATOM     23  C   UNL     1      49.129   5.203  16.927  0.00  0.00    +0.000 A 
ATOM     24  C   UNL     1      49.076   4.323  17.985  0.00  0.00    +0.000 A 
ATOM     25  C   UNL     1      47.989   3.485  17.990  0.00  0.00    +0.000 A 
ATOM     26  N   UNL     1      47.029   3.514  17.041  0.00  0.00    +0.000 NA
ATOM     27  H   UNL     1      45.787   3.458  15.331  0.00  0.00    +0.000 HD
BRANCH  24  28
ATOM     28  C   UNL     1      50.166   4.285  18.967  0.00  0.00    +0.000 C 
ATOM     29  N   UNL     1      51.304   3.613  18.642  0.00  0.00    +0.000 N 
ATOM     30  O   UNL     1      50.045   4.829  20.057  0.00  0.00    +0.000 OA
ATOM     31  H   UNL     1      51.375   2.957  17.874  0.00  0.00    +0.000 HD
ATOM     32  H   UNL     1      51.996   3.529  19.381  0.00  0.00    +0.000 HD
ENDBRANCH  24  28
ENDBRANCH  19  20
ENDBRANCH   1  19
TORSDOF 11
ENDMDL
MODEL 6
REMARK VINA RESULT:    -6.253      3.813      7.550
REMARK INTER + INTRA:         -11.462
REMARK INTER:                  -9.897
REMARK INTRA:                  -1.565
REMARK UNBOUND:                -1.188
REMARK  Name = 
REMARK  15 active torsions:
REMARK  status: ('A' for Active; 'I' for Inactive)
REMARK    1  A    between atoms: C_1  and  C_2
REMARK    2  A    between atoms: C_2  and  N_3
REMARK    3  A    between atoms: N_3  and  C_4
REMARK    4  A    between atoms: N_3  and  C_6
REMARK    5  A    between atoms: C_4  and  C_5
REMARK    6  A    between atoms: C_6  and  C_7
REMARK    7  A    between atoms: C_7  and  C_8
REMARK    8  A    between atoms: C_8  and  C_9
REMARK    9  A    between atoms: C_9  and  C_10
REMARK   10  A    between atoms: C_9  and  C_11
REMARK   11  A    between atoms: C_9  and  C_22
REMARK   12  A    between atoms: C_11  and  N_12
REMARK   13  A    between atoms: C_16  and  C_17
REMARK   14  A    between atoms: C_26  and  O_27
REMARK   15  A    between atoms: O_27  and  C_28
REMARK                            x       y       z     vdW  Elec       q    Type
REMARK                         _______ _______ _______ _____ _____    ______ ____
ROOT
ATOM      1  C   UNL     1      46.339   6.203  12.318  0.00  0.00    +0.000 C 
ATOM      2  C   UNL     1      44.973   6.577  12.929  0.00  0.00    +0.000 C 
ENDROOT
BRANCH   1   3
ATOM      3  C   UNL     1      47.304   7.411  12.512  0.00  0.00    +0.000 A 
ATOM      4  C   UNL     1      47.000   8.465  13.380  0.00  0.00    +0.000 A 
ATOM      5  C   UNL     1      47.895   9.528  13.514  0.00  0.00    +0.000 A 
ATOM      6  C   UNL     1      49.082   9.518  12.791  0.00  0.00    +0.000 A 
ATOM      7  C   UNL     1      49.315   8.445  11.956  0.00  0.00    +0.000 A 
ATOM      8  N   UNL     1      48.458   7.413  11.802  0.00  0.00    +0.000 NA
BRANCH   7   9
ATOM      9  O   UNL     1      50.504   8.460  11.255  0.00  0.00    +0.000 OA
ATOM     10  C   UNL     1      51.644   8.541  12.106  0.00  0.00    +0.000 C 
ENDBRANCH   7   9
ENDBRANCH   1   3
BRANCH   1  11
ATOM     11  C   UNL     1      46.231   5.940  10.772  0.00  0.00    +0.000 C 
BRANCH  11  12
ATOM     12  C   UNL     1      44.848   5.570  10.216  0.00  0.00    +0.000 C 
BRANCH  12  13
ATOM     13  C   UNL     1      44.805   4.301   9.354  0.00  0.00    +0.000 C 
BRANCH  13  14
ATOM     14  N   UNL     1      44.647   3.030  10.087  0.00  0.00    +0.000 NA
BRANCH  14  16
ATOM     15  C   UNL     1      43.819   2.917  12.472  0.00  0.00    +0.000 C 
ATOM     16  C   UNL     1      43.478   3.017  10.986  0.00  0.00    +0.000 C 
ENDBRANCH  14  16
BRANCH  14  17
ATOM     17  C   UNL     1      44.700   1.885   9.161  0.00  0.00    +0.000 C 
ATOM     18  C   UNL     1      45.994   1.715   8.366  0.00  0.00    +0.000 C 
ENDBRANCH  14  17
ENDBRANCH  13  14
ENDBRANCH  12  13
ENDBRANCH  11  12
ENDBRANCH   1  11
BRANCH   1  19
ATOM     19  C   UNL     1      46.934   4.975  13.107  0.00  0.00    +0.000 C 
BRANCH  19  20
ATOM     20  N   UNL     1      46.278   4.695  14.389  0.00  0.00    +0.000 N 
ATOM     21  C   UNL     1      47.162   4.630  15.460  0.00  0.00    +0.000 A 
ATOM     22  N   UNL     1      48.145   5.522  15.609  0.00  0.00    +0.000 NA
ATOM     23  C   UNL     1      48.982   5.327  16.651  0.00  0.00    +0.000 A 
ATOM     24  C   UNL     1      48.865   4.288  17.546  0.00  0.00    +0.000 A 
ATOM     25  C   UNL     1      47.822   3.428  17.306  0.00  0.00    +0.000 A 
ATOM     26  N   UNL     1      46.960   3.581  16.278  0.00  0.00    +0.000 NA
ATOM     27  H   UNL     1      45.896   3.765  14.460  0.00  0.00    +0.000 HD
BRANCH  24  28
ATOM     28  C   UNL     1      49.854   4.124  18.619  0.00  0.00    +0.000 C 
ATOM     29  N   UNL     1      49.409   4.092  19.904  0.00  0.00    +0.000 N 
ATOM     30  O   UNL     1      51.047   4.039  18.362  0.00  0.00    +0.000 OA
ATOM     31  H   UNL     1      48.486   4.389  20.194  0.00  0.00    +0.000 HD
ATOM     32  H   UNL     1      50.129   4.073  20.623  0.00  0.00    +0.000 HD
ENDBRANCH  24  28
ENDBRANCH  19  20
ENDBRANCH   1  19
TORSDOF 11
ENDMDL
MODEL 7
REMARK VINA RESULT:    -6.145      3.326      8.279
REMARK INTER + INTRA:         -11.285
REMARK INTER:                  -9.777
REMARK INTRA:                  -1.508
REMARK UNBOUND:                -1.188
REMARK  Name = 
REMARK  15 active torsions:
REMARK  status: ('A' for Active; 'I' for Inactive)
REMARK    1  A    between atoms: C_1  and  C_2
REMARK    2  A    between atoms: C_2  and  N_3
REMARK    3  A    between atoms: N_3  and  C_4
REMARK    4  A    between atoms: N_3  and  C_6
REMARK    5  A    between atoms: C_4  and  C_5
REMARK    6  A    between atoms: C_6  and  C_7
REMARK    7  A    between atoms: C_7  and  C_8
REMARK    8  A    between atoms: C_8  and  C_9
REMARK    9  A    between atoms: C_9  and  C_10
REMARK   10  A    between atoms: C_9  and  C_11
REMARK   11  A    between atoms: C_9  and  C_22
REMARK   12  A    between atoms: C_11  and  N_12
REMARK   13  A    between atoms: C_16  and  C_17
REMARK   14  A    between atoms: C_26  and  O_27
REMARK   15  A    between atoms: O_27  and  C_28
REMARK                            x       y       z     vdW  Elec       q    Type
REMARK                         _______ _______ _______ _____ _____    ______ ____
ROOT
ATOM      1  C   UNL     1      45.356   5.762  11.831  0.00  0.00    +0.000 C 
ATOM      2  C   UNL     1      44.143   6.717  11.837  0.00  0.00    +0.000 C 
ENDROOT
BRANCH   1   3
ATOM      3  C   UNL     1      45.120   4.687  10.729  0.00  0.00    +0.000 A 
ATOM      4  C   UNL     1      44.428   3.500  10.992  0.00  0.00    +0.000 A 
ATOM      5  C   UNL     1      44.249   2.565   9.971  0.00  0.00    +0.000 A 
ATOM      6  C   UNL     1      44.752   2.832   8.703  0.00  0.00    +0.000 A 
ATOM      7  C   UNL     1      45.422   4.022   8.517  0.00  0.00    +0.000 A 
ATOM      8  N   UNL     1      45.617   4.936   9.493  0.00  0.00    +0.000 NA
BRANCH   7   9
ATOM      9  O   UNL     1      45.906   4.262   7.246  0.00  0.00    +0.000 OA
ATOM     10  C   UNL     1      46.546   3.124   6.678  0.00  0.00    +0.000 C 
ENDBRANCH   7   9
ENDBRANCH   1   3
BRANCH   1  11
ATOM     11  C   UNL     1      45.503   5.001  13.198  0.00  0.00    +0.000 C 
BRANCH  11  12
ATOM     12  C   UNL     1      46.925   4.805  13.746  0.00  0.00    +0.000 C 
BRANCH  12  13
ATOM     13  C   UNL     1      47.008   4.378  15.218  0.00  0.00    +0.000 C 
BRANCH  13  14
ATOM     14  N   UNL     1      48.337   4.499  15.849  0.00  0.00    +0.000 NA
BRANCH  14  16
ATOM     15  C   UNL     1      50.082   6.080  16.765  0.00  0.00    +0.000 C 
ATOM     16  C   UNL     1      48.637   5.864  16.319  0.00  0.00    +0.000 C 
ENDBRANCH  14  16
BRANCH  14  17
ATOM     17  C   UNL     1      48.521   3.460  16.877  0.00  0.00    +0.000 C 
ATOM     18  C   UNL     1      47.253   2.942  17.553  0.00  0.00    +0.000 C 
ENDBRANCH  14  17
ENDBRANCH  13  14
ENDBRANCH  12  13
ENDBRANCH  11  12
ENDBRANCH   1  11
BRANCH   1  19
ATOM     19  C   UNL     1      46.648   6.579  11.444  0.00  0.00    +0.000 C 
BRANCH  19  20
ATOM     20  N   UNL     1      46.754   7.895  12.082  0.00  0.00    +0.000 N 
ATOM     21  C   UNL     1      48.016   8.154  12.606  0.00  0.00    +0.000 A 
ATOM     22  N   UNL     1      49.129   7.858  11.928  0.00  0.00    +0.000 NA
ATOM     23  C   UNL     1      50.299   8.096  12.559  0.00  0.00    +0.000 A 
ATOM     24  C   UNL     1      50.395   8.624  13.826  0.00  0.00    +0.000 A 
ATOM     25  C   UNL     1      49.196   8.895  14.436  0.00  0.00    +0.000 A 
ATOM     26  N   UNL     1      48.001   8.674  13.847  0.00  0.00    +0.000 NA
ATOM     27  H   UNL     1      46.223   7.983  12.934  0.00  0.00    +0.000 HD
BRANCH  24  28
ATOM     28  C   UNL     1      51.711   8.800  14.454  0.00  0.00    +0.000 C 
ATOM     29  N   UNL     1      52.589   7.762  14.409  0.00  0.00    +0.000 N 
ATOM     30  O   UNL     1      51.999   9.846  15.019  0.00  0.00    +0.000 OA
ATOM     31  H   UNL     1      52.333   6.811  14.175  0.00  0.00    +0.000 HD
ATOM     32  H   UNL     1      53.450   7.886  14.934  0.00  0.00    +0.000 HD
ENDBRANCH  24  28
ENDBRANCH  19  20
ENDBRANCH   1  19
TORSDOF 11
ENDMDL
MODEL 8
REMARK VINA RESULT:    -6.063      3.741      7.412
REMARK INTER + INTRA:         -11.149
REMARK INTER:                  -9.554
REMARK INTRA:                  -1.595
REMARK UNBOUND:                -1.188
REMARK  Name = 
REMARK  15 active torsions:
REMARK  status: ('A' for Active; 'I' for Inactive)
REMARK    1  A    between atoms: C_1  and  C_2
REMARK    2  A    between atoms: C_2  and  N_3
REMARK    3  A    between atoms: N_3  and  C_4
REMARK    4  A    between atoms: N_3  and  C_6
REMARK    5  A    between atoms: C_4  and  C_5
REMARK    6  A    between atoms: C_6  and  C_7
REMARK    7  A    between atoms: C_7  and  C_8
REMARK    8  A    between atoms: C_8  and  C_9
REMARK    9  A    between atoms: C_9  and  C_10
REMARK   10  A    between atoms: C_9  and  C_11
REMARK   11  A    between atoms: C_9  and  C_22
REMARK   12  A    between atoms: C_11  and  N_12
REMARK   13  A    between atoms: C_16  and  C_17
REMARK   14  A    between atoms: C_26  and  O_27
REMARK   15  A    between atoms: O_27  and  C_28
REMARK                            x       y       z     vdW  Elec       q    Type
REMARK                         _______ _______ _______ _____ _____    ______ ____
ROOT
ATOM      1  C   UNL     1      47.362   8.226  12.322  0.00  0.00    +0.000 C 
ATOM      2  C   UNL     1      46.071   9.033  12.067  0.00  0.00    +0.000 C 
ENDROOT
BRANCH   1   3
ATOM      3  C   UNL     1      48.563   9.046  11.765  0.00  0.00    +0.000 A 
ATOM      4  C   UNL     1      48.434  10.391  11.403  0.00  0.00    +0.000 A 
ATOM      5  C   UNL     1      49.540  11.079  10.902  0.00  0.00    +0.000 A 
ATOM      6  C   UNL     1      50.758  10.420  10.779  0.00  0.00    +0.000 A 
ATOM      7  C   UNL     1      50.811   9.096  11.157  0.00  0.00    +0.000 A 
ATOM      8  N   UNL     1      49.751   8.406  11.632  0.00  0.00    +0.000 NA
BRANCH   7   9
ATOM      9  O   UNL     1      52.035   8.469  11.029  0.00  0.00    +0.000 OA
ATOM     10  C   UNL     1      51.972   7.300  10.218  0.00  0.00    +0.000 C 
ENDBRANCH   7   9
ENDBRANCH   1   3
BRANCH   1  11
ATOM     11  C   UNL     1      47.346   6.850  11.563  0.00  0.00    +0.000 C 
BRANCH  11  12
ATOM     12  C   UNL     1      45.982   6.314  11.105  0.00  0.00    +0.000 C 
BRANCH  12  13
ATOM     13  C   UNL     1      45.477   5.075  11.857  0.00  0.00    +0.000 C 
BRANCH  13  14
ATOM     14  N   UNL     1      44.526   4.219  11.121  0.00  0.00    +0.000 NA
BRANCH  14  16
ATOM     15  C   UNL     1      42.979   5.090  12.919  0.00  0.00    +0.000 C 
ATOM     16  C   UNL     1      43.134   4.361  11.585  0.00  0.00    +0.000 C 
ENDBRANCH  14  16
BRANCH  14  17
ATOM     17  C   UNL     1      44.691   4.389   9.666  0.00  0.00    +0.000 C 
ATOM     18  C   UNL     1      44.709   3.110   8.832  0.00  0.00    +0.000 C 
ENDBRANCH  14  17
ENDBRANCH  13  14
ENDBRANCH  12  13
ENDBRANCH  11  12
ENDBRANCH   1  11
BRANCH   1  19
ATOM     19  C   UNL     1      47.565   8.064  13.878  0.00  0.00    +0.000 C 
BRANCH  19  20
ATOM     20  N   UNL     1      48.776   7.333  14.264  0.00  0.00    +0.000 N 
ATOM     21  C   UNL     1      48.524   6.240  15.086  0.00  0.00    +0.000 A 
ATOM     22  N   UNL     1      47.514   5.400  14.842  0.00  0.00    +0.000 NA
ATOM     23  C   UNL     1      47.324   4.410  15.741  0.00  0.00    +0.000 A 
ATOM     24  C   UNL     1      48.106   4.226  16.858  0.00  0.00    +0.000 A 
ATOM     25  C   UNL     1      49.118   5.141  17.017  0.00  0.00    +0.000 A 
ATOM     26  N   UNL     1      49.347   6.148  16.147  0.00  0.00    +0.000 NA
ATOM     27  H   UNL     1      49.384   7.844  14.885  0.00  0.00    +0.000 HD
BRANCH  24  28
ATOM     28  C   UNL     1      47.793   3.153  17.809  0.00  0.00    +0.000 C 
ATOM     29  N   UNL     1      48.688   2.888  18.799  0.00  0.00    +0.000 N 
ATOM     30  O   UNL     1      46.762   2.503  17.700  0.00  0.00    +0.000 OA
ATOM     31  H   UNL     1      49.645   3.217  18.802  0.00  0.00    +0.000 HD
ATOM     32  H   UNL     1      48.482   2.078  19.379  0.00  0.00    +0.000 HD
ENDBRANCH  24  28
ENDBRANCH  19  20
ENDBRANCH   1  19
TORSDOF 11
ENDMDL
MODEL 9
REMARK VINA RESULT:    -5.901      3.640      6.009
REMARK INTER + INTRA:         -10.884
REMARK INTER:                  -8.955
REMARK INTRA:                  -1.929
REMARK UNBOUND:                -1.188
REMARK  Name = 
REMARK  15 active torsions:
REMARK  status: ('A' for Active; 'I' for Inactive)
REMARK    1  A    between atoms: C_1  and  C_2
REMARK    2  A    between atoms: C_2  and  N_3
REMARK    3  A    between atoms: N_3  and  C_4
REMARK    4  A    between atoms: N_3  and  C_6
REMARK    5  A    between atoms: C_4  and  C_5
REMARK    6  A    between atoms: C_6  and  C_7
REMARK    7  A    between atoms: C_7  and  C_8
REMARK    8  A    between atoms: C_8  and  C_9
REMARK    9  A    between atoms: C_9  and  C_10
REMARK   10  A    between atoms: C_9  and  C_11
REMARK   11  A    between atoms: C_9  and  C_22
REMARK   12  A    between atoms: C_11  and  N_12
REMARK   13  A    between atoms: C_16  and  C_17
REMARK   14  A    between atoms: C_26  and  O_27
REMARK   15  A    between atoms: O_27  and  C_28
REMARK                            x       y       z     vdW  Elec       q    Type
REMARK                         _______ _______ _______ _____ _____    ______ ____
ROOT
ATOM      1  C   UNL     1      49.032   7.073  15.588  0.00  0.00    +0.000 C 
ATOM      2  C   UNL     1      48.259   8.340  16.011  0.00  0.00    +0.000 C 
ENDROOT
BRANCH   1   3
ATOM      3  C   UNL     1      49.188   6.160  16.840  0.00  0.00    +0.000 A 
ATOM      4  C   UNL     1      49.292   6.690  18.131  0.00  0.00    +0.000 A 
ATOM      5  C   UNL     1      49.437   5.828  19.220  0.00  0.00    +0.000 A 
ATOM      6  C   UNL     1      49.467   4.455  19.007  0.00  0.00    +0.000 A 
ATOM      7  C   UNL     1      49.358   4.005  17.708  0.00  0.00    +0.000 A 
ATOM      8  N   UNL     1      49.229   4.821  16.639  0.00  0.00    +0.000 NA
BRANCH   7   9
ATOM      9  O   UNL     1      49.385   2.637  17.528  0.00  0.00    +0.000 OA
ATOM     10  C   UNL     1      50.693   2.144  17.253  0.00  0.00    +0.000 C 
ENDBRANCH   7   9
ENDBRANCH   1   3
BRANCH   1  11
ATOM     11  C   UNL     1      50.479   7.418  15.081  0.00  0.00    +0.000 C 
BRANCH  11  12
ATOM     12  C   UNL     1      50.785   8.891  14.773  0.00  0.00    +0.000 C 
BRANCH  12  13
ATOM     13  C   UNL     1      50.693   9.285  13.292  0.00  0.00    +0.000 C 
BRANCH  13  14
ATOM     14  N   UNL     1      49.360   9.154  12.673  0.00  0.00    +0.000 NA
BRANCH  14  16
ATOM     15  C   UNL     1      47.199  10.324  12.083  0.00  0.00    +0.000 C 
ATOM     16  C   UNL     1      48.657  10.442  12.523  0.00  0.00    +0.000 C 
ENDBRANCH  14  16
BRANCH  14  17
ATOM     17  C   UNL     1      49.440   8.370  11.427  0.00  0.00    +0.000 C 
ATOM     18  C   UNL     1      50.776   7.687  11.140  0.00  0.00    +0.000 C 
ENDBRANCH  14  17
ENDBRANCH  13  14
ENDBRANCH  12  13
ENDBRANCH  11  12
ENDBRANCH   1  11
BRANCH   1  19
ATOM     19  C   UNL     1      48.180   6.288  14.518  0.00  0.00    +0.000 C 
BRANCH  19  20
ATOM     20  N   UNL     1      47.170   7.096  13.827  0.00  0.00    +0.000 N 
ATOM     21  C   UNL     1      46.327   6.348  13.012  0.00  0.00    +0.000 A 
ATOM     22  N   UNL     1      45.814   5.184  13.419  0.00  0.00    +0.000 NA
ATOM     23  C   UNL     1      45.059   4.512  12.523  0.00  0.00    +0.000 A 
ATOM     24  C   UNL     1      44.792   4.966  11.250  0.00  0.00    +0.000 A 
ATOM     25  C   UNL     1      45.364   6.172  10.931  0.00  0.00    +0.000 A 
ATOM     26  N   UNL     1      46.127   6.879  11.792  0.00  0.00    +0.000 NA
ATOM     27  H   UNL     1      47.547   7.709  13.121  0.00  0.00    +0.000 HD
BRANCH  24  28
ATOM     28  C   UNL     1      44.003   4.143  10.325  0.00  0.00    +0.000 C 
ATOM     29  N   UNL     1      44.025   4.461   9.003  0.00  0.00    +0.000 N 
ATOM     30  O   UNL     1      43.330   3.208  10.738  0.00  0.00    +0.000 OA
ATOM     31  H   UNL     1      44.360   5.343   8.636  0.00  0.00    +0.000 HD
ATOM     32  H   UNL     1      43.394   3.930   8.408  0.00  0.00    +0.000 HD
ENDBRANCH  24  28
ENDBRANCH  19  20
ENDBRANCH   1  19
TORSDOF 11
ENDMDL
