MODEL 1
REMARK VINA RESULT:    -7.220      0.000      0.000
REMARK INTER + INTRA:         -10.190
REMARK INTER:                  -9.752
REMARK INTRA:                  -0.438
REMARK UNBOUND:                -0.438
REMARK  Name = 
REMARK  6 active torsions:
REMARK  status: ('A' for Active; 'I' for Inactive)
REMARK    1  A    between atoms: C_7  and  N_8
REMARK    2  A    between atoms: N_8  and  C_9
REMARK    3  A    between atoms: C_9  and  C_10
REMARK    4  A    between atoms: C_10  and  C_11
REMARK    5  A    between atoms: C_15  and  N_16
REMARK    6  A    between atoms: N_16  and  C_17
REMARK                            x       y       z     vdW  Elec       q    Type
REMARK                         _______ _______ _______ _____ _____    ______ ____
ROOT
ATOM      1  C   UNL     1      45.482   6.369  11.127  0.00  0.00    +0.000 C 
ENDROOT
BRANCH   1   2
ATOM      2  C   UNL     1      45.151   5.044  10.461  0.00  0.00    +0.000 A 
ATOM      3  C   UNL     1      44.352   4.063  11.066  0.00  0.00    +0.000 A 
ATOM      4  C   UNL     1      44.057   2.875  10.400  0.00  0.00    +0.000 A 
ATOM      5  C   UNL     1      44.564   2.646   9.124  0.00  0.00    +0.000 A 
ATOM      6  C   UNL     1      45.392   3.584   8.502  0.00  0.00    +0.000 A 
ATOM      7  C   UNL     1      45.658   4.789   9.170  0.00  0.00    +0.000 A 
BRANCH   6   8
ATOM      8  N   UNL     1      45.851   3.318   7.191  0.00  0.00    +0.000 N 
ATOM      9  H   UNL     1      45.228   2.668   6.715  0.00  0.00    +0.000 HD
BRANCH   8  10
ATOM     10  C   UNL     1      47.230   3.125   6.819  0.00  0.00    +0.000 C 
ATOM     11  C   UNL     1      47.411   2.755   5.339  0.00  0.00    +0.000 C 
ATOM     12  O   UNL     1      48.132   1.547   5.688  0.00  0.00    +0.000 OA
ATOM     13  C   UNL     1      47.748   1.703   7.078  0.00  0.00    +0.000 C 
ENDBRANCH   8  10
ENDBRANCH   6   8
ENDBRANCH   1   2
BRANCH   1  14
ATOM     14  C   UNL     1      45.739   6.299  12.640  0.00  0.00    +0.000 C 
BRANCH  14  15
ATOM     15  N   UNL     1      46.961   5.551  12.955  0.00  0.00    +0.000 N 
ATOM     16  H   UNL     1      47.006   4.655  12.468  0.00  0.00    +0.000 HD
BRANCH  15  23
ATOM     17  O   UNL     1      46.662   3.234  17.067  0.00  0.00    +0.000 OA
ATOM     18  N   UNL     1      47.183   4.178  16.395  0.00  0.00    +0.000 N 
ATOM     19  C   UNL     1      48.121   5.005  16.967  0.00  0.00    +0.000 A 
ATOM     20  C   UNL     1      48.692   6.027  16.229  0.00  0.00    +0.000 A 
ATOM     21 CL   UNL     1      49.883   7.038  16.947  0.00  0.00    +0.000 Cl
ATOM     22  C   UNL     1      48.310   6.236  14.904  0.00  0.00    +0.000 A 
ATOM     23  C   UNL     1      47.332   5.437  14.306  0.00  0.00    +0.000 A 
ATOM     24  C   UNL     1      46.812   4.389  15.073  0.00  0.00    +0.000 A 
ENDBRANCH  15  23
ENDBRANCH  14  15
ENDBRANCH   1  14
TORSDOF 6
ENDMDL
MODEL 2
REMARK VINA RESULT:    -7.009      3.125      8.251
REMARK INTER + INTRA:          -9.906
REMARK INTER:                  -9.452
REMARK INTRA:                  -0.453
REMARK UNBOUND:                -0.438
REMARK  Name = 
REMARK  6 active torsions:
REMARK  status: ('A' for Active; 'I' for Inactive)
REMARK    1  A    between atoms: C_7  and  N_8
REMARK    2  A    between atoms: N_8  and  C_9
REMARK    3  A    between atoms: C_9  and  C_10
REMARK    4  A    between atoms: C_10  and  C_11
REMARK    5  A    between atoms: C_15  and  N_16
REMARK    6  A    between atoms: N_16  and  C_17
REMARK                            x       y       z     vdW  Elec       q    Type
REMARK                         _______ _______ _______ _____ _____    ______ ____
ROOT
ATOM      1  C   UNL     1      44.180   4.652  11.217  0.00  0.00    +0.000 C 
ENDROOT
BRANCH   1   2
ATOM      2  C   UNL     1      45.353   5.078  12.084  0.00  0.00    +0.000 A 
ATOM      3  C   UNL     1      46.330   5.987  11.654  0.00  0.00    +0.000 A 
ATOM      4  C   UNL     1      47.372   6.365  12.499  0.00  0.00    +0.000 A 
ATOM      5  C   UNL     1      47.457   5.833  13.783  0.00  0.00    +0.000 A 
ATOM      6  C   UNL     1      46.522   4.898  14.236  0.00  0.00    +0.000 A 
ATOM      7  C   UNL     1      45.461   4.548  13.386  0.00  0.00    +0.000 A 
BRANCH   6   8
ATOM      8  N   UNL     1      46.633   4.416  15.560  0.00  0.00    +0.000 N 
ATOM      9  H   UNL     1      45.861   4.752  16.133  0.00  0.00    +0.000 HD
BRANCH   8  10
ATOM     10  C   UNL     1      47.864   4.317  16.305  0.00  0.00    +0.000 C 
ATOM     11  C   UNL     1      48.219   2.873  16.693  0.00  0.00    +0.000 C 
ATOM     12  O   UNL     1      48.291   3.227  18.098  0.00  0.00    +0.000 OA
ATOM     13  C   UNL     1      47.690   4.517  17.817  0.00  0.00    +0.000 C 
ENDBRANCH   8  10
ENDBRANCH   6   8
ENDBRANCH   1   2
BRANCH   1  14
ATOM     14  C   UNL     1      44.333   3.287  10.528  0.00  0.00    +0.000 C 
BRANCH  14  15
ATOM     15  N   UNL     1      44.243   3.398   9.068  0.00  0.00    +0.000 N 
ATOM     16  H   UNL     1      43.307   3.194   8.717  0.00  0.00    +0.000 HD
BRANCH  15  23
ATOM     17  O   UNL     1      46.800  -0.459   8.089  0.00  0.00    +0.000 OA
ATOM     18  N   UNL     1      46.503   0.742   7.799  0.00  0.00    +0.000 N 
ATOM     19  C   UNL     1      47.100   1.368   6.731  0.00  0.00    +0.000 A 
ATOM     20  C   UNL     1      46.768   2.674   6.414  0.00  0.00    +0.000 A 
ATOM     21 CL   UNL     1      47.501   3.437   5.059  0.00  0.00    +0.000 Cl
ATOM     22  C   UNL     1      45.837   3.369   7.184  0.00  0.00    +0.000 A 
ATOM     23  C   UNL     1      45.241   2.774   8.299  0.00  0.00    +0.000 A 
ATOM     24  C   UNL     1      45.572   1.440   8.559  0.00  0.00    +0.000 A 
ENDBRANCH  15  23
ENDBRANCH  14  15
ENDBRANCH   1  14
TORSDOF 6
ENDMDL
MODEL 3
REMARK VINA RESULT:    -6.810      1.972      2.792
REMARK INTER + INTRA:          -9.637
REMARK INTER:                  -9.209
REMARK INTRA:                  -0.428
REMARK UNBOUND:                -0.438
REMARK  Name = 
REMARK  6 active torsions:
REMARK  status: ('A' for Active; 'I' for Inactive)
REMARK    1  A    between atoms: C_7  and  N_8
REMARK    2  A    between atoms: N_8  and  C_9
REMARK    3  A    between atoms: C_9  and  C_10
REMARK    4  A    between atoms: C_10  and  C_11
REMARK    5  A    between atoms: C_15  and  N_16
REMARK    6  A    between atoms: N_16  and  C_17
REMARK                            x       y       z     vdW  Elec       q    Type
REMARK                         _______ _______ _______ _____ _____    ______ ____
ROOT
ATOM      1  C   UNL     1      46.365   6.225  13.365  0.00  0.00    +0.000 C 
ENDROOT
BRANCH   1   2
ATOM      2  C   UNL     1      45.265   5.710  12.452  0.00  0.00    +0.000 A 
ATOM      3  C   UNL     1      43.942   5.524  12.879  0.00  0.00    +0.000 A 
ATOM      4  C   UNL     1      42.965   5.074  11.993  0.00  0.00    +0.000 A 
ATOM      5  C   UNL     1      43.297   4.794  10.671  0.00  0.00    +0.000 A 
ATOM      6  C   UNL     1      44.612   4.933  10.216  0.00  0.00    +0.000 A 
ATOM      7  C   UNL     1      45.581   5.416  11.109  0.00  0.00    +0.000 A 
BRANCH   6   8
ATOM      8  N   UNL     1      44.890   4.670   8.855  0.00  0.00    +0.000 N 
ATOM      9  H   UNL     1      44.513   5.406   8.261  0.00  0.00    +0.000 HD
BRANCH   8  10
ATOM     10  C   UNL     1      44.817   3.373   8.231  0.00  0.00    +0.000 C 
ATOM     11  C   UNL     1      45.217   2.226   9.172  0.00  0.00    +0.000 C 
ATOM     12  O   UNL     1      46.234   1.769   8.245  0.00  0.00    +0.000 OA
ATOM     13  C   UNL     1      46.089   2.982   7.465  0.00  0.00    +0.000 C 
ENDBRANCH   8  10
ENDBRANCH   6   8
ENDBRANCH   1   2
BRANCH   1  14
ATOM     14  C   UNL     1      47.258   5.144  13.995  0.00  0.00    +0.000 C 
BRANCH  14  15
ATOM     15  N   UNL     1      46.590   4.461  15.108  0.00  0.00    +0.000 N 
ATOM     16  H   UNL     1      45.754   4.954  15.423  0.00  0.00    +0.000 HD
BRANCH  15  23
ATOM     17  O   UNL     1      49.912   1.542  16.784  0.00  0.00    +0.000 OA
ATOM     18  N   UNL     1      49.138   2.528  16.989  0.00  0.00    +0.000 N 
ATOM     19  C   UNL     1      49.140   3.174  18.203  0.00  0.00    +0.000 A 
ATOM     20  C   UNL     1      48.301   4.253  18.420  0.00  0.00    +0.000 A 
ATOM     21 CL   UNL     1      48.332   5.069  19.933  0.00  0.00    +0.000 Cl
ATOM     22  C   UNL     1      47.438   4.685  17.414  0.00  0.00    +0.000 A 
ATOM     23  C   UNL     1      47.384   4.027  16.183  0.00  0.00    +0.000 A 
ATOM     24  C   UNL     1      48.278   2.969  15.991  0.00  0.00    +0.000 A 
ENDBRANCH  15  23
ENDBRANCH  14  15
ENDBRANCH   1  14
TORSDOF 6
ENDMDL
MODEL 4
REMARK VINA RESULT:    -6.808      3.462      7.830
REMARK INTER + INTRA:          -9.635
REMARK INTER:                  -9.272
REMARK INTRA:                  -0.363
REMARK UNBOUND:                -0.438
REMARK  Name = 
REMARK  6 active torsions:
REMARK  status: ('A' for Active; 'I' for Inactive)
REMARK    1  A    between atoms: C_7  and  N_8
REMARK    2  A    between atoms: N_8  and  C_9
REMARK    3  A    between atoms: C_9  and  C_10
REMARK    4  A    between atoms: C_10  and  C_11
REMARK    5  A    between atoms: C_15  and  N_16
REMARK    6  A    between atoms: N_16  and  C_17
REMARK                            x       y       z     vdW  Elec       q    Type
REMARK                         _______ _______ _______ _____ _____    ______ ____
ROOT
ATOM      1  C   UNL     1      47.146   6.690  11.487  0.00  0.00    +0.000 C 
ENDROOT
BRANCH   1   2
ATOM      2  C   UNL     1      48.091   6.911  12.655  0.00  0.00    +0.000 A 
ATOM      3  C   UNL     1      49.311   7.592  12.533  0.00  0.00    +0.000 A 
ATOM      4  C   UNL     1      50.129   7.791  13.643  0.00  0.00    +0.000 A 
ATOM      5  C   UNL     1      49.746   7.304  14.890  0.00  0.00    +0.000 A 
ATOM      6  C   UNL     1      48.554   6.589  15.045  0.00  0.00    +0.000 A 
ATOM      7  C   UNL     1      47.724   6.421  13.926  0.00  0.00    +0.000 A 
BRANCH   6   8
ATOM      8  N   UNL     1      48.194   6.147  16.338  0.00  0.00    +0.000 N 
ATOM      9  H   UNL     1      48.503   6.810  17.046  0.00  0.00    +0.000 HD
BRANCH   8  10
ATOM     10  C   UNL     1      48.267   4.783  16.798  0.00  0.00    +0.000 C 
ATOM     11  C   UNL     1      47.320   3.839  16.040  0.00  0.00    +0.000 C 
ATOM     12  O   UNL     1      46.691   3.416  17.276  0.00  0.00    +0.000 OA
ATOM     13  C   UNL     1      47.357   4.483  17.997  0.00  0.00    +0.000 C 
ENDBRANCH   8  10
ENDBRANCH   6   8
ENDBRANCH   1   2
BRANCH   1  14
ATOM     14  C   UNL     1      45.666   6.994  11.769  0.00  0.00    +0.000 C 
BRANCH  14  15
ATOM     15  N   UNL     1      44.801   6.588  10.656  0.00  0.00    +0.000 N 
ATOM     16  H   UNL     1      43.873   7.007  10.710  0.00  0.00    +0.000 HD
BRANCH  15  23
ATOM     17  O   UNL     1      43.023   2.285  11.487  0.00  0.00    +0.000 OA
ATOM     18  N   UNL     1      43.762   3.027  10.769  0.00  0.00    +0.000 N 
ATOM     19  C   UNL     1      44.424   2.508   9.681  0.00  0.00    +0.000 A 
ATOM     20  C   UNL     1      45.223   3.322   8.896  0.00  0.00    +0.000 A 
ATOM     21 CL   UNL     1      46.023   2.666   7.524  0.00  0.00    +0.000 Cl
ATOM     22  C   UNL     1      45.374   4.671   9.211  0.00  0.00    +0.000 A 
ATOM     23  C   UNL     1      44.746   5.222  10.332  0.00  0.00    +0.000 A 
ATOM     24  C   UNL     1      43.915   4.375  11.072  0.00  0.00    +0.000 A 
ENDBRANCH  15  23
ENDBRANCH  14  15
ENDBRANCH   1  14
TORSDOF 6
ENDMDL
MODEL 5
REMARK VINA RESULT:    -6.435      2.312      2.912
REMARK INTER + INTRA:          -9.130
REMARK INTER:                  -8.634
REMARK INTRA:                  -0.496
REMARK UNBOUND:                -0.438
REMARK  Name = 
REMARK  6 active torsions:
REMARK  status: ('A' for Active; 'I' for Inactive)
REMARK    1  A    between atoms: C_7  and  N_8
REMARK    2  A    between atoms: N_8  and  C_9
REMARK    3  A    between atoms: C_9  and  C_10
REMARK    4  A    between atoms: C_10  and  C_11
REMARK    5  A    between atoms: C_15  and  N_16
REMARK    6  A    between atoms: N_16  and  C_17
REMARK                            x       y       z     vdW  Elec       q    Type
REMARK                         _______ _______ _______ _____ _____    ______ ____
ROOT
ATOM      1  C   UNL     1      47.033   6.735  12.117  0.00  0.00    +0.000 C 
ENDROOT
BRANCH   1   2
ATOM      2  C   UNL     1      45.838   5.834  11.861  0.00  0.00    +0.000 A 
ATOM      3  C   UNL     1      45.036   5.317  12.889  0.00  0.00    +0.000 A 
ATOM      4  C   UNL     1      43.934   4.515  12.599  0.00  0.00    +0.000 A 
ATOM      5  C   UNL     1      43.622   4.211  11.277  0.00  0.00    +0.000 A 
ATOM      6  C   UNL     1      44.417   4.678  10.226  0.00  0.00    +0.000 A 
ATOM      7  C   UNL     1      45.506   5.509  10.529  0.00  0.00    +0.000 A 
BRANCH   6   8
ATOM      8  N   UNL     1      44.035   4.370   8.900  0.00  0.00    +0.000 N 
ATOM      9  H   UNL     1      43.046   4.560   8.755  0.00  0.00    +0.000 HD
BRANCH   8  10
ATOM     10  C   UNL     1      44.486   3.221   8.154  0.00  0.00    +0.000 C 
ATOM     11  C   UNL     1      45.133   2.143   9.038  0.00  0.00    +0.000 C 
ATOM     12  O   UNL     1      46.352   2.176   8.252  0.00  0.00    +0.000 OA
ATOM     13  C   UNL     1      45.900   3.375   7.574  0.00  0.00    +0.000 C 
ENDBRANCH   8  10
ENDBRANCH   6   8
ENDBRANCH   1   2
BRANCH   1  14
ATOM     14  C   UNL     1      48.073   6.186  13.107  0.00  0.00    +0.000 C 
BRANCH  14  15
ATOM     15  N   UNL     1      47.902   6.751  14.450  0.00  0.00    +0.000 N 
ATOM     16  H   UNL     1      48.232   7.714  14.513  0.00  0.00    +0.000 HD
BRANCH  15  23
ATOM     17  O   UNL     1      50.791   6.175  18.150  0.00  0.00    +0.000 OA
ATOM     18  N   UNL     1      49.804   5.749  17.475  0.00  0.00    +0.000 N 
ATOM     19  C   UNL     1      49.141   4.606  17.856  0.00  0.00    +0.000 A 
ATOM     20  C   UNL     1      48.060   4.148  17.123  0.00  0.00    +0.000 A 
ATOM     21 CL   UNL     1      47.224   2.733  17.625  0.00  0.00    +0.000 Cl
ATOM     22  C   UNL     1      47.644   4.834  15.982  0.00  0.00    +0.000 A 
ATOM     23  C   UNL     1      48.320   5.977  15.546  0.00  0.00    +0.000 A 
ATOM     24  C   UNL     1      49.379   6.429  16.340  0.00  0.00    +0.000 A 
ENDBRANCH  15  23
ENDBRANCH  14  15
ENDBRANCH   1  14
TORSDOF 6
ENDMDL
MODEL 6
REMARK VINA RESULT:    -6.376      4.621      7.248
REMARK INTER + INTRA:          -9.051
REMARK INTER:                  -8.300
REMARK INTRA:                  -0.751
REMARK UNBOUND:                -0.438
REMARK  Name = 
REMARK  6 active torsions:
REMARK  status: ('A' for Active; 'I' for Inactive)
REMARK    1  A    between atoms: C_7  and  N_8
REMARK    2  A    between atoms: N_8  and  C_9
REMARK    3  A    between atoms: C_9  and  C_10
REMARK    4  A    between atoms: C_10  and  C_11
REMARK    5  A    between atoms: C_15  and  N_16
REMARK    6  A    between atoms: N_16  and  C_17
REMARK                            x       y       z     vdW  Elec       q    Type
REMARK                         _______ _______ _______ _____ _____    ______ ____
ROOT
ATOM      1  C   UNL     1      47.447   5.961  12.864  0.00  0.00    +0.000 C 
ENDROOT
BRANCH   1   2
ATOM      2  C   UNL     1      47.282   7.439  12.558  0.00  0.00    +0.000 A 
ATOM      3  C   UNL     1      48.343   8.257  12.143  0.00  0.00    +0.000 A 
ATOM      4  C   UNL     1      48.132   9.603  11.850  0.00  0.00    +0.000 A 
ATOM      5  C   UNL     1      46.859  10.153  11.975  0.00  0.00    +0.000 A 
ATOM      6  C   UNL     1      45.783   9.380  12.419  0.00  0.00    +0.000 A 
ATOM      7  C   UNL     1      46.002   8.019  12.683  0.00  0.00    +0.000 A 
BRANCH   6   8
ATOM      8  N   UNL     1      44.504   9.978  12.494  0.00  0.00    +0.000 N 
ATOM      9  H   UNL     1      43.832   9.341  12.917  0.00  0.00    +0.000 HD
BRANCH   8  10
ATOM     10  C   UNL     1      43.911  10.797  11.467  0.00  0.00    +0.000 C 
ATOM     11  C   UNL     1      42.375  10.805  11.514  0.00  0.00    +0.000 C 
ATOM     12  O   UNL     1      42.292  10.358  10.137  0.00  0.00    +0.000 OA
ATOM     13  C   UNL     1      43.713  10.067  10.131  0.00  0.00    +0.000 C 
ENDBRANCH   8  10
ENDBRANCH   6   8
ENDBRANCH   1   2
BRANCH   1  14
ATOM     14  C   UNL     1      46.762   5.474  14.151  0.00  0.00    +0.000 C 
BRANCH  14  15
ATOM     15  N   UNL     1      46.081   4.190  13.957  0.00  0.00    +0.000 N 
ATOM     16  H   UNL     1      46.726   3.400  13.960  0.00  0.00    +0.000 HD
BRANCH  15  23
ATOM     17  O   UNL     1      42.065   5.703  11.969  0.00  0.00    +0.000 OA
ATOM     18  N   UNL     1      43.083   4.947  11.904  0.00  0.00    +0.000 N 
ATOM     19  C   UNL     1      43.271   4.124  10.819  0.00  0.00    +0.000 A 
ATOM     20  C   UNL     1      44.386   3.307  10.748  0.00  0.00    +0.000 A 
ATOM     21 CL   UNL     1      44.624   2.302   9.374  0.00  0.00    +0.000 Cl
ATOM     22  C   UNL     1      45.320   3.301  11.784  0.00  0.00    +0.000 A 
ATOM     23  C   UNL     1      45.138   4.097  12.918  0.00  0.00    +0.000 A 
ATOM     24  C   UNL     1      44.021   4.939  12.929  0.00  0.00    +0.000 A 
ENDBRANCH  15  23
ENDBRANCH  14  15
ENDBRANCH   1  14
TORSDOF 6
ENDMDL
MODEL 7
REMARK VINA RESULT:    -6.320      3.745      4.695
REMARK INTER + INTRA:          -8.975
REMARK INTER:                  -8.361
REMARK INTRA:                  -0.614
REMARK UNBOUND:                -0.438
REMARK  Name = 
REMARK  6 active torsions:
REMARK  status: ('A' for Active; 'I' for Inactive)
REMARK    1  A    between atoms: C_7  and  N_8
REMARK    2  A    between atoms: N_8  and  C_9
REMARK    3  A    between atoms: C_9  and  C_10
REMARK    4  A    between atoms: C_10  and  C_11
REMARK    5  A    between atoms: C_15  and  N_16
REMARK    6  A    between atoms: N_16  and  C_17
REMARK                            x       y       z     vdW  Elec       q    Type
REMARK                         _______ _______ _______ _____ _____    ______ ____
ROOT
ATOM      1  C   UNL     1      48.517   6.433  13.163  0.00  0.00    +0.000 C 
ENDROOT
BRANCH   1   2
ATOM      2  C   UNL     1      47.209   6.976  12.613  0.00  0.00    +0.000 A 
ATOM      3  C   UNL     1      46.841   8.326  12.710  0.00  0.00    +0.000 A 
ATOM      4  C   UNL     1      45.641   8.777  12.165  0.00  0.00    +0.000 A 
ATOM      5  C   UNL     1      44.786   7.885  11.524  0.00  0.00    +0.000 A 
ATOM      6  C   UNL     1      45.100   6.525  11.439  0.00  0.00    +0.000 A 
ATOM      7  C   UNL     1      46.326   6.088  11.964  0.00  0.00    +0.000 A 
BRANCH   6   8
ATOM      8  N   UNL     1      44.215   5.668  10.746  0.00  0.00    +0.000 N 
ATOM      9  H   UNL     1      43.851   6.122   9.910  0.00  0.00    +0.000 HD
BRANCH   8  10
ATOM     10  C   UNL     1      43.240   4.807  11.368  0.00  0.00    +0.000 C 
ATOM     11  C   UNL     1      43.109   5.038  12.882  0.00  0.00    +0.000 C 
ATOM     12  O   UNL     1      43.391   3.643  13.159  0.00  0.00    +0.000 OA
ATOM     13  C   UNL     1      43.798   3.437  11.782  0.00  0.00    +0.000 C 
ENDBRANCH   8  10
ENDBRANCH   6   8
ENDBRANCH   1   2
BRANCH   1  14
ATOM     14  C   UNL     1      49.081   7.181  14.381  0.00  0.00    +0.000 C 
BRANCH  14  15
ATOM     15  N   UNL     1      48.273   6.955  15.585  0.00  0.00    +0.000 N 
ATOM     16  H   UNL     1      48.208   7.786  16.173  0.00  0.00    +0.000 HD
BRANCH  15  23
ATOM     17  O   UNL     1      46.724   2.864  17.381  0.00  0.00    +0.000 OA
ATOM     18  N   UNL     1      47.692   3.667  17.202  0.00  0.00    +0.000 N 
ATOM     19  C   UNL     1      48.945   3.363  17.679  0.00  0.00    +0.000 A 
ATOM     20  C   UNL     1      49.999   4.237  17.476  0.00  0.00    +0.000 A 
ATOM     21 CL   UNL     1      51.567   3.833  18.053  0.00  0.00    +0.000 Cl
ATOM     22  C   UNL     1      49.795   5.439  16.800  0.00  0.00    +0.000 A 
ATOM     23  C   UNL     1      48.525   5.795  16.337  0.00  0.00    +0.000 A 
ATOM     24  C   UNL     1      47.498   4.864  16.525  0.00  0.00    +0.000 A 
ENDBRANCH  15  23
ENDBRANCH  14  15
ENDBRANCH   1  14
TORSDOF 6
ENDMDL
MODEL 8
REMARK VINA RESULT:    -6.241      2.141      2.521
REMARK INTER + INTRA:          -8.868
REMARK INTER:                  -8.497
REMARK INTRA:                  -0.372
REMARK UNBOUND:                -0.438
REMARK  Name = 
REMARK  6 active torsions:
REMARK  status: ('A' for Active; 'I' for Inactive)
REMARK    1  A    between atoms: C_7  and  N_8
REMARK    2  A    between atoms: N_8  and  C_9
REMARK    3  A    between atoms: C_9  and  C_10
REMARK    4  A    between atoms: C_10  and  C_11
REMARK    5  A    between atoms: C_15  and  N_16
REMARK    6  A    between atoms: N_16  and  C_17
REMARK                            x       y       z     vdW  Elec       q    Type
REMARK                         _______ _______ _______ _____ _____    ______ ____
ROOT
ATOM      1  C   UNL     1      44.276   6.117  11.290  0.00  0.00    +0.000 C 
ENDROOT
BRANCH   1   2
ATOM      2  C   UNL     1      44.495   4.815  10.539  0.00  0.00    +0.000 A 
ATOM      3  C   UNL     1      43.900   3.604  10.919  0.00  0.00    +0.000 A 
ATOM      4  C   UNL     1      44.114   2.443  10.179  0.00  0.00    +0.000 A 
ATOM      5  C   UNL     1      44.933   2.473   9.053  0.00  0.00    +0.000 A 
ATOM      6  C   UNL     1      45.573   3.653   8.663  0.00  0.00    +0.000 A 
ATOM      7  C   UNL     1      45.326   4.822   9.399  0.00  0.00    +0.000 A 
BRANCH   6   8
ATOM      8  N   UNL     1      46.366   3.638   7.492  0.00  0.00    +0.000 N 
ATOM      9  H   UNL     1      46.260   4.508   6.973  0.00  0.00    +0.000 HD
BRANCH   8  10
ATOM     10  C   UNL     1      46.539   2.501   6.624  0.00  0.00    +0.000 C 
ATOM     11  C   UNL     1      47.765   1.647   6.985  0.00  0.00    +0.000 C 
ATOM     12  O   UNL     1      48.305   1.786   5.647  0.00  0.00    +0.000 OA
ATOM     13  C   UNL     1      47.328   2.813   5.344  0.00  0.00    +0.000 C 
ENDBRANCH   8  10
ENDBRANCH   6   8
ENDBRANCH   1   2
BRANCH   1  14
ATOM     14  C   UNL     1      45.346   6.461  12.339  0.00  0.00    +0.000 C 
BRANCH  14  15
ATOM     15  N   UNL     1      46.519   7.102  11.735  0.00  0.00    +0.000 N 
ATOM     16  H   UNL     1      46.842   6.616  10.899  0.00  0.00    +0.000 HD
BRANCH  15  23
ATOM     17  O   UNL     1      49.250   6.101  15.464  0.00  0.00    +0.000 OA
ATOM     18  N   UNL     1      48.997   6.873  14.488  0.00  0.00    +0.000 N 
ATOM     19  C   UNL     1      49.783   7.975  14.250  0.00  0.00    +0.000 A 
ATOM     20  C   UNL     1      49.508   8.810  13.180  0.00  0.00    +0.000 A 
ATOM     21 CL   UNL     1      50.516  10.170  12.877  0.00  0.00    +0.000 Cl
ATOM     22  C   UNL     1      48.423   8.549  12.346  0.00  0.00    +0.000 A 
ATOM     23  C   UNL     1      47.581   7.459  12.584  0.00  0.00    +0.000 A 
ATOM     24  C   UNL     1      47.920   6.617  13.648  0.00  0.00    +0.000 A 
ENDBRANCH  15  23
ENDBRANCH  14  15
ENDBRANCH   1  14
TORSDOF 6
ENDMDL
MODEL 9
REMARK VINA RESULT:    -6.154      3.587      8.065
REMARK INTER + INTRA:          -8.752
REMARK INTER:                  -8.294
REMARK INTRA:                  -0.458
REMARK UNBOUND:                -0.438
REMARK  Name = 
REMARK  6 active torsions:
REMARK  status: ('A' for Active; 'I' for Inactive)
REMARK    1  A    between atoms: C_7  and  N_8
REMARK    2  A    between atoms: N_8  and  C_9
REMARK    3  A    between atoms: C_9  and  C_10
REMARK    4  A    between atoms: C_10  and  C_11
REMARK    5  A    between atoms: C_15  and  N_16
REMARK    6  A    between atoms: N_16  and  C_17
REMARK                            x       y       z     vdW  Elec       q    Type
REMARK                         _______ _______ _______ _____ _____    ______ ____
ROOT
ATOM      1  C   UNL     1      45.203   4.711  11.516  0.00  0.00    +0.000 C 
ENDROOT
BRANCH   1   2
ATOM      2  C   UNL     1      45.555   6.106  12.004  0.00  0.00    +0.000 A 
ATOM      3  C   UNL     1      44.916   7.264  11.536  0.00  0.00    +0.000 A 
ATOM      4  C   UNL     1      45.259   8.518  12.036  0.00  0.00    +0.000 A 
ATOM      5  C   UNL     1      46.253   8.635  13.005  0.00  0.00    +0.000 A 
ATOM      6  C   UNL     1      46.937   7.509  13.470  0.00  0.00    +0.000 A 
ATOM      7  C   UNL     1      46.562   6.248  12.981  0.00  0.00    +0.000 A 
BRANCH   6   8
ATOM      8  N   UNL     1      47.913   7.679  14.480  0.00  0.00    +0.000 N 
ATOM      9  H   UNL     1      47.847   8.607  14.893  0.00  0.00    +0.000 HD
BRANCH   8  10
ATOM     10  C   UNL     1      49.273   7.209  14.404  0.00  0.00    +0.000 C 
ATOM     11  C   UNL     1      50.199   7.870  15.437  0.00  0.00    +0.000 C 
ATOM     12  O   UNL     1      51.103   8.320  14.396  0.00  0.00    +0.000 OA
ATOM     13  C   UNL     1      50.133   7.963  13.379  0.00  0.00    +0.000 C 
ENDBRANCH   8  10
ENDBRANCH   6   8
ENDBRANCH   1   2
BRANCH   1  14
ATOM     14  C   UNL     1      44.083   4.644  10.465  0.00  0.00    +0.000 C 
BRANCH  14  15
ATOM     15  N   UNL     1      43.921   3.291   9.923  0.00  0.00    +0.000 N 
ATOM     16  H   UNL     1      43.808   2.588  10.653  0.00  0.00    +0.000 HD
BRANCH  15  23
ATOM     17  O   UNL     1      46.799   4.386   6.332  0.00  0.00    +0.000 OA
ATOM     18  N   UNL     1      46.329   3.495   7.106  0.00  0.00    +0.000 N 
ATOM     19  C   UNL     1      46.743   2.188   6.996  0.00  0.00    +0.000 A 
ATOM     20  C   UNL     1      46.235   1.221   7.846  0.00  0.00    +0.000 A 
ATOM     21 CL   UNL     1      46.780  -0.404   7.716  0.00  0.00    +0.000 Cl
ATOM     22  C   UNL     1      45.287   1.562   8.811  0.00  0.00    +0.000 A 
ATOM     23  C   UNL     1      44.818   2.873   8.923  0.00  0.00    +0.000 A 
ATOM     24  C   UNL     1      45.389   3.826   8.074  0.00  0.00    +0.000 A 
ENDBRANCH  15  23
ENDBRANCH  14  15
ENDBRANCH   1  14
TORSDOF 6
ENDMDL
