MODEL 1
REMARK VINA RESULT:    -8.497      0.000      0.000
REMARK INTER + INTRA:         -12.293
REMARK INTER:                 -11.478
REMARK INTRA:                  -0.815
REMARK UNBOUND:                -0.815
REMARK  Name = 
REMARK  7 active torsions:
REMARK  status: ('A' for Active; 'I' for Inactive)
REMARK    1  A    between atoms: C_1  and  C_2
REMARK    2  A    between atoms: C_4  and  N_5
REMARK    3  A    between atoms: C_12  and  C_13
REMARK    4  A    between atoms: C_13  and  C_14
REMARK    5  A    between atoms: C_14  and  N_15
REMARK    6  A    between atoms: N_15  and  C_16
REMARK    7  A    between atoms: C_21  and  C_22
REMARK                            x       y       z     vdW  Elec       q    Type
REMARK                         _______ _______ _______ _____ _____    ______ ____
ROOT
ATOM      1  C   UNL     1      44.174   5.240  10.516  0.00  0.00    +0.000 C 
ENDROOT
BRANCH   1   2
ATOM      2  N   UNL     1      43.895   4.764   9.157  0.00  0.00    +0.000 N 
ATOM      3  H   UNL     1      43.966   5.498   8.453  0.00  0.00    +0.000 HD
BRANCH   2   4
ATOM      4  C   UNL     1      44.672   3.632   8.781  0.00  0.00    +0.000 A 
ATOM      5  C   UNL     1      44.478   2.362   9.358  0.00  0.00    +0.000 A 
ATOM      6  C   UNL     1      45.231   1.255   8.971  0.00  0.00    +0.000 A 
ATOM      7  C   UNL     1      46.168   1.382   7.959  0.00  0.00    +0.000 A 
ATOM      8  F   UNL     1      46.873   0.291   7.621  0.00  0.00    +0.000 F 
ATOM      9  C   UNL     1      46.357   2.605   7.317  0.00  0.00    +0.000 A 
ATOM     10  C   UNL     1      45.592   3.723   7.723  0.00  0.00    +0.000 A 
BRANCH   9  11
ATOM     11  C   UNL     1      47.348   2.764   6.217  0.00  0.00    +0.000 C 
ATOM     12  N   UNL     1      48.670   2.568   6.507  0.00  0.00    +0.000 N 
ATOM     13  O   UNL     1      46.996   3.067   5.085  0.00  0.00    +0.000 OA
ATOM     14  H   UNL     1      49.008   2.321   7.430  0.00  0.00    +0.000 HD
ATOM     15  H   UNL     1      49.345   2.680   5.762  0.00  0.00    +0.000 HD
ENDBRANCH   9  11
ENDBRANCH   2   4
ENDBRANCH   1   2
BRANCH   1  16
ATOM     16  C   UNL     1      45.559   5.863  10.768  0.00  0.00    +0.000 C 
BRANCH  16  23
ATOM     17  C   UNL     1      47.887   7.348  12.079  0.00  0.00    +0.000 C 
ATOM     18  C   UNL     1      47.194   6.187  12.741  0.00  0.00    +0.000 A 
ATOM     19  C   UNL     1      47.649   5.789  14.015  0.00  0.00    +0.000 A 
ATOM     20  C   UNL     1      47.062   4.697  14.647  0.00  0.00    +0.000 A 
ATOM     21  N   UNL     1      46.052   4.004  14.089  0.00  0.00    +0.000 NA
ATOM     22  C   UNL     1      45.617   4.412  12.877  0.00  0.00    +0.000 A 
ATOM     23  C   UNL     1      46.132   5.485  12.140  0.00  0.00    +0.000 A 
BRANCH  20  24
ATOM     24  N   UNL     1      47.517   4.258  15.912  0.00  0.00    +0.000 N 
ATOM     25  C   UNL     1      47.903   3.007  16.311  0.00  0.00    +0.000 A 
ATOM     26  N   UNL     1      48.237   3.018  17.585  0.00  0.00    +0.000 NA
ATOM     27  N   UNL     1      48.082   4.304  18.041  0.00  0.00    +0.000 NA
ATOM     28  C   UNL     1      47.663   5.035  17.034  0.00  0.00    +0.000 A 
ENDBRANCH  20  24
ENDBRANCH  16  23
ENDBRANCH   1  16
TORSDOF 6
ENDMDL
MODEL 2
REMARK VINA RESULT:    -8.437      3.126      4.185
REMARK INTER + INTRA:         -12.212
REMARK INTER:                 -11.362
REMARK INTRA:                  -0.850
REMARK UNBOUND:                -0.815
REMARK  Name = 
REMARK  7 active torsions:
REMARK  status: ('A' for Active; 'I' for Inactive)
REMARK    1  A    between atoms: C_1  and  C_2
REMARK    2  A    between atoms: C_4  and  N_5
REMARK    3  A    between atoms: C_12  and  C_13
REMARK    4  A    between atoms: C_13  and  C_14
REMARK    5  A    between atoms: C_14  and  N_15
REMARK    6  A    between atoms: N_15  and  C_16
REMARK    7  A    between atoms: C_21  and  C_22
REMARK                            x       y       z     vdW  Elec       q    Type
REMARK                         _______ _______ _______ _____ _____    ______ ____
ROOT
ATOM      1  C   UNL     1      43.234   3.531  11.540  0.00  0.00    +0.000 C 
ENDROOT
BRANCH   1   2
ATOM      2  N   UNL     1      43.825   2.364  10.874  0.00  0.00    +0.000 N 
ATOM      3  H   UNL     1      43.142   1.637  10.660  0.00  0.00    +0.000 HD
BRANCH   2   4
ATOM      4  C   UNL     1      44.586   2.695   9.718  0.00  0.00    +0.000 A 
ATOM      5  C   UNL     1      44.628   4.001   9.195  0.00  0.00    +0.000 A 
ATOM      6  C   UNL     1      45.390   4.321   8.072  0.00  0.00    +0.000 A 
ATOM      7  C   UNL     1      46.170   3.346   7.472  0.00  0.00    +0.000 A 
ATOM      8  F   UNL     1      46.886   3.697   6.393  0.00  0.00    +0.000 F 
ATOM      9  C   UNL     1      46.207   2.052   7.988  0.00  0.00    +0.000 A 
ATOM     10  C   UNL     1      45.424   1.738   9.122  0.00  0.00    +0.000 A 
BRANCH   9  11
ATOM     11  C   UNL     1      47.048   0.989   7.369  0.00  0.00    +0.000 C 
ATOM     12  N   UNL     1      46.728  -0.316   7.623  0.00  0.00    +0.000 N 
ATOM     13  O   UNL     1      48.001   1.270   6.657  0.00  0.00    +0.000 OA
ATOM     14  H   UNL     1      45.951  -0.596   8.211  0.00  0.00    +0.000 HD
ATOM     15  H   UNL     1      47.300  -1.038   7.208  0.00  0.00    +0.000 HD
ENDBRANCH   9  11
ENDBRANCH   2   4
ENDBRANCH   1   2
BRANCH   1  16
ATOM     16  C   UNL     1      43.872   3.974  12.869  0.00  0.00    +0.000 C 
BRANCH  16  23
ATOM     17  C   UNL     1      46.831   3.725  13.593  0.00  0.00    +0.000 C 
ATOM     18  C   UNL     1      46.246   4.982  13.007  0.00  0.00    +0.000 A 
ATOM     19  C   UNL     1      47.114   6.072  12.787  0.00  0.00    +0.000 A 
ATOM     20  C   UNL     1      46.609   7.266  12.281  0.00  0.00    +0.000 A 
ATOM     21  N   UNL     1      45.307   7.419  11.975  0.00  0.00    +0.000 NA
ATOM     22  C   UNL     1      44.495   6.358  12.174  0.00  0.00    +0.000 A 
ATOM     23  C   UNL     1      44.882   5.114  12.684  0.00  0.00    +0.000 A 
BRANCH  20  24
ATOM     24  N   UNL     1      47.451   8.383  12.078  0.00  0.00    +0.000 N 
ATOM     25  C   UNL     1      47.151   9.717  12.128  0.00  0.00    +0.000 A 
ATOM     26  N   UNL     1      48.221  10.435  11.854  0.00  0.00    +0.000 NA
ATOM     27  N   UNL     1      49.257   9.563  11.629  0.00  0.00    +0.000 NA
ATOM     28  C   UNL     1      48.789   8.344  11.775  0.00  0.00    +0.000 A 
ENDBRANCH  20  24
ENDBRANCH  16  23
ENDBRANCH   1  16
TORSDOF 6
ENDMDL
MODEL 3
REMARK VINA RESULT:    -7.980      2.368      3.189
REMARK INTER + INTRA:         -11.595
REMARK INTER:                 -10.939
REMARK INTRA:                  -0.656
REMARK UNBOUND:                -0.815
REMARK  Name = 
REMARK  7 active torsions:
REMARK  status: ('A' for Active; 'I' for Inactive)
REMARK    1  A    between atoms: C_1  and  C_2
REMARK    2  A    between atoms: C_4  and  N_5
REMARK    3  A    between atoms: C_12  and  C_13
REMARK    4  A    between atoms: C_13  and  C_14
REMARK    5  A    between atoms: C_14  and  N_15
REMARK    6  A    between atoms: N_15  and  C_16
REMARK    7  A    between atoms: C_21  and  C_22
REMARK                            x       y       z     vdW  Elec       q    Type
REMARK                         _______ _______ _______ _____ _____    ______ ____
ROOT
ATOM      1  C   UNL     1      44.380   2.809  12.149  0.00  0.00    +0.000 C 
ENDROOT
BRANCH   1   2
ATOM      2  N   UNL     1      43.765   2.393  10.883  0.00  0.00    +0.000 N 
ATOM      3  H   UNL     1      42.794   2.691  10.793  0.00  0.00    +0.000 HD
BRANCH   2   4
ATOM      4  C   UNL     1      44.516   2.772   9.735  0.00  0.00    +0.000 A 
ATOM      5  C   UNL     1      44.495   4.083   9.223  0.00  0.00    +0.000 A 
ATOM      6  C   UNL     1      45.248   4.451   8.109  0.00  0.00    +0.000 A 
ATOM      7  C   UNL     1      46.082   3.523   7.507  0.00  0.00    +0.000 A 
ATOM      8  F   UNL     1      46.786   3.919   6.436  0.00  0.00    +0.000 F 
ATOM      9  C   UNL     1      46.181   2.227   8.013  0.00  0.00    +0.000 A 
ATOM     10  C   UNL     1      45.407   1.864   9.139  0.00  0.00    +0.000 A 
BRANCH   9  11
ATOM     11  C   UNL     1      47.080   1.214   7.393  0.00  0.00    +0.000 C 
ATOM     12  N   UNL     1      48.260   1.644   6.852  0.00  0.00    +0.000 N 
ATOM     13  O   UNL     1      46.774   0.030   7.361  0.00  0.00    +0.000 OA
ATOM     14  H   UNL     1      48.552   2.614   6.851  0.00  0.00    +0.000 HD
ATOM     15  H   UNL     1      48.869   0.958   6.427  0.00  0.00    +0.000 HD
ENDBRANCH   9  11
ENDBRANCH   2   4
ENDBRANCH   1   2
BRANCH   1  16
ATOM     16  C   UNL     1      44.088   4.242  12.629  0.00  0.00    +0.000 C 
BRANCH  16  23
ATOM     17  C   UNL     1      44.632   7.024  11.486  0.00  0.00    +0.000 C 
ATOM     18  C   UNL     1      45.601   6.324  12.401  0.00  0.00    +0.000 A 
ATOM     19  C   UNL     1      46.795   6.995  12.734  0.00  0.00    +0.000 A 
ATOM     20  C   UNL     1      47.736   6.369  13.546  0.00  0.00    +0.000 A 
ATOM     21  N   UNL     1      47.541   5.135  14.046  0.00  0.00    +0.000 NA
ATOM     22  C   UNL     1      46.383   4.515  13.732  0.00  0.00    +0.000 A 
ATOM     23  C   UNL     1      45.368   5.036  12.920  0.00  0.00    +0.000 A 
BRANCH  20  24
ATOM     24  N   UNL     1      48.954   7.008  13.873  0.00  0.00    +0.000 N 
ATOM     25  C   UNL     1      49.615   7.058  15.070  0.00  0.00    +0.000 A 
ATOM     26  N   UNL     1      50.711   7.780  14.954  0.00  0.00    +0.000 NA
ATOM     27  N   UNL     1      50.789   8.208  13.652  0.00  0.00    +0.000 NA
ATOM     28  C   UNL     1      49.743   7.734  13.015  0.00  0.00    +0.000 A 
ENDBRANCH  20  24
ENDBRANCH  16  23
ENDBRANCH   1  16
TORSDOF 6
ENDMDL
MODEL 4
REMARK VINA RESULT:    -7.639      3.621      8.243
REMARK INTER + INTRA:         -11.133
REMARK INTER:                 -10.618
REMARK INTRA:                  -0.515
REMARK UNBOUND:                -0.815
REMARK  Name = 
REMARK  7 active torsions:
REMARK  status: ('A' for Active; 'I' for Inactive)
REMARK    1  A    between atoms: C_1  and  C_2
REMARK    2  A    between atoms: C_4  and  N_5
REMARK    3  A    between atoms: C_12  and  C_13
REMARK    4  A    between atoms: C_13  and  C_14
REMARK    5  A    between atoms: C_14  and  N_15
REMARK    6  A    between atoms: N_15  and  C_16
REMARK    7  A    between atoms: C_21  and  C_22
REMARK                            x       y       z     vdW  Elec       q    Type
REMARK                         _______ _______ _______ _____ _____    ______ ____
ROOT
ATOM      1  C   UNL     1      44.935   5.950  12.692  0.00  0.00    +0.000 C 
ENDROOT
BRANCH   1   2
ATOM      2  N   UNL     1      46.344   5.580  12.516  0.00  0.00    +0.000 N 
ATOM      3  H   UNL     1      46.816   6.131  11.799  0.00  0.00    +0.000 HD
BRANCH   2   4
ATOM      4  C   UNL     1      47.089   5.591  13.729  0.00  0.00    +0.000 A 
ATOM      5  C   UNL     1      47.879   6.689  14.117  0.00  0.00    +0.000 A 
ATOM      6  C   UNL     1      48.591   6.699  15.315  0.00  0.00    +0.000 A 
ATOM      7  C   UNL     1      48.490   5.623  16.181  0.00  0.00    +0.000 A 
ATOM      8  F   UNL     1      49.195   5.673  17.323  0.00  0.00    +0.000 F 
ATOM      9  C   UNL     1      47.675   4.536  15.869  0.00  0.00    +0.000 A 
ATOM     10  C   UNL     1      46.963   4.534  14.648  0.00  0.00    +0.000 A 
BRANCH   9  11
ATOM     11  C   UNL     1      47.539   3.373  16.790  0.00  0.00    +0.000 C 
ATOM     12  N   UNL     1      48.618   2.550  16.953  0.00  0.00    +0.000 N 
ATOM     13  O   UNL     1      46.491   3.152  17.382  0.00  0.00    +0.000 OA
ATOM     14  H   UNL     1      49.503   2.690  16.479  0.00  0.00    +0.000 HD
ATOM     15  H   UNL     1      48.526   1.757  17.574  0.00  0.00    +0.000 HD
ENDBRANCH   9  11
ENDBRANCH   2   4
ENDBRANCH   1   2
BRANCH   1  16
ATOM     16  C   UNL     1      43.983   5.653  11.519  0.00  0.00    +0.000 C 
BRANCH  16  23
ATOM     17  C   UNL     1      43.649   2.627  11.247  0.00  0.00    +0.000 C 
ATOM     18  C   UNL     1      44.480   3.437  10.288  0.00  0.00    +0.000 A 
ATOM     19  C   UNL     1      45.115   2.756   9.229  0.00  0.00    +0.000 A 
ATOM     20  C   UNL     1      45.923   3.460   8.342  0.00  0.00    +0.000 A 
ATOM     21  N   UNL     1      46.113   4.788   8.446  0.00  0.00    +0.000 NA
ATOM     22  C   UNL     1      45.481   5.426   9.455  0.00  0.00    +0.000 A 
ATOM     23  C   UNL     1      44.654   4.828  10.413  0.00  0.00    +0.000 A 
BRANCH  20  24
ATOM     24  N   UNL     1      46.595   2.797   7.288  0.00  0.00    +0.000 N 
ATOM     25  C   UNL     1      47.261   1.603   7.298  0.00  0.00    +0.000 A 
ATOM     26  N   UNL     1      47.769   1.355   6.109  0.00  0.00    +0.000 NA
ATOM     27  N   UNL     1      47.423   2.398   5.286  0.00  0.00    +0.000 NA
ATOM     28  C   UNL     1      46.716   3.246   5.997  0.00  0.00    +0.000 A 
ENDBRANCH  20  24
ENDBRANCH  16  23
ENDBRANCH   1  16
TORSDOF 6
ENDMDL
MODEL 5
REMARK VINA RESULT:    -6.992      2.817      3.570
REMARK INTER + INTRA:         -10.259
REMARK INTER:                  -9.658
REMARK INTRA:                  -0.601
REMARK UNBOUND:                -0.815
REMARK  Name = 
REMARK  7 active torsions:
REMARK  status: ('A' for Active; 'I' for Inactive)
REMARK    1  A    between atoms: C_1  and  C_2
REMARK    2  A    between atoms: C_4  and  N_5
REMARK    3  A    between atoms: C_12  and  C_13
REMARK    4  A    between atoms: C_13  and  C_14
REMARK    5  A    between atoms: C_14  and  N_15
REMARK    6  A    between atoms: N_15  and  C_16
REMARK    7  A    between atoms: C_21  and  C_22
REMARK                            x       y       z     vdW  Elec       q    Type
REMARK                         _______ _______ _______ _____ _____    ______ ____
ROOT
ATOM      1  C   UNL     1      44.391   5.534  11.237  0.00  0.00    +0.000 C 
ENDROOT
BRANCH   1   2
ATOM      2  N   UNL     1      44.774   5.502   9.821  0.00  0.00    +0.000 N 
ATOM      3  H   UNL     1      45.504   6.175   9.589  0.00  0.00    +0.000 HD
BRANCH   2   4
ATOM      4  C   UNL     1      45.122   4.203   9.356  0.00  0.00    +0.000 A 
ATOM      5  C   UNL     1      44.492   3.039   9.836  0.00  0.00    +0.000 A 
ATOM      6  C   UNL     1      44.826   1.771   9.362  0.00  0.00    +0.000 A 
ATOM      7  C   UNL     1      45.770   1.642   8.357  0.00  0.00    +0.000 A 
ATOM      8  F   UNL     1      46.063   0.403   7.933  0.00  0.00    +0.000 F 
ATOM      9  C   UNL     1      46.380   2.769   7.809  0.00  0.00    +0.000 A 
ATOM     10  C   UNL     1      46.038   4.049   8.302  0.00  0.00    +0.000 A 
BRANCH   9  11
ATOM     11  C   UNL     1      47.389   2.657   6.718  0.00  0.00    +0.000 C 
ATOM     12  N   UNL     1      47.173   3.360   5.565  0.00  0.00    +0.000 N 
ATOM     13  O   UNL     1      48.382   1.954   6.843  0.00  0.00    +0.000 OA
ATOM     14  H   UNL     1      46.363   3.950   5.416  0.00  0.00    +0.000 HD
ATOM     15  H   UNL     1      47.854   3.282   4.822  0.00  0.00    +0.000 HD
ENDBRANCH   9  11
ENDBRANCH   2   4
ENDBRANCH   1   2
BRANCH   1  16
ATOM     16  C   UNL     1      44.520   6.883  11.967  0.00  0.00    +0.000 C 
BRANCH  16  23
ATOM     17  C   UNL     1      45.514   9.772  12.051  0.00  0.00    +0.000 C 
ATOM     18  C   UNL     1      46.423   8.598  12.296  0.00  0.00    +0.000 A 
ATOM     19  C   UNL     1      47.779   8.863  12.578  0.00  0.00    +0.000 A 
ATOM     20  C   UNL     1      48.663   7.807  12.774  0.00  0.00    +0.000 A 
ATOM     21  N   UNL     1      48.266   6.522  12.719  0.00  0.00    +0.000 NA
ATOM     22  C   UNL     1      46.960   6.288  12.467  0.00  0.00    +0.000 A 
ATOM     23  C   UNL     1      45.980   7.263  12.244  0.00  0.00    +0.000 A 
BRANCH  20  24
ATOM     24  N   UNL     1      50.034   8.043  13.030  0.00  0.00    +0.000 N 
ATOM     25  C   UNL     1      50.710   8.031  14.219  0.00  0.00    +0.000 A 
ATOM     26  N   UNL     1      51.978   8.327  14.024  0.00  0.00    +0.000 NA
ATOM     27  N   UNL     1      52.154   8.527  12.677  0.00  0.00    +0.000 NA
ATOM     28  C   UNL     1      50.991   8.345  12.094  0.00  0.00    +0.000 A 
ENDBRANCH  20  24
ENDBRANCH  16  23
ENDBRANCH   1  16
TORSDOF 6
ENDMDL
MODEL 6
REMARK VINA RESULT:    -6.954      3.526      5.693
REMARK INTER + INTRA:         -10.208
REMARK INTER:                  -9.701
REMARK INTRA:                  -0.506
REMARK UNBOUND:                -0.815
REMARK  Name = 
REMARK  7 active torsions:
REMARK  status: ('A' for Active; 'I' for Inactive)
REMARK    1  A    between atoms: C_1  and  C_2
REMARK    2  A    between atoms: C_4  and  N_5
REMARK    3  A    between atoms: C_12  and  C_13
REMARK    4  A    between atoms: C_13  and  C_14
REMARK    5  A    between atoms: C_14  and  N_15
REMARK    6  A    between atoms: N_15  and  C_16
REMARK    7  A    between atoms: C_21  and  C_22
REMARK                            x       y       z     vdW  Elec       q    Type
REMARK                         _______ _______ _______ _____ _____    ______ ____
ROOT
ATOM      1  C   UNL     1      47.095   4.139  14.864  0.00  0.00    +0.000 C 
ENDROOT
BRANCH   1   2
ATOM      2  N   UNL     1      46.455   5.363  14.370  0.00  0.00    +0.000 N 
ATOM      3  H   UNL     1      47.020   6.199  14.522  0.00  0.00    +0.000 HD
BRANCH   2   4
ATOM      4  C   UNL     1      46.040   5.278  13.011  0.00  0.00    +0.000 A 
ATOM      5  C   UNL     1      46.453   6.209  12.039  0.00  0.00    +0.000 A 
ATOM      6  C   UNL     1      46.056   6.108  10.707  0.00  0.00    +0.000 A 
ATOM      7  C   UNL     1      45.272   5.040  10.304  0.00  0.00    +0.000 A 
ATOM      8  F   UNL     1      44.911   4.984   9.012  0.00  0.00    +0.000 F 
ATOM      9  C   UNL     1      44.885   4.060  11.217  0.00  0.00    +0.000 A 
ATOM     10  C   UNL     1      45.288   4.178  12.567  0.00  0.00    +0.000 A 
BRANCH   9  11
ATOM     11  C   UNL     1      44.053   2.895  10.806  0.00  0.00    +0.000 C 
ATOM     12  N   UNL     1      44.546   2.058   9.845  0.00  0.00    +0.000 N 
ATOM     13  O   UNL     1      42.956   2.691  11.308  0.00  0.00    +0.000 OA
ATOM     14  H   UNL     1      45.446   2.191   9.398  0.00  0.00    +0.000 HD
ATOM     15  H   UNL     1      43.981   1.269   9.561  0.00  0.00    +0.000 HD
ENDBRANCH   9  11
ENDBRANCH   2   4
ENDBRANCH   1   2
BRANCH   1  16
ATOM     16  C   UNL     1      47.226   3.985  16.390  0.00  0.00    +0.000 C 
BRANCH  16  23
ATOM     17  C   UNL     1      49.170   5.718  17.991  0.00  0.00    +0.000 C 
ATOM     18  C   UNL     1      49.502   4.313  17.566  0.00  0.00    +0.000 A 
ATOM     19  C   UNL     1      50.761   3.793  17.935  0.00  0.00    +0.000 A 
ATOM     20  C   UNL     1      51.124   2.513  17.531  0.00  0.00    +0.000 A 
ATOM     21  N   UNL     1      50.304   1.732  16.804  0.00  0.00    +0.000 NA
ATOM     22  C   UNL     1      49.095   2.238  16.477  0.00  0.00    +0.000 A 
ATOM     23  C   UNL     1      48.621   3.511  16.815  0.00  0.00    +0.000 A 
BRANCH  20  24
ATOM     24  N   UNL     1      52.391   1.978  17.862  0.00  0.00    +0.000 N 
ATOM     25  C   UNL     1      53.420   2.551  18.558  0.00  0.00    +0.000 A 
ATOM     26  N   UNL     1      54.440   1.720  18.626  0.00  0.00    +0.000 NA
ATOM     27  N   UNL     1      54.079   0.567  17.974  0.00  0.00    +0.000 NA
ATOM     28  C   UNL     1      52.853   0.729  17.532  0.00  0.00    +0.000 A 
ENDBRANCH  20  24
ENDBRANCH  16  23
ENDBRANCH   1  16
TORSDOF 6
ENDMDL
MODEL 7
REMARK VINA RESULT:    -6.814      2.321      3.161
REMARK INTER + INTRA:         -10.020
REMARK INTER:                  -9.123
REMARK INTRA:                  -0.897
REMARK UNBOUND:                -0.815
REMARK  Name = 
REMARK  7 active torsions:
REMARK  status: ('A' for Active; 'I' for Inactive)
REMARK    1  A    between atoms: C_1  and  C_2
REMARK    2  A    between atoms: C_4  and  N_5
REMARK    3  A    between atoms: C_12  and  C_13
REMARK    4  A    between atoms: C_13  and  C_14
REMARK    5  A    between atoms: C_14  and  N_15
REMARK    6  A    between atoms: N_15  and  C_16
REMARK    7  A    between atoms: C_21  and  C_22
REMARK                            x       y       z     vdW  Elec       q    Type
REMARK                         _______ _______ _______ _____ _____    ______ ____
ROOT
ATOM      1  C   UNL     1      45.676   7.740  12.072  0.00  0.00    +0.000 C 
ENDROOT
BRANCH   1   2
ATOM      2  N   UNL     1      44.536   7.385  11.219  0.00  0.00    +0.000 N 
ATOM      3  H   UNL     1      44.651   7.687  10.251  0.00  0.00    +0.000 HD
BRANCH   2   4
ATOM      4  C   UNL     1      44.191   6.006  11.277  0.00  0.00    +0.000 A 
ATOM      5  C   UNL     1      43.419   5.467  12.325  0.00  0.00    +0.000 A 
ATOM      6  C   UNL     1      43.070   4.118  12.365  0.00  0.00    +0.000 A 
ATOM      7  C   UNL     1      43.447   3.281  11.328  0.00  0.00    +0.000 A 
ATOM      8  F   UNL     1      43.092   1.990  11.409  0.00  0.00    +0.000 F 
ATOM      9  C   UNL     1      44.162   3.779  10.239  0.00  0.00    +0.000 A 
ATOM     10  C   UNL     1      44.517   5.147  10.213  0.00  0.00    +0.000 A 
BRANCH   9  11
ATOM     11  C   UNL     1      44.568   2.902   9.105  0.00  0.00    +0.000 C 
ATOM     12  N   UNL     1      44.293   3.324   7.834  0.00  0.00    +0.000 N 
ATOM     13  O   UNL     1      45.127   1.832   9.300  0.00  0.00    +0.000 OA
ATOM     14  H   UNL     1      43.827   4.199   7.625  0.00  0.00    +0.000 HD
ATOM     15  H   UNL     1      44.563   2.728   7.063  0.00  0.00    +0.000 HD
ENDBRANCH   9  11
ENDBRANCH   2   4
ENDBRANCH   1   2
BRANCH   1  16
ATOM     16  C   UNL     1      46.916   6.832  11.995  0.00  0.00    +0.000 C 
BRANCH  16  23
ATOM     17  C   UNL     1      48.870   8.088  13.982  0.00  0.00    +0.000 C 
ATOM     18  C   UNL     1      48.155   6.793  14.261  0.00  0.00    +0.000 A 
ATOM     19  C   UNL     1      48.406   6.155  15.494  0.00  0.00    +0.000 A 
ATOM     20  C   UNL     1      47.795   4.937  15.777  0.00  0.00    +0.000 A 
ATOM     21  N   UNL     1      46.949   4.343  14.915  0.00  0.00    +0.000 NA
ATOM     22  C   UNL     1      46.706   4.979  13.749  0.00  0.00    +0.000 A 
ATOM     23  C   UNL     1      47.265   6.197  13.347  0.00  0.00    +0.000 A 
BRANCH  20  24
ATOM     24  N   UNL     1      48.051   4.261  16.992  0.00  0.00    +0.000 N 
ATOM     25  C   UNL     1      47.626   3.028  17.407  0.00  0.00    +0.000 A 
ATOM     26  N   UNL     1      48.070   2.779  18.621  0.00  0.00    +0.000 NA
ATOM     27  N   UNL     1      48.816   3.860  19.019  0.00  0.00    +0.000 NA
ATOM     28  C   UNL     1      48.806   4.732  18.037  0.00  0.00    +0.000 A 
ENDBRANCH  20  24
ENDBRANCH  16  23
ENDBRANCH   1  16
TORSDOF 6
ENDMDL
MODEL 8
REMARK VINA RESULT:    -6.798      4.106      8.034
REMARK INTER + INTRA:          -9.997
REMARK INTER:                  -8.954
REMARK INTRA:                  -1.044
REMARK UNBOUND:                -0.815
REMARK  Name = 
REMARK  7 active torsions:
REMARK  status: ('A' for Active; 'I' for Inactive)
REMARK    1  A    between atoms: C_1  and  C_2
REMARK    2  A    between atoms: C_4  and  N_5
REMARK    3  A    between atoms: C_12  and  C_13
REMARK    4  A    between atoms: C_13  and  C_14
REMARK    5  A    between atoms: C_14  and  N_15
REMARK    6  A    between atoms: N_15  and  C_16
REMARK    7  A    between atoms: C_21  and  C_22
REMARK                            x       y       z     vdW  Elec       q    Type
REMARK                         _______ _______ _______ _____ _____    ______ ____
ROOT
ATOM      1  C   UNL     1      49.177   7.931  15.834  0.00  0.00    +0.000 C 
ENDROOT
BRANCH   1   2
ATOM      2  N   UNL     1      49.703   7.285  17.041  0.00  0.00    +0.000 N 
ATOM      3  H   UNL     1      49.694   7.895  17.858  0.00  0.00    +0.000 HD
BRANCH   2   4
ATOM      4  C   UNL     1      49.078   6.041  17.337  0.00  0.00    +0.000 A 
ATOM      5  C   UNL     1      47.755   5.958  17.810  0.00  0.00    +0.000 A 
ATOM      6  C   UNL     1      47.144   4.734  18.080  0.00  0.00    +0.000 A 
ATOM      7  C   UNL     1      47.831   3.556  17.836  0.00  0.00    +0.000 A 
ATOM      8  F   UNL     1      47.207   2.401  18.113  0.00  0.00    +0.000 F 
ATOM      9  C   UNL     1      49.123   3.585  17.313  0.00  0.00    +0.000 A 
ATOM     10  C   UNL     1      49.735   4.832  17.050  0.00  0.00    +0.000 A 
BRANCH   9  11
ATOM     11  C   UNL     1      49.878   2.332  17.029  0.00  0.00    +0.000 C 
ATOM     12  N   UNL     1      50.799   1.912  17.948  0.00  0.00    +0.000 N 
ATOM     13  O   UNL     1      49.687   1.696  16.002  0.00  0.00    +0.000 OA
ATOM     14  H   UNL     1      50.994   2.409  18.810  0.00  0.00    +0.000 HD
ATOM     15  H   UNL     1      51.315   1.064  17.755  0.00  0.00    +0.000 HD
ENDBRANCH   9  11
ENDBRANCH   2   4
ENDBRANCH   1   2
BRANCH   1  16
ATOM     16  C   UNL     1      49.620   7.348  14.480  0.00  0.00    +0.000 C 
BRANCH  16  23
ATOM     17  C   UNL     1      48.935   8.388  11.688  0.00  0.00    +0.000 C 
ATOM     18  C   UNL     1      48.144   7.299  12.361  0.00  0.00    +0.000 A 
ATOM     19  C   UNL     1      47.052   6.747  11.658  0.00  0.00    +0.000 A 
ATOM     20  C   UNL     1      46.270   5.764  12.257  0.00  0.00    +0.000 A 
ATOM     21  N   UNL     1      46.527   5.301  13.494  0.00  0.00    +0.000 NA
ATOM     22  C   UNL     1      47.588   5.827  14.144  0.00  0.00    +0.000 A 
ATOM     23  C   UNL     1      48.440   6.823  13.653  0.00  0.00    +0.000 A 
BRANCH  20  24
ATOM     24  N   UNL     1      45.153   5.215  11.586  0.00  0.00    +0.000 N 
ATOM     25  C   UNL     1      43.946   4.816  12.092  0.00  0.00    +0.000 A 
ATOM     26  N   UNL     1      43.186   4.335  11.130  0.00  0.00    +0.000 NA
ATOM     27  N   UNL     1      43.895   4.428   9.958  0.00  0.00    +0.000 NA
ATOM     28  C   UNL     1      45.061   4.962  10.241  0.00  0.00    +0.000 A 
ENDBRANCH  20  24
ENDBRANCH  16  23
ENDBRANCH   1  16
TORSDOF 6
ENDMDL
