MODEL 1
REMARK VINA RESULT:    -6.829      0.000      0.000
REMARK INTER + INTRA:         -11.321
REMARK INTER:                 -10.023
REMARK INTRA:                  -1.299
REMARK UNBOUND:                -1.299
REMARK  Name = 
REMARK  9 active torsions:
REMARK  status: ('A' for Active; 'I' for Inactive)
REMARK    1  A    between atoms: C_1  and  O_2
REMARK    2  A    between atoms: O_2  and  C_3
REMARK    3  A    between atoms: C_3  and  C_4
REMARK    4  A    between atoms: C_4  and  O_5
REMARK    5  A    between atoms: O_5  and  C_6
REMARK    6  A    between atoms: C_8  and  O_9
REMARK    7  A    between atoms: O_9  and  C_10
REMARK    8  A    between atoms: C_10  and  C_11
REMARK    9  A    between atoms: C_19  and  C_20
REMARK                            x       y       z     vdW  Elec       q    Type
REMARK                         _______ _______ _______ _____ _____    ______ ____
ROOT
ATOM      1  C   UNL     1      46.368   5.556  12.645  0.00  0.00    +0.000 A 
ATOM      2  C   UNL     1      45.686   5.555  11.423  0.00  0.00    +0.000 A 
ATOM      3  C   UNL     1      45.100   4.381  10.979  0.00  0.00    +0.000 A 
ATOM      4  N   UNL     1      45.166   3.216  11.648  0.00  0.00    +0.000 NA
ATOM      5  C   UNL     1      45.844   3.230  12.822  0.00  0.00    +0.000 A 
ATOM      6  C   UNL     1      46.452   4.357  13.371  0.00  0.00    +0.000 A 
ENDROOT
BRANCH   6   7
ATOM      7  C   UNL     1      47.132   4.172  14.681  0.00  0.00    +0.000 C 
ATOM      8  N   UNL     1      47.161   5.218  15.556  0.00  0.00    +0.000 N 
ATOM      9  O   UNL     1      47.654   3.104  14.983  0.00  0.00    +0.000 OA
ATOM     10  H   UNL     1      46.738   6.109  15.332  0.00  0.00    +0.000 HD
ATOM     11  H   UNL     1      47.621   5.091  16.445  0.00  0.00    +0.000 HD
ENDBRANCH   6   7
BRANCH   1  12
ATOM     12  O   UNL     1      46.960   6.677  13.175  0.00  0.00    +0.000 OA
BRANCH  12  13
ATOM     13  C   UNL     1      47.840   7.412  12.322  0.00  0.00    +0.000 C 
BRANCH  13  14
ATOM     14  C   UNL     1      49.278   6.999  12.613  0.00  0.00    +0.000 C 
BRANCH  14  16
ATOM     15  C   UNL     1      49.852   7.888  14.716  0.00  0.00    +0.000 C 
ATOM     16  O   UNL     1      49.403   6.740  14.008  0.00  0.00    +0.000 OA
ENDBRANCH  14  16
ENDBRANCH  13  14
ENDBRANCH  12  13
ENDBRANCH   1  12
BRANCH   3  17
ATOM     17  O   UNL     1      44.459   4.437   9.759  0.00  0.00    +0.000 OA
BRANCH  17  18
ATOM     18  C   UNL     1      44.275   3.141   9.187  0.00  0.00    +0.000 C 
BRANCH  18  19
ATOM     19  C   UNL     1      45.448   2.784   8.309  0.00  0.00    +0.000 A 
ATOM     20  C   UNL     1      46.122   3.724   7.526  0.00  0.00    +0.000 A 
ATOM     21  C   UNL     1      47.241   3.340   6.790  0.00  0.00    +0.000 A 
ATOM     22  C   UNL     1      47.658   2.023   6.871  0.00  0.00    +0.000 A 
ATOM     23  N   UNL     1      47.044   1.087   7.625  0.00  0.00    +0.000 NA
ATOM     24  C   UNL     1      45.962   1.490   8.329  0.00  0.00    +0.000 A 
ENDBRANCH  18  19
ENDBRANCH  17  18
ENDBRANCH   3  17
TORSDOF 8
ENDMDL
MODEL 2
REMARK VINA RESULT:    -6.701      1.775      2.433
REMARK INTER + INTRA:         -11.133
REMARK INTER:                 -10.420
REMARK INTRA:                  -0.713
REMARK UNBOUND:                -1.299
REMARK  Name = 
REMARK  9 active torsions:
REMARK  status: ('A' for Active; 'I' for Inactive)
REMARK    1  A    between atoms: C_1  and  O_2
REMARK    2  A    between atoms: O_2  and  C_3
REMARK    3  A    between atoms: C_3  and  C_4
REMARK    4  A    between atoms: C_4  and  O_5
REMARK    5  A    between atoms: O_5  and  C_6
REMARK    6  A    between atoms: C_8  and  O_9
REMARK    7  A    between atoms: O_9  and  C_10
REMARK    8  A    between atoms: C_10  and  C_11
REMARK    9  A    between atoms: C_19  and  C_20
REMARK                            x       y       z     vdW  Elec       q    Type
REMARK                         _______ _______ _______ _____ _____    ______ ____
ROOT
ATOM      1  C   UNL     1      45.625   5.638  12.478  0.00  0.00    +0.000 A 
ATOM      2  C   UNL     1      44.941   5.288  11.308  0.00  0.00    +0.000 A 
ATOM      3  C   UNL     1      44.759   3.948  11.010  0.00  0.00    +0.000 A 
ATOM      4  N   UNL     1      45.226   2.945  11.773  0.00  0.00    +0.000 NA
ATOM      5  C   UNL     1      45.899   3.300  12.895  0.00  0.00    +0.000 A 
ATOM      6  C   UNL     1      46.121   4.614  13.301  0.00  0.00    +0.000 A 
ENDROOT
BRANCH   6   7
ATOM      7  C   UNL     1      46.867   4.798  14.575  0.00  0.00    +0.000 C 
ATOM      8  N   UNL     1      47.661   5.897  14.714  0.00  0.00    +0.000 N 
ATOM      9  O   UNL     1      46.772   3.988  15.491  0.00  0.00    +0.000 OA
ATOM     10  H   UNL     1      47.756   6.581  13.974  0.00  0.00    +0.000 HD
ATOM     11  H   UNL     1      48.165   6.023  15.580  0.00  0.00    +0.000 HD
ENDBRANCH   6   7
BRANCH   1  12
ATOM     12  O   UNL     1      45.833   6.940  12.867  0.00  0.00    +0.000 OA
BRANCH  12  13
ATOM     13  C   UNL     1      45.111   7.952  12.162  0.00  0.00    +0.000 C 
BRANCH  13  14
ATOM     14  C   UNL     1      45.604   9.322  12.611  0.00  0.00    +0.000 C 
BRANCH  14  16
ATOM     15  C   UNL     1      43.957   9.957  11.052  0.00  0.00    +0.000 C 
ATOM     16  O   UNL     1      44.622  10.294  12.263  0.00  0.00    +0.000 OA
ENDBRANCH  14  16
ENDBRANCH  13  14
ENDBRANCH  12  13
ENDBRANCH   1  12
BRANCH   3  17
ATOM     17  O   UNL     1      44.096   3.666   9.834  0.00  0.00    +0.000 OA
BRANCH  17  18
ATOM     18  C   UNL     1      44.767   4.206   8.693  0.00  0.00    +0.000 C 
BRANCH  18  19
ATOM     19  C   UNL     1      45.681   3.174   8.085  0.00  0.00    +0.000 A 
ATOM     20  C   UNL     1      46.683   3.497   7.166  0.00  0.00    +0.000 A 
ATOM     21  C   UNL     1      47.538   2.503   6.694  0.00  0.00    +0.000 A 
ATOM     22  C   UNL     1      47.370   1.214   7.168  0.00  0.00    +0.000 A 
ATOM     23  N   UNL     1      46.425   0.862   8.065  0.00  0.00    +0.000 NA
ATOM     24  C   UNL     1      45.610   1.848   8.505  0.00  0.00    +0.000 A 
ENDBRANCH  18  19
ENDBRANCH  17  18
ENDBRANCH   3  17
TORSDOF 8
ENDMDL
MODEL 3
REMARK VINA RESULT:    -6.651      1.595      2.775
REMARK INTER + INTRA:         -11.060
REMARK INTER:                 -10.375
REMARK INTRA:                  -0.685
REMARK UNBOUND:                -1.299
REMARK  Name = 
REMARK  9 active torsions:
REMARK  status: ('A' for Active; 'I' for Inactive)
REMARK    1  A    between atoms: C_1  and  O_2
REMARK    2  A    between atoms: O_2  and  C_3
REMARK    3  A    between atoms: C_3  and  C_4
REMARK    4  A    between atoms: C_4  and  O_5
REMARK    5  A    between atoms: O_5  and  C_6
REMARK    6  A    between atoms: C_8  and  O_9
REMARK    7  A    between atoms: O_9  and  C_10
REMARK    8  A    between atoms: C_10  and  C_11
REMARK    9  A    between atoms: C_19  and  C_20
REMARK                            x       y       z     vdW  Elec       q    Type
REMARK                         _______ _______ _______ _____ _____    ______ ____
ROOT
ATOM      1  C   UNL     1      45.959   4.905  13.178  0.00  0.00    +0.000 A 
ATOM      2  C   UNL     1      45.209   4.128  12.288  0.00  0.00    +0.000 A 
ATOM      3  C   UNL     1      45.089   4.537  10.971  0.00  0.00    +0.000 A 
ATOM      4  N   UNL     1      45.639   5.666  10.489  0.00  0.00    +0.000 NA
ATOM      5  C   UNL     1      46.350   6.416  11.367  0.00  0.00    +0.000 A 
ATOM      6  C   UNL     1      46.551   6.088  12.705  0.00  0.00    +0.000 A 
ENDROOT
BRANCH   6   7
ATOM      7  C   UNL     1      47.379   7.032  13.503  0.00  0.00    +0.000 C 
ATOM      8  N   UNL     1      46.817   8.203  13.919  0.00  0.00    +0.000 N 
ATOM      9  O   UNL     1      48.542   6.772  13.792  0.00  0.00    +0.000 OA
ATOM     10  H   UNL     1      45.860   8.441  13.694  0.00  0.00    +0.000 HD
ATOM     11  H   UNL     1      47.378   8.842  14.462  0.00  0.00    +0.000 HD
ENDBRANCH   6   7
BRANCH   1  12
ATOM     12  O   UNL     1      46.151   4.566  14.496  0.00  0.00    +0.000 OA
BRANCH  12  13
ATOM     13  C   UNL     1      47.208   3.648  14.782  0.00  0.00    +0.000 C 
BRANCH  13  14
ATOM     14  C   UNL     1      47.578   3.756  16.257  0.00  0.00    +0.000 C 
BRANCH  14  16
ATOM     15  C   UNL     1      49.425   3.578  17.707  0.00  0.00    +0.000 C 
ATOM     16  O   UNL     1      48.891   3.234  16.434  0.00  0.00    +0.000 OA
ENDBRANCH  14  16
ENDBRANCH  13  14
ENDBRANCH  12  13
ENDBRANCH   1  12
BRANCH   3  17
ATOM     17  O   UNL     1      44.321   3.742  10.147  0.00  0.00    +0.000 OA
BRANCH  17  18
ATOM     18  C   UNL     1      44.520   4.046   8.765  0.00  0.00    +0.000 C 
BRANCH  18  19
ATOM     19  C   UNL     1      45.504   3.082   8.152  0.00  0.00    +0.000 A 
ATOM     20  C   UNL     1      46.481   3.478   7.235  0.00  0.00    +0.000 A 
ATOM     21  C   UNL     1      47.403   2.548   6.759  0.00  0.00    +0.000 A 
ATOM     22  C   UNL     1      47.324   1.248   7.227  0.00  0.00    +0.000 A 
ATOM     23  N   UNL     1      46.406   0.828   8.122  0.00  0.00    +0.000 NA
ATOM     24  C   UNL     1      45.525   1.752   8.567  0.00  0.00    +0.000 A 
ENDBRANCH  18  19
ENDBRANCH  17  18
ENDBRANCH   3  17
TORSDOF 8
ENDMDL
MODEL 4
REMARK VINA RESULT:    -6.590      1.476      1.541
REMARK INTER + INTRA:         -10.970
REMARK INTER:                  -9.901
REMARK INTRA:                  -1.069
REMARK UNBOUND:                -1.299
REMARK  Name = 
REMARK  9 active torsions:
REMARK  status: ('A' for Active; 'I' for Inactive)
REMARK    1  A    between atoms: C_1  and  O_2
REMARK    2  A    between atoms: O_2  and  C_3
REMARK    3  A    between atoms: C_3  and  C_4
REMARK    4  A    between atoms: C_4  and  O_5
REMARK    5  A    between atoms: O_5  and  C_6
REMARK    6  A    between atoms: C_8  and  O_9
REMARK    7  A    between atoms: O_9  and  C_10
REMARK    8  A    between atoms: C_10  and  C_11
REMARK    9  A    between atoms: C_19  and  C_20
REMARK                            x       y       z     vdW  Elec       q    Type
REMARK                         _______ _______ _______ _____ _____    ______ ____
ROOT
ATOM      1  C   UNL     1      45.996   5.685  11.900  0.00  0.00    +0.000 A 
ATOM      2  C   UNL     1      45.364   5.283  10.718  0.00  0.00    +0.000 A 
ATOM      3  C   UNL     1      44.876   3.990  10.620  0.00  0.00    +0.000 A 
ATOM      4  N   UNL     1      44.995   3.074  11.597  0.00  0.00    +0.000 NA
ATOM      5  C   UNL     1      45.623   3.474  12.730  0.00  0.00    +0.000 A 
ATOM      6  C   UNL     1      46.131   4.753  12.942  0.00  0.00    +0.000 A 
ENDROOT
BRANCH   6   7
ATOM      7  C   UNL     1      46.771   5.002  14.262  0.00  0.00    +0.000 C 
ATOM      8  N   UNL     1      47.525   6.127  14.421  0.00  0.00    +0.000 N 
ATOM      9  O   UNL     1      46.625   4.223  15.198  0.00  0.00    +0.000 OA
ATOM     10  H   UNL     1      47.660   6.786  13.665  0.00  0.00    +0.000 HD
ATOM     11  H   UNL     1      47.956   6.297  15.317  0.00  0.00    +0.000 HD
ENDBRANCH   6   7
BRANCH   1  12
ATOM     12  O   UNL     1      46.490   6.952  12.095  0.00  0.00    +0.000 OA
BRANCH  12  13
ATOM     13  C   UNL     1      45.542   8.022  12.120  0.00  0.00    +0.000 C 
BRANCH  13  14
ATOM     14  C   UNL     1      46.258   9.315  12.490  0.00  0.00    +0.000 C 
BRANCH  14  16
ATOM     15  C   UNL     1      48.327  10.011  13.375  0.00  0.00    +0.000 C 
ATOM     16  O   UNL     1      47.320   9.006  13.388  0.00  0.00    +0.000 OA
ENDBRANCH  14  16
ENDBRANCH  13  14
ENDBRANCH  12  13
ENDBRANCH   1  12
BRANCH   3  17
ATOM     17  O   UNL     1      44.282   3.647   9.424  0.00  0.00    +0.000 OA
BRANCH  17  18
ATOM     18  C   UNL     1      44.590   2.307   9.033  0.00  0.00    +0.000 C 
BRANCH  18  19
ATOM     19  C   UNL     1      45.695   2.301   8.009  0.00  0.00    +0.000 A 
ATOM     20  C   UNL     1      45.962   3.390   7.175  0.00  0.00    +0.000 A 
ATOM     21  C   UNL     1      47.042   3.344   6.297  0.00  0.00    +0.000 A 
ATOM     22  C   UNL     1      47.832   2.208   6.288  0.00  0.00    +0.000 A 
ATOM     23  N   UNL     1      47.618   1.140   7.085  0.00  0.00    +0.000 NA
ATOM     24  C   UNL     1      46.563   1.214   7.928  0.00  0.00    +0.000 A 
ENDBRANCH  18  19
ENDBRANCH  17  18
ENDBRANCH   3  17
TORSDOF 8
ENDMDL
MODEL 5
REMARK VINA RESULT:    -5.824      3.160      6.421
REMARK INTER + INTRA:          -9.847
REMARK INTER:                  -8.838
REMARK INTRA:                  -1.008
REMARK UNBOUND:                -1.299
REMARK  Name = 
REMARK  9 active torsions:
REMARK  status: ('A' for Active; 'I' for Inactive)
REMARK    1  A    between atoms: C_1  and  O_2
REMARK    2  A    between atoms: O_2  and  C_3
REMARK    3  A    between atoms: C_3  and  C_4
REMARK    4  A    between atoms: C_4  and  O_5
REMARK    5  A    between atoms: O_5  and  C_6
REMARK    6  A    between atoms: C_8  and  O_9
REMARK    7  A    between atoms: O_9  and  C_10
REMARK    8  A    between atoms: C_10  and  C_11
REMARK    9  A    between atoms: C_19  and  C_20
REMARK                            x       y       z     vdW  Elec       q    Type
REMARK                         _______ _______ _______ _____ _____    ______ ____
ROOT
ATOM      1  C   UNL     1      45.207   5.673  12.915  0.00  0.00    +0.000 A 
ATOM      2  C   UNL     1      46.225   5.106  13.690  0.00  0.00    +0.000 A 
ATOM      3  C   UNL     1      46.444   3.740  13.619  0.00  0.00    +0.000 A 
ATOM      4  N   UNL     1      45.713   2.907  12.858  0.00  0.00    +0.000 NA
ATOM      5  C   UNL     1      44.721   3.470  12.125  0.00  0.00    +0.000 A 
ATOM      6  C   UNL     1      44.428   4.831  12.105  0.00  0.00    +0.000 A 
ENDROOT
BRANCH   6   7
ATOM      7  C   UNL     1      43.310   5.256  11.220  0.00  0.00    +0.000 C 
ATOM      8  N   UNL     1      42.303   6.006  11.753  0.00  0.00    +0.000 N 
ATOM      9  O   UNL     1      43.287   4.951  10.032  0.00  0.00    +0.000 OA
ATOM     10  H   UNL     1      42.299   6.271  12.730  0.00  0.00    +0.000 HD
ATOM     11  H   UNL     1      41.547   6.296  11.152  0.00  0.00    +0.000 HD
ENDBRANCH   6   7
BRANCH   1  12
ATOM     12  O   UNL     1      44.932   7.020  12.904  0.00  0.00    +0.000 OA
BRANCH  12  13
ATOM     13  C   UNL     1      45.745   7.841  12.063  0.00  0.00    +0.000 C 
BRANCH  13  14
ATOM     14  C   UNL     1      46.368   8.951  12.900  0.00  0.00    +0.000 C 
BRANCH  14  16
ATOM     15  C   UNL     1      48.546   8.085  12.672  0.00  0.00    +0.000 C 
ATOM     16  O   UNL     1      47.504   8.425  13.579  0.00  0.00    +0.000 OA
ENDBRANCH  14  16
ENDBRANCH  13  14
ENDBRANCH  12  13
ENDBRANCH   1  12
BRANCH   3  17
ATOM     17  O   UNL     1      47.448   3.237  14.420  0.00  0.00    +0.000 OA
BRANCH  17  18
ATOM     18  C   UNL     1      47.312   3.653  15.781  0.00  0.00    +0.000 C 
BRANCH  18  19
ATOM     19  C   UNL     1      48.591   3.400  16.537  0.00  0.00    +0.000 A 
ATOM     20  C   UNL     1      49.233   2.159  16.546  0.00  0.00    +0.000 A 
ATOM     21  C   UNL     1      50.449   2.012  17.210  0.00  0.00    +0.000 A 
ATOM     22  C   UNL     1      50.992   3.119  17.836  0.00  0.00    +0.000 A 
ATOM     23  N   UNL     1      50.413   4.338  17.840  0.00  0.00    +0.000 NA
ATOM     24  C   UNL     1      49.234   4.451  17.187  0.00  0.00    +0.000 A 
ENDBRANCH  18  19
ENDBRANCH  17  18
ENDBRANCH   3  17
TORSDOF 8
ENDMDL
MODEL 6
REMARK VINA RESULT:    -5.774      2.105      3.007
REMARK INTER + INTRA:          -9.773
REMARK INTER:                  -8.984
REMARK INTRA:                  -0.789
REMARK UNBOUND:                -1.299
REMARK  Name = 
REMARK  9 active torsions:
REMARK  status: ('A' for Active; 'I' for Inactive)
REMARK    1  A    between atoms: C_1  and  O_2
REMARK    2  A    between atoms: O_2  and  C_3
REMARK    3  A    between atoms: C_3  and  C_4
REMARK    4  A    between atoms: C_4  and  O_5
REMARK    5  A    between atoms: O_5  and  C_6
REMARK    6  A    between atoms: C_8  and  O_9
REMARK    7  A    between atoms: O_9  and  C_10
REMARK    8  A    between atoms: C_10  and  C_11
REMARK    9  A    between atoms: C_19  and  C_20
REMARK                            x       y       z     vdW  Elec       q    Type
REMARK                         _______ _______ _______ _____ _____    ______ ____
ROOT
ATOM      1  C   UNL     1      46.328   6.682  12.736  0.00  0.00    +0.000 A 
ATOM      2  C   UNL     1      46.084   5.336  12.440  0.00  0.00    +0.000 A 
ATOM      3  C   UNL     1      45.071   5.014  11.552  0.00  0.00    +0.000 A 
ATOM      4  N   UNL     1      44.277   5.927  10.965  0.00  0.00    +0.000 NA
ATOM      5  C   UNL     1      44.516   7.225  11.274  0.00  0.00    +0.000 A 
ATOM      6  C   UNL     1      45.520   7.661  12.135  0.00  0.00    +0.000 A 
ENDROOT
BRANCH   6   7
ATOM      7  C   UNL     1      45.633   9.132  12.332  0.00  0.00    +0.000 C 
ATOM      8  N   UNL     1      44.541   9.818  12.775  0.00  0.00    +0.000 N 
ATOM      9  O   UNL     1      46.683   9.725  12.110  0.00  0.00    +0.000 OA
ATOM     10  H   UNL     1      43.663   9.352  12.966  0.00  0.00    +0.000 HD
ATOM     11  H   UNL     1      44.619  10.815  12.910  0.00  0.00    +0.000 HD
ENDBRANCH   6   7
BRANCH   1  12
ATOM     12  O   UNL     1      47.325   7.097  13.586  0.00  0.00    +0.000 OA
BRANCH  12  13
ATOM     13  C   UNL     1      48.638   6.589  13.343  0.00  0.00    +0.000 C 
BRANCH  13  14
ATOM     14  C   UNL     1      49.542   7.733  12.897  0.00  0.00    +0.000 C 
BRANCH  14  16
ATOM     15  C   UNL     1      51.096   8.151  11.179  0.00  0.00    +0.000 C 
ATOM     16  O   UNL     1      49.849   7.558  11.517  0.00  0.00    +0.000 OA
ENDBRANCH  14  16
ENDBRANCH  13  14
ENDBRANCH  12  13
ENDBRANCH   1  12
BRANCH   3  17
ATOM     17  O   UNL     1      44.866   3.671  11.315  0.00  0.00    +0.000 OA
BRANCH  17  18
ATOM     18  C   UNL     1      44.153   3.441  10.098  0.00  0.00    +0.000 C 
BRANCH  18  19
ATOM     19  C   UNL     1      45.108   3.072   8.992  0.00  0.00    +0.000 A 
ATOM     20  C   UNL     1      45.674   4.018   8.132  0.00  0.00    +0.000 A 
ATOM     21  C   UNL     1      46.602   3.616   7.175  0.00  0.00    +0.000 A 
ATOM     22  C   UNL     1      46.946   2.277   7.115  0.00  0.00    +0.000 A 
ATOM     23  N   UNL     1      46.435   1.335   7.934  0.00  0.00    +0.000 NA
ATOM     24  C   UNL     1      45.537   1.754   8.854  0.00  0.00    +0.000 A 
ENDBRANCH  18  19
ENDBRANCH  17  18
ENDBRANCH   3  17
TORSDOF 8
ENDMDL
MODEL 7
REMARK VINA RESULT:    -5.740      2.855      7.234
REMARK INTER + INTRA:          -9.724
REMARK INTER:                  -8.770
REMARK INTRA:                  -0.954
REMARK UNBOUND:                -1.299
REMARK  Name = 
REMARK  9 active torsions:
REMARK  status: ('A' for Active; 'I' for Inactive)
REMARK    1  A    between atoms: C_1  and  O_2
REMARK    2  A    between atoms: O_2  and  C_3
REMARK    3  A    between atoms: C_3  and  C_4
REMARK    4  A    between atoms: C_4  and  O_5
REMARK    5  A    between atoms: O_5  and  C_6
REMARK    6  A    between atoms: C_8  and  O_9
REMARK    7  A    between atoms: O_9  and  C_10
REMARK    8  A    between atoms: C_10  and  C_11
REMARK    9  A    between atoms: C_19  and  C_20
REMARK                            x       y       z     vdW  Elec       q    Type
REMARK                         _______ _______ _______ _____ _____    ______ ____
ROOT
ATOM      1  C   UNL     1      45.029   5.343  13.223  0.00  0.00    +0.000 A 
ATOM      2  C   UNL     1      45.660   4.269  13.860  0.00  0.00    +0.000 A 
ATOM      3  C   UNL     1      46.990   4.390  14.227  0.00  0.00    +0.000 A 
ATOM      4  N   UNL     1      47.733   5.484  13.985  0.00  0.00    +0.000 NA
ATOM      5  C   UNL     1      47.111   6.510  13.352  0.00  0.00    +0.000 A 
ATOM      6  C   UNL     1      45.775   6.503  12.959  0.00  0.00    +0.000 A 
ENDROOT
BRANCH   6   7
ATOM      7  C   UNL     1      45.273   7.736  12.294  0.00  0.00    +0.000 C 
ATOM      8  N   UNL     1      44.685   7.623  11.069  0.00  0.00    +0.000 N 
ATOM      9  O   UNL     1      45.373   8.834  12.830  0.00  0.00    +0.000 OA
ATOM     10  H   UNL     1      44.589   6.729  10.606  0.00  0.00    +0.000 HD
ATOM     11  H   UNL     1      44.342   8.460  10.620  0.00  0.00    +0.000 HD
ENDBRANCH   6   7
BRANCH   1  12
ATOM     12  O   UNL     1      43.708   5.322  12.843  0.00  0.00    +0.000 OA
BRANCH  12  13
ATOM     13  C   UNL     1      43.249   4.158  12.152  0.00  0.00    +0.000 C 
BRANCH  13  14
ATOM     14  C   UNL     1      43.693   4.235  10.696  0.00  0.00    +0.000 C 
BRANCH  14  16
ATOM     15  C   UNL     1      44.497   2.508   9.311  0.00  0.00    +0.000 C 
ATOM     16  O   UNL     1      44.726   3.277  10.485  0.00  0.00    +0.000 OA
ENDBRANCH  14  16
ENDBRANCH  13  14
ENDBRANCH  12  13
ENDBRANCH   1  12
BRANCH   3  17
ATOM     17  O   UNL     1      47.562   3.291  14.833  0.00  0.00    +0.000 OA
BRANCH  17  18
ATOM     18  C   UNL     1      47.520   3.380  16.260  0.00  0.00    +0.000 C 
BRANCH  18  19
ATOM     19  C   UNL     1      48.909   3.267  16.833  0.00  0.00    +0.000 A 
ATOM     20  C   UNL     1      49.651   2.083  16.796  0.00  0.00    +0.000 A 
ATOM     21  C   UNL     1      50.956   2.066  17.283  0.00  0.00    +0.000 A 
ATOM     22  C   UNL     1      51.483   3.243  17.785  0.00  0.00    +0.000 A 
ATOM     23  N   UNL     1      50.807   4.410  17.827  0.00  0.00    +0.000 NA
ATOM     24  C   UNL     1      49.544   4.396  17.346  0.00  0.00    +0.000 A 
ENDBRANCH  18  19
ENDBRANCH  17  18
ENDBRANCH   3  17
TORSDOF 8
ENDMDL
MODEL 8
REMARK VINA RESULT:    -5.448      3.647      7.235
REMARK INTER + INTRA:          -9.294
REMARK INTER:                  -8.127
REMARK INTRA:                  -1.167
REMARK UNBOUND:                -1.299
REMARK  Name = 
REMARK  9 active torsions:
REMARK  status: ('A' for Active; 'I' for Inactive)
REMARK    1  A    between atoms: C_1  and  O_2
REMARK    2  A    between atoms: O_2  and  C_3
REMARK    3  A    between atoms: C_3  and  C_4
REMARK    4  A    between atoms: C_4  and  O_5
REMARK    5  A    between atoms: O_5  and  C_6
REMARK    6  A    between atoms: C_8  and  O_9
REMARK    7  A    between atoms: O_9  and  C_10
REMARK    8  A    between atoms: C_10  and  C_11
REMARK    9  A    between atoms: C_19  and  C_20
REMARK                            x       y       z     vdW  Elec       q    Type
REMARK                         _______ _______ _______ _____ _____    ______ ____
ROOT
ATOM      1  C   UNL     1      45.687   6.473  12.290  0.00  0.00    +0.000 A 
ATOM      2  C   UNL     1      46.708   6.160  13.194  0.00  0.00    +0.000 A 
ATOM      3  C   UNL     1      46.652   4.962  13.887  0.00  0.00    +0.000 A 
ATOM      4  N   UNL     1      45.648   4.076  13.761  0.00  0.00    +0.000 NA
ATOM      5  C   UNL     1      44.659   4.401  12.893  0.00  0.00    +0.000 A 
ATOM      6  C   UNL     1      44.626   5.566  12.131  0.00  0.00    +0.000 A 
ENDROOT
BRANCH   6   7
ATOM      7  C   UNL     1      43.462   5.732  11.220  0.00  0.00    +0.000 C 
ATOM      8  N   UNL     1      42.741   6.887  11.285  0.00  0.00    +0.000 N 
ATOM      9  O   UNL     1      43.151   4.857  10.418  0.00  0.00    +0.000 OA
ATOM     10  H   UNL     1      42.977   7.624  11.937  0.00  0.00    +0.000 HD
ATOM     11  H   UNL     1      41.952   7.000  10.665  0.00  0.00    +0.000 HD
ENDBRANCH   6   7
BRANCH   1  12
ATOM     12  O   UNL     1      45.671   7.626  11.543  0.00  0.00    +0.000 OA
BRANCH  12  13
ATOM     13  C   UNL     1      46.004   8.841  12.217  0.00  0.00    +0.000 C 
BRANCH  13  14
ATOM     14  C   UNL     1      44.844   9.821  12.084  0.00  0.00    +0.000 C 
BRANCH  14  16
ATOM     15  C   UNL     1      43.873  10.540  10.062  0.00  0.00    +0.000 C 
ATOM     16  O   UNL     1      44.062   9.447  10.953  0.00  0.00    +0.000 OA
ENDBRANCH  14  16
ENDBRANCH  13  14
ENDBRANCH  12  13
ENDBRANCH   1  12
BRANCH   3  17
ATOM     17  O   UNL     1      47.676   4.718  14.778  0.00  0.00    +0.000 OA
BRANCH  17  18
ATOM     18  C   UNL     1      47.303   3.770  15.781  0.00  0.00    +0.000 C 
BRANCH  18  19
ATOM     19  C   UNL     1      47.936   4.130  17.102  0.00  0.00    +0.000 A 
ATOM     20  C   UNL     1      49.237   3.754  17.445  0.00  0.00    +0.000 A 
ATOM     21  C   UNL     1      49.785   4.177  18.654  0.00  0.00    +0.000 A 
ATOM     22  C   UNL     1      49.013   4.976  19.480  0.00  0.00    +0.000 A 
ATOM     23  N   UNL     1      47.758   5.372  19.180  0.00  0.00    +0.000 NA
ATOM     24  C   UNL     1      47.254   4.946  18.000  0.00  0.00    +0.000 A 
ENDBRANCH  18  19
ENDBRANCH  17  18
ENDBRANCH   3  17
TORSDOF 8
ENDMDL
MODEL 9
REMARK VINA RESULT:    -5.286      2.808      7.573
REMARK INTER + INTRA:          -9.056
REMARK INTER:                  -8.320
REMARK INTRA:                  -0.737
REMARK UNBOUND:                -1.299
REMARK  Name = 
REMARK  9 active torsions:
REMARK  status: ('A' for Active; 'I' for Inactive)
REMARK    1  A    between atoms: C_1  and  O_2
REMARK    2  A    between atoms: O_2  and  C_3
REMARK    3  A    between atoms: C_3  and  C_4
REMARK    4  A    between atoms: C_4  and  O_5
REMARK    5  A    between atoms: O_5  and  C_6
REMARK    6  A    between atoms: C_8  and  O_9
REMARK    7  A    between atoms: O_9  and  C_10
REMARK    8  A    between atoms: C_10  and  C_11
REMARK    9  A    between atoms: C_19  and  C_20
REMARK                            x       y       z     vdW  Elec       q    Type
REMARK                         _______ _______ _______ _____ _____    ______ ____
ROOT
ATOM      1  C   UNL     1      44.702   5.407  12.720  0.00  0.00    +0.000 A 
ATOM      2  C   UNL     1      45.634   4.713  13.499  0.00  0.00    +0.000 A 
ATOM      3  C   UNL     1      46.851   5.309  13.785  0.00  0.00    +0.000 A 
ATOM      4  N   UNL     1      47.209   6.524  13.334  0.00  0.00    +0.000 NA
ATOM      5  C   UNL     1      46.301   7.177  12.567  0.00  0.00    +0.000 A 
ATOM      6  C   UNL     1      45.043   6.681  12.237  0.00  0.00    +0.000 A 
ENDROOT
BRANCH   6   7
ATOM      7  C   UNL     1      44.182   7.559  11.399  0.00  0.00    +0.000 C 
ATOM      8  N   UNL     1      42.951   7.106  11.028  0.00  0.00    +0.000 N 
ATOM      9  O   UNL     1      44.558   8.673  11.049  0.00  0.00    +0.000 OA
ATOM     10  H   UNL     1      42.617   6.191  11.304  0.00  0.00    +0.000 HD
ATOM     11  H   UNL     1      42.367   7.703  10.462  0.00  0.00    +0.000 HD
ENDBRANCH   6   7
BRANCH   1  12
ATOM     12  O   UNL     1      43.462   4.905  12.405  0.00  0.00    +0.000 OA
BRANCH  12  13
ATOM     13  C   UNL     1      43.414   3.583  11.865  0.00  0.00    +0.000 C 
BRANCH  13  14
ATOM     14  C   UNL     1      43.926   3.611  10.430  0.00  0.00    +0.000 C 
BRANCH  14  16
ATOM     15  C   UNL     1      45.073   2.123   9.010  0.00  0.00    +0.000 C 
ATOM     16  O   UNL     1      45.004   2.687  10.314  0.00  0.00    +0.000 OA
ENDBRANCH  14  16
ENDBRANCH  13  14
ENDBRANCH  12  13
ENDBRANCH   1  12
BRANCH   3  17
ATOM     17  O   UNL     1      47.735   4.568  14.540  0.00  0.00    +0.000 OA
BRANCH  17  18
ATOM     18  C   UNL     1      47.138   4.077  15.743  0.00  0.00    +0.000 C 
BRANCH  18  19
ATOM     19  C   UNL     1      47.950   4.499  16.941  0.00  0.00    +0.000 A 
ATOM     20  C   UNL     1      48.109   3.692  18.071  0.00  0.00    +0.000 A 
ATOM     21  C   UNL     1      48.928   4.115  19.115  0.00  0.00    +0.000 A 
ATOM     22  C   UNL     1      49.574   5.332  18.991  0.00  0.00    +0.000 A 
ATOM     23  N   UNL     1      49.458   6.135  17.912  0.00  0.00    +0.000 NA
ATOM     24  C   UNL     1      48.658   5.698  16.914  0.00  0.00    +0.000 A 
ENDBRANCH  18  19
ENDBRANCH  17  18
ENDBRANCH   3  17
TORSDOF 8
ENDMDL
