MODEL 1
REMARK VINA RESULT:    -7.047      0.000      0.000
REMARK INTER + INTRA:          -9.896
REMARK INTER:                  -9.313
REMARK INTRA:                  -0.583
REMARK UNBOUND:                -0.583
REMARK  Name = 
REMARK  6 active torsions:
REMARK  status: ('A' for Active; 'I' for Inactive)
REMARK    1  A    between atoms: C_2  and  C_4
REMARK    2  A    between atoms: C_11  and  C_12
REMARK    3  A    between atoms: C_12  and  O_13
REMARK    4  A    between atoms: O_13  and  C_14
REMARK    5  A    between atoms: C_19  and  C_20
REMARK    6  A    between atoms: C_20  and  O_21
REMARK                            x       y       z     vdW  Elec       q    Type
REMARK                         _______ _______ _______ _____ _____    ______ ____
ROOT
ATOM      1  C   UNL     1      43.768   4.840  11.700  0.00  0.00    +0.000 C 
ATOM      2  C   UNL     1      43.806   4.372  10.235  0.00  0.00    +0.000 C 
ATOM      3  C   UNL     1      45.170   4.518   9.550  0.00  0.00    +0.000 C 
ATOM      4  C   UNL     1      45.818   5.877   9.826  0.00  0.00    +0.000 C 
ATOM      5  N   UNL     1      45.849   6.033  11.275  0.00  0.00    +0.000 N 
ATOM      6  C   UNL     1      46.970   6.568  11.884  0.00  0.00    +0.000 A 
ATOM      7  C   UNL     1      47.191   6.339  13.243  0.00  0.00    +0.000 A 
ATOM      8  C   UNL     1      48.365   6.766  13.861  0.00  0.00    +0.000 A 
ATOM      9  C   UNL     1      49.312   7.429  13.086  0.00  0.00    +0.000 A 
ATOM     10  C   UNL     1      49.025   7.636  11.748  0.00  0.00    +0.000 A 
ATOM     11  N   UNL     1      47.895   7.208  11.140  0.00  0.00    +0.000 NA
ATOM     12  C   UNL     1      44.535   6.146  11.911  0.00  0.00    +0.000 C 
ENDROOT
BRANCH   1  14
ATOM     13  N   UNL     1      43.825   2.493  12.450  0.00  0.00    +0.000 N 
ATOM     14  C   UNL     1      44.234   3.771  12.679  0.00  0.00    +0.000 C 
ATOM     15  O   UNL     1      44.956   4.025  13.635  0.00  0.00    +0.000 OA
ATOM     16  H   UNL     1      44.202   1.769  13.044  0.00  0.00    +0.000 HD
ATOM     17  H   UNL     1      43.493   2.229  11.527  0.00  0.00    +0.000 HD
ENDBRANCH   1  14
BRANCH   8  18
ATOM     18  C   UNL     1      48.595   6.501  15.327  0.00  0.00    +0.000 C 
BRANCH  18  19
ATOM     19  O   UNL     1      48.298   5.134  15.629  0.00  0.00    +0.000 OA
BRANCH  19  20
ATOM     20  C   UNL     1      48.444   4.869  16.980  0.00  0.00    +0.000 A 
ATOM     21  N   UNL     1      48.551   5.924  17.821  0.00  0.00    +0.000 NA
ATOM     22  C   UNL     1      48.701   5.664  19.134  0.00  0.00    +0.000 A 
ATOM     23  C   UNL     1      48.743   4.388  19.658  0.00  0.00    +0.000 A 
ATOM     24  C   UNL     1      48.641   3.316  18.777  0.00  0.00    +0.000 A 
ATOM     25  C   UNL     1      48.517   3.541  17.398  0.00  0.00    +0.000 A 
BRANCH  25  26
ATOM     26  C   UNL     1      48.363   2.395  16.439  0.00  0.00    +0.000 C 
BRANCH  26  27
ATOM     27  O   UNL     1      49.630   1.841  16.085  0.00  0.00    +0.000 OA
ATOM     28  H   UNL     1      49.468   0.916  15.830  0.00  0.00    +0.000 HD
ENDBRANCH  26  27
ENDBRANCH  25  26
ENDBRANCH  19  20
ENDBRANCH  18  19
ENDBRANCH   8  18
TORSDOF 6
ENDMDL
MODEL 2
REMARK VINA RESULT:    -6.923      3.578      7.591
REMARK INTER + INTRA:          -9.731
REMARK INTER:                  -8.931
REMARK INTRA:                  -0.800
REMARK UNBOUND:                -0.583
REMARK  Name = 
REMARK  6 active torsions:
REMARK  status: ('A' for Active; 'I' for Inactive)
REMARK    1  A    between atoms: C_2  and  C_4
REMARK    2  A    between atoms: C_11  and  C_12
REMARK    3  A    between atoms: C_12  and  O_13
REMARK    4  A    between atoms: O_13  and  C_14
REMARK    5  A    between atoms: C_19  and  C_20
REMARK    6  A    between atoms: C_20  and  O_21
REMARK                            x       y       z     vdW  Elec       q    Type
REMARK                         _______ _______ _______ _____ _____    ______ ____
ROOT
ATOM      1  C   UNL     1      49.717   9.989  13.587  0.00  0.00    +0.000 C 
ATOM      2  C   UNL     1      51.017   9.560  14.289  0.00  0.00    +0.000 C 
ATOM      3  C   UNL     1      51.167   8.046  14.491  0.00  0.00    +0.000 C 
ATOM      4  C   UNL     1      49.886   7.401  15.023  0.00  0.00    +0.000 C 
ATOM      5  N   UNL     1      48.818   7.785  14.107  0.00  0.00    +0.000 N 
ATOM      6  C   UNL     1      47.867   6.854  13.731  0.00  0.00    +0.000 A 
ATOM      7  C   UNL     1      47.119   7.063  12.571  0.00  0.00    +0.000 A 
ATOM      8  C   UNL     1      46.235   6.092  12.103  0.00  0.00    +0.000 A 
ATOM      9  C   UNL     1      46.116   4.908  12.825  0.00  0.00    +0.000 A 
ATOM     10  C   UNL     1      46.876   4.770  13.974  0.00  0.00    +0.000 A 
ATOM     11  N   UNL     1      47.749   5.702  14.423  0.00  0.00    +0.000 NA
ATOM     12  C   UNL     1      48.501   9.215  14.096  0.00  0.00    +0.000 C 
ENDROOT
BRANCH   1  14
ATOM     13  N   UNL     1      51.054   9.927  11.517  0.00  0.00    +0.000 N 
ATOM     14  C   UNL     1      49.809   9.920  12.069  0.00  0.00    +0.000 C 
ATOM     15  O   UNL     1      48.818   9.852  11.352  0.00  0.00    +0.000 OA
ATOM     16  H   UNL     1      51.122   9.792  10.518  0.00  0.00    +0.000 HD
ATOM     17  H   UNL     1      51.858   9.683  12.088  0.00  0.00    +0.000 HD
ENDBRANCH   1  14
BRANCH   8  18
ATOM     18  C   UNL     1      45.443   6.326  10.843  0.00  0.00    +0.000 C 
BRANCH  18  19
ATOM     19  O   UNL     1      44.491   5.273  10.660  0.00  0.00    +0.000 OA
BRANCH  19  20
ATOM     20  C   UNL     1      44.941   4.333   9.749  0.00  0.00    +0.000 A 
ATOM     21  N   UNL     1      45.678   4.774   8.702  0.00  0.00    +0.000 NA
ATOM     22  C   UNL     1      46.107   3.858   7.812  0.00  0.00    +0.000 A 
ATOM     23  C   UNL     1      45.843   2.509   7.918  0.00  0.00    +0.000 A 
ATOM     24  C   UNL     1      45.077   2.076   8.996  0.00  0.00    +0.000 A 
ATOM     25  C   UNL     1      44.580   2.999   9.930  0.00  0.00    +0.000 A 
BRANCH  25  26
ATOM     26  C   UNL     1      43.788   2.542  11.121  0.00  0.00    +0.000 C 
BRANCH  26  27
ATOM     27  O   UNL     1      42.671   3.399  11.360  0.00  0.00    +0.000 OA
ATOM     28  H   UNL     1      42.433   3.791  10.502  0.00  0.00    +0.000 HD
ENDBRANCH  26  27
ENDBRANCH  25  26
ENDBRANCH  19  20
ENDBRANCH  18  19
ENDBRANCH   8  18
TORSDOF 6
ENDMDL
MODEL 3
REMARK VINA RESULT:    -6.873      2.664      6.894
REMARK INTER + INTRA:          -9.665
REMARK INTER:                  -8.652
REMARK INTRA:                  -1.014
REMARK UNBOUND:                -0.583
REMARK  Name = 
REMARK  6 active torsions:
REMARK  status: ('A' for Active; 'I' for Inactive)
REMARK    1  A    between atoms: C_2  and  C_4
REMARK    2  A    between atoms: C_11  and  C_12
REMARK    3  A    between atoms: C_12  and  O_13
REMARK    4  A    between atoms: O_13  and  C_14
REMARK    5  A    between atoms: C_19  and  C_20
REMARK    6  A    between atoms: C_20  and  O_21
REMARK                            x       y       z     vdW  Elec       q    Type
REMARK                         _______ _______ _______ _____ _____    ______ ____
ROOT
ATOM      1  C   UNL     1      49.339   7.118  14.346  0.00  0.00    +0.000 C 
ATOM      2  C   UNL     1      49.777   8.277  15.258  0.00  0.00    +0.000 C 
ATOM      3  C   UNL     1      48.821   9.477  15.276  0.00  0.00    +0.000 C 
ATOM      4  C   UNL     1      48.365   9.879  13.872  0.00  0.00    +0.000 C 
ATOM      5  N   UNL     1      47.815   8.676  13.256  0.00  0.00    +0.000 N 
ATOM      6  C   UNL     1      46.658   8.760  12.501  0.00  0.00    +0.000 A 
ATOM      7  C   UNL     1      45.904   7.608  12.270  0.00  0.00    +0.000 A 
ATOM      8  C   UNL     1      44.676   7.675  11.612  0.00  0.00    +0.000 A 
ATOM      9  C   UNL     1      44.225   8.922  11.190  0.00  0.00    +0.000 A 
ATOM     10  C   UNL     1      45.028  10.022  11.439  0.00  0.00    +0.000 A 
ATOM     11  N   UNL     1      46.211   9.964  12.092  0.00  0.00    +0.000 NA
ATOM     12  C   UNL     1      48.789   7.612  13.006  0.00  0.00    +0.000 C 
ENDROOT
BRANCH   1  14
ATOM     13  N   UNL     1      48.278   6.213  16.378  0.00  0.00    +0.000 N 
ATOM     14  C   UNL     1      48.358   6.169  15.019  0.00  0.00    +0.000 C 
ATOM     15  O   UNL     1      47.652   5.393  14.386  0.00  0.00    +0.000 OA
ATOM     16  H   UNL     1      47.567   5.649  16.822  0.00  0.00    +0.000 HD
ATOM     17  H   UNL     1      48.619   7.030  16.875  0.00  0.00    +0.000 HD
ENDBRANCH   1  14
BRANCH   8  18
ATOM     18  C   UNL     1      43.867   6.426  11.380  0.00  0.00    +0.000 C 
BRANCH  18  19
ATOM     19  O   UNL     1      44.672   5.269  11.624  0.00  0.00    +0.000 OA
BRANCH  19  20
ATOM     20  C   UNL     1      44.835   4.511  10.477  0.00  0.00    +0.000 A 
ATOM     21  N   UNL     1      45.577   5.038   9.474  0.00  0.00    +0.000 NA
ATOM     22  C   UNL     1      45.727   4.303   8.355  0.00  0.00    +0.000 A 
ATOM     23  C   UNL     1      45.175   3.050   8.187  0.00  0.00    +0.000 A 
ATOM     24  C   UNL     1      44.409   2.529   9.225  0.00  0.00    +0.000 A 
ATOM     25  C   UNL     1      44.198   3.274  10.395  0.00  0.00    +0.000 A 
BRANCH  25  26
ATOM     26  C   UNL     1      43.409   2.707  11.540  0.00  0.00    +0.000 C 
BRANCH  26  27
ATOM     27  O   UNL     1      44.219   2.567  12.708  0.00  0.00    +0.000 OA
ATOM     28  H   UNL     1      45.019   3.100  12.557  0.00  0.00    +0.000 HD
ENDBRANCH  26  27
ENDBRANCH  25  26
ENDBRANCH  19  20
ENDBRANCH  18  19
ENDBRANCH   8  18
TORSDOF 6
ENDMDL
MODEL 4
REMARK VINA RESULT:    -6.805      1.641      6.947
REMARK INTER + INTRA:          -9.575
REMARK INTER:                  -8.675
REMARK INTRA:                  -0.900
REMARK UNBOUND:                -0.583
REMARK  Name = 
REMARK  6 active torsions:
REMARK  status: ('A' for Active; 'I' for Inactive)
REMARK    1  A    between atoms: C_2  and  C_4
REMARK    2  A    between atoms: C_11  and  C_12
REMARK    3  A    between atoms: C_12  and  O_13
REMARK    4  A    between atoms: O_13  and  C_14
REMARK    5  A    between atoms: C_19  and  C_20
REMARK    6  A    between atoms: C_20  and  O_21
REMARK                            x       y       z     vdW  Elec       q    Type
REMARK                         _______ _______ _______ _____ _____    ______ ____
ROOT
ATOM      1  C   UNL     1      49.050   3.846  17.510  0.00  0.00    +0.000 C 
ATOM      2  C   UNL     1      48.826   4.320  18.956  0.00  0.00    +0.000 C 
ATOM      3  C   UNL     1      48.223   5.725  19.086  0.00  0.00    +0.000 C 
ATOM      4  C   UNL     1      48.898   6.736  18.157  0.00  0.00    +0.000 C 
ATOM      5  N   UNL     1      48.833   6.171  16.813  0.00  0.00    +0.000 N 
ATOM      6  C   UNL     1      48.532   6.989  15.739  0.00  0.00    +0.000 A 
ATOM      7  C   UNL     1      48.057   6.421  14.555  0.00  0.00    +0.000 A 
ATOM      8  C   UNL     1      47.637   7.222  13.494  0.00  0.00    +0.000 A 
ATOM      9  C   UNL     1      47.704   8.604  13.647  0.00  0.00    +0.000 A 
ATOM     10  C   UNL     1      48.196   9.101  14.842  0.00  0.00    +0.000 A 
ATOM     11  N   UNL     1      48.589   8.328  15.880  0.00  0.00    +0.000 NA
ATOM     12  C   UNL     1      49.620   4.951  16.619  0.00  0.00    +0.000 C 
ENDROOT
BRANCH   1  14
ATOM     13  N   UNL     1      46.849   2.758  17.731  0.00  0.00    +0.000 N 
ATOM     14  C   UNL     1      47.804   3.234  16.885  0.00  0.00    +0.000 C 
ATOM     15  O   UNL     1      47.640   3.167  15.673  0.00  0.00    +0.000 OA
ATOM     16  H   UNL     1      45.985   2.432  17.323  0.00  0.00    +0.000 HD
ATOM     17  H   UNL     1      46.834   3.071  18.697  0.00  0.00    +0.000 HD
ENDBRANCH   1  14
BRANCH   8  18
ATOM     18  C   UNL     1      47.116   6.596  12.226  0.00  0.00    +0.000 C 
BRANCH  18  19
ATOM     19  O   UNL     1      45.720   6.309  12.359  0.00  0.00    +0.000 OA
BRANCH  19  20
ATOM     20  C   UNL     1      45.269   5.491  11.338  0.00  0.00    +0.000 A 
ATOM     21  N   UNL     1      45.881   5.591  10.134  0.00  0.00    +0.000 NA
ATOM     22  C   UNL     1      45.435   4.800   9.139  0.00  0.00    +0.000 A 
ATOM     23  C   UNL     1      44.403   3.897   9.288  0.00  0.00    +0.000 A 
ATOM     24  C   UNL     1      43.781   3.815  10.530  0.00  0.00    +0.000 A 
ATOM     25  C   UNL     1      44.190   4.644  11.586  0.00  0.00    +0.000 A 
BRANCH  25  26
ATOM     26  C   UNL     1      43.557   4.536  12.943  0.00  0.00    +0.000 C 
BRANCH  26  27
ATOM     27  O   UNL     1      42.916   5.757  13.314  0.00  0.00    +0.000 OA
ATOM     28  H   UNL     1      43.056   5.865  14.271  0.00  0.00    +0.000 HD
ENDBRANCH  26  27
ENDBRANCH  25  26
ENDBRANCH  19  20
ENDBRANCH  18  19
ENDBRANCH   8  18
TORSDOF 6
ENDMDL
MODEL 5
REMARK VINA RESULT:    -6.793      1.819      6.620
REMARK INTER + INTRA:          -9.560
REMARK INTER:                  -8.034
REMARK INTRA:                  -1.526
REMARK UNBOUND:                -0.583
REMARK  Name = 
REMARK  6 active torsions:
REMARK  status: ('A' for Active; 'I' for Inactive)
REMARK    1  A    between atoms: C_2  and  C_4
REMARK    2  A    between atoms: C_11  and  C_12
REMARK    3  A    between atoms: C_12  and  O_13
REMARK    4  A    between atoms: O_13  and  C_14
REMARK    5  A    between atoms: C_19  and  C_20
REMARK    6  A    between atoms: C_20  and  O_21
REMARK                            x       y       z     vdW  Elec       q    Type
REMARK                         _______ _______ _______ _____ _____    ______ ____
ROOT
ATOM      1  C   UNL     1      49.551   4.460  18.896  0.00  0.00    +0.000 C 
ATOM      2  C   UNL     1      48.668   4.725  20.127  0.00  0.00    +0.000 C 
ATOM      3  C   UNL     1      47.689   5.897  19.975  0.00  0.00    +0.000 C 
ATOM      4  C   UNL     1      48.351   7.132  19.360  0.00  0.00    +0.000 C 
ATOM      5  N   UNL     1      48.968   6.693  18.113  0.00  0.00    +0.000 N 
ATOM      6  C   UNL     1      48.881   7.491  16.986  0.00  0.00    +0.000 A 
ATOM      7  C   UNL     1      49.078   6.924  15.726  0.00  0.00    +0.000 A 
ATOM      8  C   UNL     1      48.886   7.673  14.565  0.00  0.00    +0.000 A 
ATOM      9  C   UNL     1      48.495   9.002  14.698  0.00  0.00    +0.000 A 
ATOM     10  C   UNL     1      48.330   9.505  15.977  0.00  0.00    +0.000 A 
ATOM     11  N   UNL     1      48.498   8.778  17.106  0.00  0.00    +0.000 NA
ATOM     12  C   UNL     1      50.080   5.753  18.273  0.00  0.00    +0.000 C 
ENDROOT
BRANCH   1  14
ATOM     13  N   UNL     1      47.661   3.054  18.173  0.00  0.00    +0.000 N 
ATOM     14  C   UNL     1      48.869   3.592  17.848  0.00  0.00    +0.000 C 
ATOM     15  O   UNL     1      49.361   3.379  16.747  0.00  0.00    +0.000 OA
ATOM     16  H   UNL     1      47.164   2.551  17.451  0.00  0.00    +0.000 HD
ATOM     17  H   UNL     1      47.121   3.455  18.934  0.00  0.00    +0.000 HD
ENDBRANCH   1  14
BRANCH   8  18
ATOM     18  C   UNL     1      49.091   7.046  13.211  0.00  0.00    +0.000 C 
BRANCH  18  19
ATOM     19  O   UNL     1      48.513   5.736  13.186  0.00  0.00    +0.000 OA
BRANCH  19  20
ATOM     20  C   UNL     1      47.183   5.774  12.806  0.00  0.00    +0.000 A 
ATOM     21  N   UNL     1      46.861   6.500  11.710  0.00  0.00    +0.000 NA
ATOM     22  C   UNL     1      45.565   6.542  11.346  0.00  0.00    +0.000 A 
ATOM     23  C   UNL     1      44.561   5.883  12.025  0.00  0.00    +0.000 A 
ATOM     24  C   UNL     1      44.910   5.149  13.155  0.00  0.00    +0.000 A 
ATOM     25  C   UNL     1      46.244   5.105  13.589  0.00  0.00    +0.000 A 
BRANCH  25  26
ATOM     26  C   UNL     1      46.641   4.282  14.781  0.00  0.00    +0.000 C 
BRANCH  26  27
ATOM     27  O   UNL     1      47.437   3.161  14.395  0.00  0.00    +0.000 OA
ATOM     28  H   UNL     1      46.818   2.448  14.162  0.00  0.00    +0.000 HD
ENDBRANCH  26  27
ENDBRANCH  25  26
ENDBRANCH  19  20
ENDBRANCH  18  19
ENDBRANCH   8  18
TORSDOF 6
ENDMDL
MODEL 6
REMARK VINA RESULT:    -6.250      2.771      4.963
REMARK INTER + INTRA:          -8.842
REMARK INTER:                  -7.518
REMARK INTRA:                  -1.324
REMARK UNBOUND:                -0.583
REMARK  Name = 
REMARK  6 active torsions:
REMARK  status: ('A' for Active; 'I' for Inactive)
REMARK    1  A    between atoms: C_2  and  C_4
REMARK    2  A    between atoms: C_11  and  C_12
REMARK    3  A    between atoms: C_12  and  O_13
REMARK    4  A    between atoms: O_13  and  C_14
REMARK    5  A    between atoms: C_19  and  C_20
REMARK    6  A    between atoms: C_20  and  O_21
REMARK                            x       y       z     vdW  Elec       q    Type
REMARK                         _______ _______ _______ _____ _____    ______ ____
ROOT
ATOM      1  C   UNL     1      47.189   7.099  12.286  0.00  0.00    +0.000 C 
ATOM      2  C   UNL     1      45.750   6.808  11.828  0.00  0.00    +0.000 C 
ATOM      3  C   UNL     1      44.896   6.037  12.843  0.00  0.00    +0.000 C 
ATOM      4  C   UNL     1      45.647   4.852  13.453  0.00  0.00    +0.000 C 
ATOM      5  N   UNL     1      46.893   5.384  13.992  0.00  0.00    +0.000 N 
ATOM      6  C   UNL     1      47.356   4.941  15.218  0.00  0.00    +0.000 A 
ATOM      7  C   UNL     1      48.278   5.715  15.926  0.00  0.00    +0.000 A 
ATOM      8  C   UNL     1      48.677   5.355  17.212  0.00  0.00    +0.000 A 
ATOM      9  C   UNL     1      48.134   4.202  17.771  0.00  0.00    +0.000 A 
ATOM     10  C   UNL     1      47.236   3.473  17.010  0.00  0.00    +0.000 A 
ATOM     11  N   UNL     1      46.832   3.828  15.768  0.00  0.00    +0.000 NA
ATOM     12  C   UNL     1      47.828   5.899  12.988  0.00  0.00    +0.000 C 
ENDROOT
BRANCH   1  14
ATOM     13  N   UNL     1      46.140   8.895  13.609  0.00  0.00    +0.000 N 
ATOM     14  C   UNL     1      47.300   8.352  13.144  0.00  0.00    +0.000 C 
ATOM     15  O   UNL     1      48.376   8.865  13.424  0.00  0.00    +0.000 OA
ATOM     16  H   UNL     1      46.214   9.672  14.249  0.00  0.00    +0.000 HD
ATOM     17  H   UNL     1      45.297   8.329  13.638  0.00  0.00    +0.000 HD
ENDBRANCH   1  14
BRANCH   8  18
ATOM     18  C   UNL     1      49.664   6.206  17.970  0.00  0.00    +0.000 C 
BRANCH  18  19
ATOM     19  O   UNL     1      49.335   7.590  17.815  0.00  0.00    +0.000 OA
BRANCH  19  20
ATOM     20  C   UNL     1      48.593   8.060  18.885  0.00  0.00    +0.000 A 
ATOM     21  N   UNL     1      48.590   7.323  20.021  0.00  0.00    +0.000 NA
ATOM     22  C   UNL     1      47.861   7.777  21.058  0.00  0.00    +0.000 A 
ATOM     23  C   UNL     1      47.131   8.948  21.022  0.00  0.00    +0.000 A 
ATOM     24  C   UNL     1      47.139   9.687  19.843  0.00  0.00    +0.000 A 
ATOM     25  C   UNL     1      47.858   9.234  18.726  0.00  0.00    +0.000 A 
BRANCH  25  26
ATOM     26  C   UNL     1      47.911  10.042  17.462  0.00  0.00    +0.000 C 
BRANCH  26  27
ATOM     27  O   UNL     1      47.527   9.260  16.331  0.00  0.00    +0.000 OA
ATOM     28  H   UNL     1      47.643   8.328  16.585  0.00  0.00    +0.000 HD
ENDBRANCH  26  27
ENDBRANCH  25  26
ENDBRANCH  19  20
ENDBRANCH  18  19
ENDBRANCH   8  18
TORSDOF 6
ENDMDL
MODEL 7
REMARK VINA RESULT:    -6.147      2.302      4.988
REMARK INTER + INTRA:          -8.706
REMARK INTER:                  -7.458
REMARK INTRA:                  -1.248
REMARK UNBOUND:                -0.583
REMARK  Name = 
REMARK  6 active torsions:
REMARK  status: ('A' for Active; 'I' for Inactive)
REMARK    1  A    between atoms: C_2  and  C_4
REMARK    2  A    between atoms: C_11  and  C_12
REMARK    3  A    between atoms: C_12  and  O_13
REMARK    4  A    between atoms: O_13  and  C_14
REMARK    5  A    between atoms: C_19  and  C_20
REMARK    6  A    between atoms: C_20  and  O_21
REMARK                            x       y       z     vdW  Elec       q    Type
REMARK                         _______ _______ _______ _____ _____    ______ ____
ROOT
ATOM      1  C   UNL     1      50.468   8.640  13.025  0.00  0.00    +0.000 C 
ATOM      2  C   UNL     1      50.046  10.120  13.042  0.00  0.00    +0.000 C 
ATOM      3  C   UNL     1      48.544  10.358  13.239  0.00  0.00    +0.000 C 
ATOM      4  C   UNL     1      47.690   9.438  12.363  0.00  0.00    +0.000 C 
ATOM      5  N   UNL     1      48.128   8.076  12.643  0.00  0.00    +0.000 N 
ATOM      6  C   UNL     1      47.192   7.065  12.767  0.00  0.00    +0.000 A 
ATOM      7  C   UNL     1      47.535   5.887  13.433  0.00  0.00    +0.000 A 
ATOM      8  C   UNL     1      46.584   4.897  13.675  0.00  0.00    +0.000 A 
ATOM      9  C   UNL     1      45.283   5.113  13.232  0.00  0.00    +0.000 A 
ATOM     10  C   UNL     1      45.012   6.297  12.566  0.00  0.00    +0.000 A 
ATOM     11  N   UNL     1      45.928   7.268  12.345  0.00  0.00    +0.000 NA
ATOM     12  C   UNL     1      49.498   7.771  12.223  0.00  0.00    +0.000 C 
ENDROOT
BRANCH   1  14
ATOM     13  N   UNL     1      51.923   7.575  14.705  0.00  0.00    +0.000 N 
ATOM     14  C   UNL     1      50.686   8.068  14.419  0.00  0.00    +0.000 C 
ATOM     15  O   UNL     1      49.803   8.047  15.268  0.00  0.00    +0.000 OA
ATOM     16  H   UNL     1      52.097   7.275  15.654  0.00  0.00    +0.000 HD
ATOM     17  H   UNL     1      52.718   7.852  14.137  0.00  0.00    +0.000 HD
ENDBRANCH   1  14
BRANCH   8  18
ATOM     18  C   UNL     1      46.966   3.635  14.406  0.00  0.00    +0.000 C 
BRANCH  18  19
ATOM     19  O   UNL     1      46.919   3.856  15.820  0.00  0.00    +0.000 OA
BRANCH  19  20
ATOM     20  C   UNL     1      48.099   3.474  16.434  0.00  0.00    +0.000 A 
ATOM     21  N   UNL     1      48.696   2.339  16.000  0.00  0.00    +0.000 NA
ATOM     22  C   UNL     1      49.840   1.964  16.604  0.00  0.00    +0.000 A 
ATOM     23  C   UNL     1      50.431   2.678  17.627  0.00  0.00    +0.000 A 
ATOM     24  C   UNL     1      49.798   3.837  18.064  0.00  0.00    +0.000 A 
ATOM     25  C   UNL     1      48.587   4.247  17.486  0.00  0.00    +0.000 A 
BRANCH  25  26
ATOM     26  C   UNL     1      47.915   5.518  17.919  0.00  0.00    +0.000 C 
BRANCH  26  27
ATOM     27  O   UNL     1      47.924   6.491  16.874  0.00  0.00    +0.000 OA
ATOM     28  H   UNL     1      48.764   6.378  16.397  0.00  0.00    +0.000 HD
ENDBRANCH  26  27
ENDBRANCH  25  26
ENDBRANCH  19  20
ENDBRANCH  18  19
ENDBRANCH   8  18
TORSDOF 6
ENDMDL
MODEL 8
REMARK VINA RESULT:    -5.884      2.412      6.628
REMARK INTER + INTRA:          -8.358
REMARK INTER:                  -7.304
REMARK INTRA:                  -1.055
REMARK UNBOUND:                -0.583
REMARK  Name = 
REMARK  6 active torsions:
REMARK  status: ('A' for Active; 'I' for Inactive)
REMARK    1  A    between atoms: C_2  and  C_4
REMARK    2  A    between atoms: C_11  and  C_12
REMARK    3  A    between atoms: C_12  and  O_13
REMARK    4  A    between atoms: O_13  and  C_14
REMARK    5  A    between atoms: C_19  and  C_20
REMARK    6  A    between atoms: C_20  and  O_21
REMARK                            x       y       z     vdW  Elec       q    Type
REMARK                         _______ _______ _______ _____ _____    ______ ____
ROOT
ATOM      1  C   UNL     1      50.387   6.820  16.174  0.00  0.00    +0.000 C 
ATOM      2  C   UNL     1      50.878   7.835  17.220  0.00  0.00    +0.000 C 
ATOM      3  C   UNL     1      50.280   9.241  17.082  0.00  0.00    +0.000 C 
ATOM      4  C   UNL     1      50.281   9.734  15.633  0.00  0.00    +0.000 C 
ATOM      5  N   UNL     1      49.604   8.708  14.847  0.00  0.00    +0.000 N 
ATOM      6  C   UNL     1      48.716   9.079  13.853  0.00  0.00    +0.000 A 
ATOM      7  C   UNL     1      47.770   8.159  13.397  0.00  0.00    +0.000 A 
ATOM      8  C   UNL     1      46.789   8.534  12.481  0.00  0.00    +0.000 A 
ATOM      9  C   UNL     1      46.778   9.851  12.031  0.00  0.00    +0.000 A 
ATOM     10  C   UNL     1      47.752  10.709  12.513  0.00  0.00    +0.000 A 
ATOM     11  N   UNL     1      48.696  10.354  13.416  0.00  0.00    +0.000 NA
ATOM     12  C   UNL     1      50.308   7.426  14.771  0.00  0.00    +0.000 C 
ENDROOT
BRANCH   1  14
ATOM     13  N   UNL     1      48.243   6.853  17.390  0.00  0.00    +0.000 N 
ATOM     14  C   UNL     1      49.069   6.161  16.556  0.00  0.00    +0.000 C 
ATOM     15  O   UNL     1      48.738   5.059  16.137  0.00  0.00    +0.000 OA
ATOM     16  H   UNL     1      47.331   6.460  17.575  0.00  0.00    +0.000 HD
ATOM     17  H   UNL     1      48.362   7.856  17.495  0.00  0.00    +0.000 HD
ENDBRANCH   1  14
BRANCH   8  18
ATOM     18  C   UNL     1      45.767   7.533  12.006  0.00  0.00    +0.000 C 
BRANCH  18  19
ATOM     19  O   UNL     1      46.391   6.264  11.787  0.00  0.00    +0.000 OA
BRANCH  19  20
ATOM     20  C   UNL     1      45.454   5.257  11.629  0.00  0.00    +0.000 A 
ATOM     21  N   UNL     1      44.536   5.400  10.644  0.00  0.00    +0.000 NA
ATOM     22  C   UNL     1      43.620   4.423  10.498  0.00  0.00    +0.000 A 
ATOM     23  C   UNL     1      43.577   3.293  11.289  0.00  0.00    +0.000 A 
ATOM     24  C   UNL     1      44.523   3.169  12.301  0.00  0.00    +0.000 A 
ATOM     25  C   UNL     1      45.475   4.178  12.512  0.00  0.00    +0.000 A 
BRANCH  25  26
ATOM     26  C   UNL     1      46.529   4.037  13.573  0.00  0.00    +0.000 C 
BRANCH  26  27
ATOM     27  O   UNL     1      46.455   5.102  14.521  0.00  0.00    +0.000 OA
ATOM     28  H   UNL     1      46.170   4.706  15.363  0.00  0.00    +0.000 HD
ENDBRANCH  26  27
ENDBRANCH  25  26
ENDBRANCH  19  20
ENDBRANCH  18  19
ENDBRANCH   8  18
TORSDOF 6
ENDMDL
MODEL 9
REMARK VINA RESULT:    -5.841      2.257      7.554
REMARK INTER + INTRA:          -8.302
REMARK INTER:                  -7.110
REMARK INTRA:                  -1.192
REMARK UNBOUND:                -0.583
REMARK  Name = 
REMARK  6 active torsions:
REMARK  status: ('A' for Active; 'I' for Inactive)
REMARK    1  A    between atoms: C_2  and  C_4
REMARK    2  A    between atoms: C_11  and  C_12
REMARK    3  A    between atoms: C_12  and  O_13
REMARK    4  A    between atoms: O_13  and  C_14
REMARK    5  A    between atoms: C_19  and  C_20
REMARK    6  A    between atoms: C_20  and  O_21
REMARK                            x       y       z     vdW  Elec       q    Type
REMARK                         _______ _______ _______ _____ _____    ______ ____
ROOT
ATOM      1  C   UNL     1      49.336   8.943  17.062  0.00  0.00    +0.000 C 
ATOM      2  C   UNL     1      50.581   9.111  17.951  0.00  0.00    +0.000 C 
ATOM      3  C   UNL     1      51.219   7.796  18.418  0.00  0.00    +0.000 C 
ATOM      4  C   UNL     1      50.180   6.791  18.920  0.00  0.00    +0.000 C 
ATOM      5  N   UNL     1      49.199   6.641  17.851  0.00  0.00    +0.000 N 
ATOM      6  C   UNL     1      48.704   5.387  17.544  0.00  0.00    +0.000 A 
ATOM      7  C   UNL     1      48.117   5.165  16.296  0.00  0.00    +0.000 A 
ATOM      8  C   UNL     1      47.713   3.887  15.911  0.00  0.00    +0.000 A 
ATOM      9  C   UNL     1      47.908   2.839  16.805  0.00  0.00    +0.000 A 
ATOM     10  C   UNL     1      48.482   3.130  18.031  0.00  0.00    +0.000 A 
ATOM     11  N   UNL     1      48.893   4.364  18.402  0.00  0.00    +0.000 NA
ATOM     12  C   UNL     1      48.406   7.840  17.570  0.00  0.00    +0.000 C 
ENDROOT
BRANCH   1  14
ATOM     13  N   UNL     1      50.914   9.122  15.177  0.00  0.00    +0.000 N 
ATOM     14  C   UNL     1      49.678   8.732  15.594  0.00  0.00    +0.000 C 
ATOM     15  O   UNL     1      48.892   8.227  14.802  0.00  0.00    +0.000 OA
ATOM     16  H   UNL     1      51.176   8.904  14.227  0.00  0.00    +0.000 HD
ATOM     17  H   UNL     1      51.655   9.255  15.859  0.00  0.00    +0.000 HD
ENDBRANCH   1  14
BRANCH   8  18
ATOM     18  C   UNL     1      47.092   3.661  14.557  0.00  0.00    +0.000 C 
BRANCH  18  19
ATOM     19  O   UNL     1      46.017   4.583  14.351  0.00  0.00    +0.000 OA
BRANCH  19  20
ATOM     20  C   UNL     1      45.469   4.451  13.087  0.00  0.00    +0.000 A 
ATOM     21  N   UNL     1      44.608   3.427  12.878  0.00  0.00    +0.000 NA
ATOM     22  C   UNL     1      44.082   3.296  11.644  0.00  0.00    +0.000 A 
ATOM     23  C   UNL     1      44.369   4.149  10.599  0.00  0.00    +0.000 A 
ATOM     24  C   UNL     1      45.262   5.190  10.831  0.00  0.00    +0.000 A 
ATOM     25  C   UNL     1      45.860   5.345  12.091  0.00  0.00    +0.000 A 
BRANCH  25  26
ATOM     26  C   UNL     1      46.793   6.488  12.368  0.00  0.00    +0.000 C 
BRANCH  26  27
ATOM     27  O   UNL     1      46.431   7.172  13.568  0.00  0.00    +0.000 OA
ATOM     28  H   UNL     1      46.032   6.509  14.157  0.00  0.00    +0.000 HD
ENDBRANCH  26  27
ENDBRANCH  25  26
ENDBRANCH  19  20
ENDBRANCH  18  19
ENDBRANCH   8  18
TORSDOF 6
ENDMDL
