MODEL 1
REMARK VINA RESULT:    -7.089      0.000      0.000
REMARK INTER + INTRA:          -9.807
REMARK INTER:                  -8.954
REMARK INTRA:                  -0.853
REMARK UNBOUND:                -0.853
REMARK  Name = 
REMARK  5 active torsions:
REMARK  status: ('A' for Active; 'I' for Inactive)
REMARK    1  A    between atoms: N_1  and  C_2
REMARK    2  A    between atoms: C_2  and  C_3
REMARK    3  A    between atoms: C_6  and  C_7
REMARK    4  A    between atoms: C_7  and  N_8
REMARK    5  A    between atoms: C_14  and  C_15
REMARK                            x       y       z     vdW  Elec       q    Type
REMARK                         _______ _______ _______ _____ _____    ______ ____
ROOT
ATOM      1  N   UNL     1      44.140   5.460  11.252  0.00  0.00    +0.000 N 
ATOM      2  C   UNL     1      43.148   4.929  12.040  0.00  0.00    +0.000 A 
ATOM      3  C   UNL     1      43.035   3.592  11.737  0.00  0.00    +0.000 A 
ATOM      4  C   UNL     1      43.926   3.316  10.664  0.00  0.00    +0.000 A 
ATOM      5  C   UNL     1      44.235   2.165   9.934  0.00  0.00    +0.000 A 
ATOM      6  N   UNL     1      45.102   2.218   8.894  0.00  0.00    +0.000 NA
ATOM      7  C   UNL     1      45.691   3.402   8.561  0.00  0.00    +0.000 A 
ATOM      8  C   UNL     1      45.475   4.584   9.277  0.00  0.00    +0.000 A 
ATOM      9  C   UNL     1      44.573   4.512  10.342  0.00  0.00    +0.000 A 
ENDROOT
BRANCH   7  10
ATOM     10  C   UNL     1      46.607   3.463   7.345  0.00  0.00    +0.000 C 
ATOM     11  F   UNL     1      45.976   3.303   6.147  0.00  0.00    +0.000 F 
ATOM     12  F   UNL     1      47.271   4.655   7.256  0.00  0.00    +0.000 F 
ATOM     13  F   UNL     1      47.585   2.510   7.379  0.00  0.00    +0.000 F 
ENDBRANCH   7  10
BRANCH   1  14
ATOM     14  C   UNL     1      44.662   6.816  11.399  0.00  0.00    +0.000 C 
BRANCH  14  18
ATOM     15  C   UNL     1      48.280   7.706  12.569  0.00  0.00    +0.000 C 
ATOM     16  C   UNL     1      47.733   6.286  12.362  0.00  0.00    +0.000 C 
ATOM     17  C   UNL     1      46.426   6.048  13.114  0.00  0.00    +0.000 C 
ATOM     18  C   UNL     1      45.329   7.074  12.770  0.00  0.00    +0.000 C 
ATOM     19  C   UNL     1      45.864   8.514  12.867  0.00  0.00    +0.000 C 
ATOM     20  C   UNL     1      47.207   8.731  12.168  0.00  0.00    +0.000 C 
BRANCH  15  21
ATOM     21  C   UNL     1      48.799   7.965  14.000  0.00  0.00    +0.000 C 
BRANCH  21  22
ATOM     22  N   UNL     1      49.778   6.964  14.411  0.00  0.00    +0.000 NA
ATOM     23  H   UNL     1      49.391   6.395  15.164  0.00  0.00    +0.000 HD
ATOM     24  H   UNL     1      50.604   7.423  14.795  0.00  0.00    +0.000 HD
ENDBRANCH  21  22
ENDBRANCH  15  21
ENDBRANCH  14  18
ENDBRANCH   1  14
TORSDOF 5
ENDMDL
MODEL 2
REMARK VINA RESULT:    -6.306      0.996      1.820
REMARK INTER + INTRA:          -8.818
REMARK INTER:                  -8.177
REMARK INTRA:                  -0.641
REMARK UNBOUND:                -0.853
REMARK  Name = 
REMARK  5 active torsions:
REMARK  status: ('A' for Active; 'I' for Inactive)
REMARK    1  A    between atoms: N_1  and  C_2
REMARK    2  A    between atoms: C_2  and  C_3
REMARK    3  A    between atoms: C_6  and  C_7
REMARK    4  A    between atoms: C_7  and  N_8
REMARK    5  A    between atoms: C_14  and  C_15
REMARK                            x       y       z     vdW  Elec       q    Type
REMARK                         _______ _______ _______ _____ _____    ______ ____
ROOT
ATOM      1  N   UNL     1      44.866   6.055  11.879  0.00  0.00    +0.000 N 
ATOM      2  C   UNL     1      43.927   5.834  12.857  0.00  0.00    +0.000 A 
ATOM      3  C   UNL     1      43.412   4.571  12.675  0.00  0.00    +0.000 A 
ATOM      4  C   UNL     1      43.992   4.036  11.492  0.00  0.00    +0.000 A 
ATOM      5  C   UNL     1      43.850   2.826  10.807  0.00  0.00    +0.000 A 
ATOM      6  N   UNL     1      44.500   2.614   9.637  0.00  0.00    +0.000 NA
ATOM      7  C   UNL     1      45.311   3.584   9.127  0.00  0.00    +0.000 A 
ATOM      8  C   UNL     1      45.546   4.798   9.780  0.00  0.00    +0.000 A 
ATOM      9  C   UNL     1      44.863   5.002  10.982  0.00  0.00    +0.000 A 
ENDROOT
BRANCH   7  10
ATOM     10  C   UNL     1      45.978   3.362   7.774  0.00  0.00    +0.000 C 
ATOM     11  F   UNL     1      46.709   2.216   7.680  0.00  0.00    +0.000 F 
ATOM     12  F   UNL     1      45.071   3.307   6.752  0.00  0.00    +0.000 F 
ATOM     13  F   UNL     1      46.832   4.376   7.440  0.00  0.00    +0.000 F 
ENDBRANCH   7  10
BRANCH   1  14
ATOM     14  C   UNL     1      45.745   7.220  11.840  0.00  0.00    +0.000 C 
BRANCH  14  18
ATOM     15  C   UNL     1      48.747   8.154  14.156  0.00  0.00    +0.000 C 
ATOM     16  C   UNL     1      48.288   8.950  12.925  0.00  0.00    +0.000 C 
ATOM     17  C   UNL     1      48.169   8.079  11.677  0.00  0.00    +0.000 C 
ATOM     18  C   UNL     1      47.249   6.859  11.870  0.00  0.00    +0.000 C 
ATOM     19  C   UNL     1      47.610   6.086  13.150  0.00  0.00    +0.000 C 
ATOM     20  C   UNL     1      47.793   6.971  14.385  0.00  0.00    +0.000 C 
BRANCH  15  21
ATOM     21  C   UNL     1      50.216   7.684  14.073  0.00  0.00    +0.000 C 
BRANCH  21  22
ATOM     22  N   UNL     1      50.584   6.848  15.212  0.00  0.00    +0.000 NA
ATOM     23  H   UNL     1      50.011   7.097  16.018  0.00  0.00    +0.000 HD
ATOM     24  H   UNL     1      51.550   7.031  15.480  0.00  0.00    +0.000 HD
ENDBRANCH  21  22
ENDBRANCH  15  21
ENDBRANCH  14  18
ENDBRANCH   1  14
TORSDOF 5
ENDMDL
MODEL 3
REMARK VINA RESULT:    -6.008      4.576      7.645
REMARK INTER + INTRA:          -8.442
REMARK INTER:                  -7.892
REMARK INTRA:                  -0.550
REMARK UNBOUND:                -0.853
REMARK  Name = 
REMARK  5 active torsions:
REMARK  status: ('A' for Active; 'I' for Inactive)
REMARK    1  A    between atoms: N_1  and  C_2
REMARK    2  A    between atoms: C_2  and  C_3
REMARK    3  A    between atoms: C_6  and  C_7
REMARK    4  A    between atoms: C_7  and  N_8
REMARK    5  A    between atoms: C_14  and  C_15
REMARK                            x       y       z     vdW  Elec       q    Type
REMARK                         _______ _______ _______ _____ _____    ______ ____
ROOT
ATOM      1  N   UNL     1      47.923   6.813  14.069  0.00  0.00    +0.000 N 
ATOM      2  C   UNL     1      48.251   8.144  14.145  0.00  0.00    +0.000 A 
ATOM      3  C   UNL     1      48.874   8.359  15.353  0.00  0.00    +0.000 A 
ATOM      4  C   UNL     1      48.846   7.136  16.077  0.00  0.00    +0.000 A 
ATOM      5  C   UNL     1      49.301   6.749  17.340  0.00  0.00    +0.000 A 
ATOM      6  N   UNL     1      49.069   5.497  17.804  0.00  0.00    +0.000 NA
ATOM      7  C   UNL     1      48.397   4.599  17.028  0.00  0.00    +0.000 A 
ATOM      8  C   UNL     1      47.959   4.895  15.733  0.00  0.00    +0.000 A 
ATOM      9  C   UNL     1      48.201   6.192  15.273  0.00  0.00    +0.000 A 
ENDROOT
BRANCH   7  10
ATOM     10  C   UNL     1      48.079   3.219  17.590  0.00  0.00    +0.000 C 
ATOM     11  F   UNL     1      46.772   2.848  17.488  0.00  0.00    +0.000 F 
ATOM     12  F   UNL     1      48.792   2.230  16.970  0.00  0.00    +0.000 F 
ATOM     13  F   UNL     1      48.393   3.109  18.915  0.00  0.00    +0.000 F 
ENDBRANCH   7  10
BRANCH   1  14
ATOM     14  C   UNL     1      47.394   6.170  12.869  0.00  0.00    +0.000 C 
BRANCH  14  18
ATOM     15  C   UNL     1      44.916   3.731  11.090  0.00  0.00    +0.000 C 
ATOM     16  C   UNL     1      45.374   5.093  10.546  0.00  0.00    +0.000 C 
ATOM     17  C   UNL     1      45.177   6.221  11.556  0.00  0.00    +0.000 C 
ATOM     18  C   UNL     1      45.863   5.954  12.909  0.00  0.00    +0.000 C 
ATOM     19  C   UNL     1      45.512   4.555  13.445  0.00  0.00    +0.000 C 
ATOM     20  C   UNL     1      45.646   3.436  12.410  0.00  0.00    +0.000 C 
BRANCH  15  21
ATOM     21  C   UNL     1      43.385   3.616  11.255  0.00  0.00    +0.000 C 
BRANCH  21  22
ATOM     22  N   UNL     1      42.981   2.267  11.637  0.00  0.00    +0.000 NA
ATOM     23  H   UNL     1      43.523   1.963  12.446  0.00  0.00    +0.000 HD
ATOM     24  H   UNL     1      43.197   1.613  10.886  0.00  0.00    +0.000 HD
ENDBRANCH  21  22
ENDBRANCH  15  21
ENDBRANCH  14  18
ENDBRANCH   1  14
TORSDOF 5
ENDMDL
MODEL 4
REMARK VINA RESULT:    -5.577      4.128      5.546
REMARK INTER + INTRA:          -7.897
REMARK INTER:                  -7.577
REMARK INTRA:                  -0.320
REMARK UNBOUND:                -0.853
REMARK  Name = 
REMARK  5 active torsions:
REMARK  status: ('A' for Active; 'I' for Inactive)
REMARK    1  A    between atoms: N_1  and  C_2
REMARK    2  A    between atoms: C_2  and  C_3
REMARK    3  A    between atoms: C_6  and  C_7
REMARK    4  A    between atoms: C_7  and  N_8
REMARK    5  A    between atoms: C_14  and  C_15
REMARK                            x       y       z     vdW  Elec       q    Type
REMARK                         _______ _______ _______ _____ _____    ______ ____
ROOT
ATOM      1  N   UNL     1      47.516   5.458  13.939  0.00  0.00    +0.000 N 
ATOM      2  C   UNL     1      48.297   6.568  13.725  0.00  0.00    +0.000 A 
ATOM      3  C   UNL     1      47.664   7.360  12.795  0.00  0.00    +0.000 A 
ATOM      4  C   UNL     1      46.501   6.668  12.359  0.00  0.00    +0.000 A 
ATOM      5  C   UNL     1      45.493   6.957  11.436  0.00  0.00    +0.000 A 
ATOM      6  N   UNL     1      44.517   6.054  11.173  0.00  0.00    +0.000 NA
ATOM      7  C   UNL     1      44.509   4.855  11.823  0.00  0.00    +0.000 A 
ATOM      8  C   UNL     1      45.452   4.516  12.799  0.00  0.00    +0.000 A 
ATOM      9  C   UNL     1      46.454   5.456  13.053  0.00  0.00    +0.000 A 
ENDROOT
BRANCH   7  10
ATOM     10  C   UNL     1      43.449   3.820  11.465  0.00  0.00    +0.000 C 
ATOM     11  F   UNL     1      43.354   2.776  12.337  0.00  0.00    +0.000 F 
ATOM     12  F   UNL     1      42.196   4.363  11.402  0.00  0.00    +0.000 F 
ATOM     13  F   UNL     1      43.660   3.260  10.237  0.00  0.00    +0.000 F 
ENDBRANCH   7  10
BRANCH   1  14
ATOM     14  C   UNL     1      47.775   4.465  14.978  0.00  0.00    +0.000 C 
BRANCH  14  18
ATOM     15  C   UNL     1      49.491   3.915  18.442  0.00  0.00    +0.000 C 
ATOM     16  C   UNL     1      48.364   3.051  17.857  0.00  0.00    +0.000 C 
ATOM     17  C   UNL     1      47.163   3.881  17.412  0.00  0.00    +0.000 C 
ATOM     18  C   UNL     1      47.527   4.993  16.410  0.00  0.00    +0.000 C 
ATOM     19  C   UNL     1      48.721   5.824  16.911  0.00  0.00    +0.000 C 
ATOM     20  C   UNL     1      49.897   4.987  17.419  0.00  0.00    +0.000 C 
BRANCH  15  21
ATOM     21  C   UNL     1      49.139   4.544  19.808  0.00  0.00    +0.000 C 
BRANCH  21  22
ATOM     22  N   UNL     1      48.348   3.639  20.635  0.00  0.00    +0.000 NA
ATOM     23  H   UNL     1      48.273   2.733  20.174  0.00  0.00    +0.000 HD
ATOM     24  H   UNL     1      47.397   3.994  20.727  0.00  0.00    +0.000 HD
ENDBRANCH  21  22
ENDBRANCH  15  21
ENDBRANCH  14  18
ENDBRANCH   1  14
TORSDOF 5
ENDMDL
MODEL 5
REMARK VINA RESULT:    -5.529      4.453      7.597
REMARK INTER + INTRA:          -7.836
REMARK INTER:                  -7.167
REMARK INTRA:                  -0.669
REMARK UNBOUND:                -0.853
REMARK  Name = 
REMARK  5 active torsions:
REMARK  status: ('A' for Active; 'I' for Inactive)
REMARK    1  A    between atoms: N_1  and  C_2
REMARK    2  A    between atoms: C_2  and  C_3
REMARK    3  A    between atoms: C_6  and  C_7
REMARK    4  A    between atoms: C_7  and  N_8
REMARK    5  A    between atoms: C_14  and  C_15
REMARK                            x       y       z     vdW  Elec       q    Type
REMARK                         _______ _______ _______ _____ _____    ______ ____
ROOT
ATOM      1  N   UNL     1      47.674   7.425  13.450  0.00  0.00    +0.000 N 
ATOM      2  C   UNL     1      48.450   8.384  12.847  0.00  0.00    +0.000 A 
ATOM      3  C   UNL     1      49.689   8.366  13.446  0.00  0.00    +0.000 A 
ATOM      4  C   UNL     1      49.640   7.425  14.511  0.00  0.00    +0.000 A 
ATOM      5  C   UNL     1      50.565   6.993  15.464  0.00  0.00    +0.000 A 
ATOM      6  N   UNL     1      50.207   6.108  16.425  0.00  0.00    +0.000 NA
ATOM      7  C   UNL     1      48.933   5.621  16.457  0.00  0.00    +0.000 A 
ATOM      8  C   UNL     1      47.966   5.964  15.506  0.00  0.00    +0.000 A 
ATOM      9  C   UNL     1      48.352   6.883  14.527  0.00  0.00    +0.000 A 
ENDROOT
BRANCH   7  10
ATOM     10  C   UNL     1      48.522   4.683  17.585  0.00  0.00    +0.000 C 
ATOM     11  F   UNL     1      49.000   5.026  18.815  0.00  0.00    +0.000 F 
ATOM     12  F   UNL     1      47.164   4.605  17.726  0.00  0.00    +0.000 F 
ATOM     13  F   UNL     1      48.934   3.397  17.373  0.00  0.00    +0.000 F 
ENDBRANCH   7  10
BRANCH   1  14
ATOM     14  C   UNL     1      46.348   7.033  12.979  0.00  0.00    +0.000 C 
BRANCH  14  18
ATOM     15  C   UNL     1      43.570   4.544  11.821  0.00  0.00    +0.000 C 
ATOM     16  C   UNL     1      44.294   4.508  13.175  0.00  0.00    +0.000 C 
ATOM     17  C   UNL     1      45.813   4.513  13.027  0.00  0.00    +0.000 C 
ATOM     18  C   UNL     1      46.340   5.699  12.198  0.00  0.00    +0.000 C 
ATOM     19  C   UNL     1      45.573   5.835  10.871  0.00  0.00    +0.000 C 
ATOM     20  C   UNL     1      44.052   5.763  11.018  0.00  0.00    +0.000 C 
BRANCH  15  21
ATOM     21  C   UNL     1      43.717   3.240  11.008  0.00  0.00    +0.000 C 
BRANCH  21  22
ATOM     22  N   UNL     1      43.039   2.119  11.652  0.00  0.00    +0.000 NA
ATOM     23  H   UNL     1      42.277   2.469  12.232  0.00  0.00    +0.000 HD
ATOM     24  H   UNL     1      43.681   1.640  12.281  0.00  0.00    +0.000 HD
ENDBRANCH  21  22
ENDBRANCH  15  21
ENDBRANCH  14  18
ENDBRANCH   1  14
TORSDOF 5
ENDMDL
MODEL 6
REMARK VINA RESULT:    -5.152      2.769      4.263
REMARK INTER + INTRA:          -7.360
REMARK INTER:                  -6.752
REMARK INTRA:                  -0.609
REMARK UNBOUND:                -0.853
REMARK  Name = 
REMARK  5 active torsions:
REMARK  status: ('A' for Active; 'I' for Inactive)
REMARK    1  A    between atoms: N_1  and  C_2
REMARK    2  A    between atoms: C_2  and  C_3
REMARK    3  A    between atoms: C_6  and  C_7
REMARK    4  A    between atoms: C_7  and  N_8
REMARK    5  A    between atoms: C_14  and  C_15
REMARK                            x       y       z     vdW  Elec       q    Type
REMARK                         _______ _______ _______ _____ _____    ______ ____
ROOT
ATOM      1  N   UNL     1      46.177   8.019  12.674  0.00  0.00    +0.000 N 
ATOM      2  C   UNL     1      45.641   9.169  12.149  0.00  0.00    +0.000 A 
ATOM      3  C   UNL     1      44.467   8.839  11.512  0.00  0.00    +0.000 A 
ATOM      4  C   UNL     1      44.326   7.425  11.572  0.00  0.00    +0.000 A 
ATOM      5  C   UNL     1      43.366   6.527  11.098  0.00  0.00    +0.000 A 
ATOM      6  N   UNL     1      43.534   5.191  11.252  0.00  0.00    +0.000 NA
ATOM      7  C   UNL     1      44.643   4.716  11.886  0.00  0.00    +0.000 A 
ATOM      8  C   UNL     1      45.620   5.552  12.435  0.00  0.00    +0.000 A 
ATOM      9  C   UNL     1      45.434   6.927  12.262  0.00  0.00    +0.000 A 
ENDROOT
BRANCH   7  10
ATOM     10  C   UNL     1      44.856   3.210  11.988  0.00  0.00    +0.000 C 
ATOM     11  F   UNL     1      43.804   2.519  12.513  0.00  0.00    +0.000 F 
ATOM     12  F   UNL     1      45.102   2.638  10.770  0.00  0.00    +0.000 F 
ATOM     13  F   UNL     1      45.935   2.885  12.761  0.00  0.00    +0.000 F 
ENDBRANCH   7  10
BRANCH   1  14
ATOM     14  C   UNL     1      47.337   7.988  13.560  0.00  0.00    +0.000 C 
BRANCH  14  18
ATOM     15  C   UNL     1      50.881   9.206  12.458  0.00  0.00    +0.000 C 
ATOM     16  C   UNL     1      49.620   9.215  11.580  0.00  0.00    +0.000 C 
ATOM     17  C   UNL     1      48.928   7.856  11.537  0.00  0.00    +0.000 C 
ATOM     18  C   UNL     1      48.575   7.307  12.932  0.00  0.00    +0.000 C 
ATOM     19  C   UNL     1      49.786   7.371  13.879  0.00  0.00    +0.000 C 
ATOM     20  C   UNL     1      50.517   8.716  13.869  0.00  0.00    +0.000 C 
BRANCH  15  21
ATOM     21  C   UNL     1      52.043   8.385  11.859  0.00  0.00    +0.000 C 
BRANCH  21  22
ATOM     22  N   UNL     1      53.058   8.071  12.860  0.00  0.00    +0.000 NA
ATOM     23  H   UNL     1      53.896   7.718  12.398  0.00  0.00    +0.000 HD
ATOM     24  H   UNL     1      52.728   7.321  13.467  0.00  0.00    +0.000 HD
ENDBRANCH  21  22
ENDBRANCH  15  21
ENDBRANCH  14  18
ENDBRANCH   1  14
TORSDOF 5
ENDMDL
MODEL 7
REMARK VINA RESULT:    -4.973      3.220      6.807
REMARK INTER + INTRA:          -7.135
REMARK INTER:                  -6.481
REMARK INTRA:                  -0.654
REMARK UNBOUND:                -0.853
REMARK  Name = 
REMARK  5 active torsions:
REMARK  status: ('A' for Active; 'I' for Inactive)
REMARK    1  A    between atoms: N_1  and  C_2
REMARK    2  A    between atoms: C_2  and  C_3
REMARK    3  A    between atoms: C_6  and  C_7
REMARK    4  A    between atoms: C_7  and  N_8
REMARK    5  A    between atoms: C_14  and  C_15
REMARK                            x       y       z     vdW  Elec       q    Type
REMARK                         _______ _______ _______ _____ _____    ______ ____
ROOT
ATOM      1  N   UNL     1      48.266   7.512  13.476  0.00  0.00    +0.000 N 
ATOM      2  C   UNL     1      47.848   8.336  14.493  0.00  0.00    +0.000 A 
ATOM      3  C   UNL     1      48.550   9.516  14.398  0.00  0.00    +0.000 A 
ATOM      4  C   UNL     1      49.492   9.375  13.343  0.00  0.00    +0.000 A 
ATOM      5  C   UNL     1      50.469  10.213  12.800  0.00  0.00    +0.000 A 
ATOM      6  N   UNL     1      51.288   9.772  11.814  0.00  0.00    +0.000 NA
ATOM      7  C   UNL     1      51.150   8.503  11.335  0.00  0.00    +0.000 A 
ATOM      8  C   UNL     1      50.161   7.624  11.789  0.00  0.00    +0.000 A 
ATOM      9  C   UNL     1      49.331   8.093  12.811  0.00  0.00    +0.000 A 
ENDROOT
BRANCH   7  10
ATOM     10  C   UNL     1      52.122   7.996  10.277  0.00  0.00    +0.000 C 
ATOM     11  F   UNL     1      52.498   8.926   9.354  0.00  0.00    +0.000 F 
ATOM     12  F   UNL     1      53.285   7.528  10.824  0.00  0.00    +0.000 F 
ATOM     13  F   UNL     1      51.617   6.946   9.561  0.00  0.00    +0.000 F 
ENDBRANCH   7  10
BRANCH   1  14
ATOM     14  C   UNL     1      47.637   6.236  13.149  0.00  0.00    +0.000 C 
BRANCH  14  18
ATOM     15  C   UNL     1      44.997   4.507  10.848  0.00  0.00    +0.000 C 
ATOM     16  C   UNL     1      45.766   5.794  10.515  0.00  0.00    +0.000 C 
ATOM     17  C   UNL     1      45.656   6.844  11.617  0.00  0.00    +0.000 C 
ATOM     18  C   UNL     1      46.101   6.326  12.998  0.00  0.00    +0.000 C 
ATOM     19  C   UNL     1      45.429   4.983  13.332  0.00  0.00    +0.000 C 
ATOM     20  C   UNL     1      45.484   3.956  12.198  0.00  0.00    +0.000 C 
BRANCH  15  21
ATOM     21  C   UNL     1      43.463   4.684  10.833  0.00  0.00    +0.000 C 
BRANCH  21  22
ATOM     22  N   UNL     1      42.780   3.552  11.450  0.00  0.00    +0.000 NA
ATOM     23  H   UNL     1      43.397   2.741  11.455  0.00  0.00    +0.000 HD
ATOM     24  H   UNL     1      41.967   3.290  10.893  0.00  0.00    +0.000 HD
ENDBRANCH  21  22
ENDBRANCH  15  21
ENDBRANCH  14  18
ENDBRANCH   1  14
TORSDOF 5
ENDMDL
MODEL 8
REMARK VINA RESULT:    -4.906      4.593      7.831
REMARK INTER + INTRA:          -7.050
REMARK INTER:                  -6.200
REMARK INTRA:                  -0.849
REMARK UNBOUND:                -0.853
REMARK  Name = 
REMARK  5 active torsions:
REMARK  status: ('A' for Active; 'I' for Inactive)
REMARK    1  A    between atoms: N_1  and  C_2
REMARK    2  A    between atoms: C_2  and  C_3
REMARK    3  A    between atoms: C_6  and  C_7
REMARK    4  A    between atoms: C_7  and  N_8
REMARK    5  A    between atoms: C_14  and  C_15
REMARK                            x       y       z     vdW  Elec       q    Type
REMARK                         _______ _______ _______ _____ _____    ______ ____
ROOT
ATOM      1  N   UNL     1      49.158   8.165  14.851  0.00  0.00    +0.000 N 
ATOM      2  C   UNL     1      50.316   8.871  14.637  0.00  0.00    +0.000 A 
ATOM      3  C   UNL     1      51.353   8.166  15.203  0.00  0.00    +0.000 A 
ATOM      4  C   UNL     1      50.798   7.035  15.861  0.00  0.00    +0.000 A 
ATOM      5  C   UNL     1      51.342   5.985  16.607  0.00  0.00    +0.000 A 
ATOM      6  N   UNL     1      50.539   5.059  17.185  0.00  0.00    +0.000 NA
ATOM      7  C   UNL     1      49.187   5.142  17.029  0.00  0.00    +0.000 A 
ATOM      8  C   UNL     1      48.572   6.130  16.254  0.00  0.00    +0.000 A 
ATOM      9  C   UNL     1      49.415   7.081  15.670  0.00  0.00    +0.000 A 
ENDROOT
BRANCH   7  10
ATOM     10  C   UNL     1      48.292   4.138  17.744  0.00  0.00    +0.000 C 
ATOM     11  F   UNL     1      48.916   2.988  18.128  0.00  0.00    +0.000 F 
ATOM     12  F   UNL     1      47.738   4.655  18.882  0.00  0.00    +0.000 F 
ATOM     13  F   UNL     1      47.231   3.744  16.977  0.00  0.00    +0.000 F 
ENDBRANCH   7  10
BRANCH   1  14
ATOM     14  C   UNL     1      47.869   8.512  14.259  0.00  0.00    +0.000 C 
BRANCH  14  18
ATOM     15  C   UNL     1      45.648   5.983  12.278  0.00  0.00    +0.000 C 
ATOM     16  C   UNL     1      46.999   5.661  12.935  0.00  0.00    +0.000 C 
ATOM     17  C   UNL     1      48.100   6.630  12.513  0.00  0.00    +0.000 C 
ATOM     18  C   UNL     1      47.744   8.107  12.772  0.00  0.00    +0.000 C 
ATOM     19  C   UNL     1      46.351   8.449  12.216  0.00  0.00    +0.000 C 
ATOM     20  C   UNL     1      45.263   7.439  12.587  0.00  0.00    +0.000 C 
BRANCH  15  21
ATOM     21  C   UNL     1      45.619   5.703  10.760  0.00  0.00    +0.000 C 
BRANCH  21  22
ATOM     22  N   UNL     1      44.263   5.454  10.280  0.00  0.00    +0.000 NA
ATOM     23  H   UNL     1      43.808   6.341  10.067  0.00  0.00    +0.000 HD
ATOM     24  H   UNL     1      43.709   5.017  11.015  0.00  0.00    +0.000 HD
ENDBRANCH  21  22
ENDBRANCH  15  21
ENDBRANCH  14  18
ENDBRANCH   1  14
TORSDOF 5
ENDMDL
MODEL 9
REMARK VINA RESULT:    -4.643      3.247      5.199
REMARK INTER + INTRA:          -6.718
REMARK INTER:                  -6.201
REMARK INTRA:                  -0.516
REMARK UNBOUND:                -0.853
REMARK  Name = 
REMARK  5 active torsions:
REMARK  status: ('A' for Active; 'I' for Inactive)
REMARK    1  A    between atoms: N_1  and  C_2
REMARK    2  A    between atoms: C_2  and  C_3
REMARK    3  A    between atoms: C_6  and  C_7
REMARK    4  A    between atoms: C_7  and  N_8
REMARK    5  A    between atoms: C_14  and  C_15
REMARK                            x       y       z     vdW  Elec       q    Type
REMARK                         _______ _______ _______ _____ _____    ______ ____
ROOT
ATOM      1  N   UNL     1      47.501   7.220  13.745  0.00  0.00    +0.000 N 
ATOM      2  C   UNL     1      47.417   8.569  13.499  0.00  0.00    +0.000 A 
ATOM      3  C   UNL     1      46.280   8.795  12.757  0.00  0.00    +0.000 A 
ATOM      4  C   UNL     1      45.698   7.531  12.464  0.00  0.00    +0.000 A 
ATOM      5  C   UNL     1      44.566   7.130  11.749  0.00  0.00    +0.000 A 
ATOM      6  N   UNL     1      44.288   5.815  11.576  0.00  0.00    +0.000 NA
ATOM      7  C   UNL     1      45.111   4.871  12.116  0.00  0.00    +0.000 A 
ATOM      8  C   UNL     1      46.231   5.194  12.889  0.00  0.00    +0.000 A 
ATOM      9  C   UNL     1      46.506   6.555  13.051  0.00  0.00    +0.000 A 
ENDROOT
BRANCH   7  10
ATOM     10  C   UNL     1      44.828   3.397  11.853  0.00  0.00    +0.000 C 
ATOM     11  F   UNL     1      43.565   2.993  12.168  0.00  0.00    +0.000 F 
ATOM     12  F   UNL     1      45.005   3.062  10.539  0.00  0.00    +0.000 F 
ATOM     13  F   UNL     1      45.666   2.571  12.549  0.00  0.00    +0.000 F 
ENDBRANCH   7  10
BRANCH   1  14
ATOM     14  C   UNL     1      48.483   6.613  14.639  0.00  0.00    +0.000 C 
BRANCH  14  18
ATOM     15  C   UNL     1      50.423   6.484  18.026  0.00  0.00    +0.000 C 
ATOM     16  C   UNL     1      48.923   6.776  17.866  0.00  0.00    +0.000 C 
ATOM     17  C   UNL     1      48.648   7.896  16.867  0.00  0.00    +0.000 C 
ATOM     18  C   UNL     1      49.270   7.643  15.481  0.00  0.00    +0.000 C 
ATOM     19  C   UNL     1      50.753   7.249  15.600  0.00  0.00    +0.000 C 
ATOM     20  C   UNL     1      51.032   6.172  16.650  0.00  0.00    +0.000 C 
BRANCH  15  21
ATOM     21  C   UNL     1      51.197   7.613  18.741  0.00  0.00    +0.000 C 
BRANCH  21  22
ATOM     22  N   UNL     1      52.598   7.261  18.952  0.00  0.00    +0.000 NA
ATOM     23  H   UNL     1      53.052   7.984  19.508  0.00  0.00    +0.000 HD
ATOM     24  H   UNL     1      53.088   7.236  18.058  0.00  0.00    +0.000 HD
ENDBRANCH  21  22
ENDBRANCH  15  21
ENDBRANCH  14  18
ENDBRANCH   1  14
TORSDOF 5
ENDMDL
