MODEL 1
REMARK VINA RESULT:    -7.290      0.000      0.000
REMARK INTER + INTRA:          -9.102
REMARK INTER:                  -8.995
REMARK INTRA:                  -0.107
REMARK UNBOUND:                -0.107
REMARK  Name = 
REMARK  4 active torsions:
REMARK  status: ('A' for Active; 'I' for Inactive)
REMARK    1  A    between atoms: C_2  and  C_4
REMARK    2  A    between atoms: C_7  and  C_8
REMARK    3  A    between atoms: C_8  and  C_9
REMARK    4  A    between atoms: C_14  and  C_15
REMARK                            x       y       z     vdW  Elec       q    Type
REMARK                         _______ _______ _______ _____ _____    ______ ____
ROOT
ATOM      1  C   UNL     1      44.412   4.346  11.045  0.00  0.00    +0.000 C 
ATOM      2  C   UNL     1      43.067   3.688  11.374  0.00  0.00    +0.000 C 
ATOM      3  C   UNL     1      43.094   5.088  10.873  0.00  0.00    +0.000 C 
ENDROOT
BRANCH   1   7
ATOM      4  C   UNL     1      46.430   2.848   7.653  0.00  0.00    +0.000 A 
ATOM      5  C   UNL     1      46.228   4.197   7.812  0.00  0.00    +0.000 A 
ATOM      6  N   UNL     1      45.579   4.712   8.881  0.00  0.00    +0.000 NA
ATOM      7  C   UNL     1      45.131   3.818   9.799  0.00  0.00    +0.000 A 
ATOM      8  N   UNL     1      45.283   2.475   9.643  0.00  0.00    +0.000 NA
ATOM      9  N   UNL     1      45.949   1.977   8.559  0.00  0.00    +0.000 NA
BRANCH   4  11
ATOM     10  N   UNL     1      47.185   3.011   5.361  0.00  0.00    +0.000 N 
ATOM     11  C   UNL     1      47.231   2.314   6.535  0.00  0.00    +0.000 C 
ATOM     12  O   UNL     1      47.887   1.282   6.649  0.00  0.00    +0.000 OA
ATOM     13  H   UNL     1      47.665   2.641   4.549  0.00  0.00    +0.000 HD
ATOM     14  H   UNL     1      46.616   3.845   5.261  0.00  0.00    +0.000 HD
ENDBRANCH   4  11
ENDBRANCH   1   7
BRANCH   1  15
ATOM     15  C   UNL     1      45.370   4.669  12.198  0.00  0.00    +0.000 A 
ATOM     16  C   UNL     1      45.855   3.592  12.980  0.00  0.00    +0.000 A 
ATOM     17  C   UNL     1      46.937   3.728  13.848  0.00  0.00    +0.000 A 
ATOM     18  C   UNL     1      47.576   4.952  13.963  0.00  0.00    +0.000 A 
ATOM     19  C   UNL     1      47.075   6.051  13.273  0.00  0.00    +0.000 A 
ATOM     20  C   UNL     1      45.956   5.940  12.415  0.00  0.00    +0.000 A 
BRANCH  20  21
ATOM     21  C   UNL     1      45.494   7.222  11.754  0.00  0.00    +0.000 C 
ATOM     22  F   UNL     1      44.209   7.587  11.992  0.00  0.00    +0.000 F 
ATOM     23  F   UNL     1      46.246   8.289  12.157  0.00  0.00    +0.000 F 
ATOM     24  F   UNL     1      45.626   7.181  10.397  0.00  0.00    +0.000 F 
ENDBRANCH  20  21
ENDBRANCH   1  15
TORSDOF 4
ENDMDL
MODEL 2
REMARK VINA RESULT:    -7.048      1.860      2.790
REMARK INTER + INTRA:          -8.803
REMARK INTER:                  -8.765
REMARK INTRA:                  -0.037
REMARK UNBOUND:                -0.107
REMARK  Name = 
REMARK  4 active torsions:
REMARK  status: ('A' for Active; 'I' for Inactive)
REMARK    1  A    between atoms: C_2  and  C_4
REMARK    2  A    between atoms: C_7  and  C_8
REMARK    3  A    between atoms: C_8  and  C_9
REMARK    4  A    between atoms: C_14  and  C_15
REMARK                            x       y       z     vdW  Elec       q    Type
REMARK                         _______ _______ _______ _____ _____    ______ ____
ROOT
ATOM      1  C   UNL     1      43.931   5.415  11.540  0.00  0.00    +0.000 C 
ATOM      2  C   UNL     1      43.200   4.733  12.702  0.00  0.00    +0.000 C 
ATOM      3  C   UNL     1      42.416   5.476  11.680  0.00  0.00    +0.000 C 
ENDROOT
BRANCH   1   7
ATOM      4  C   UNL     1      45.625   2.796   8.696  0.00  0.00    +0.000 A 
ATOM      5  C   UNL     1      45.803   4.154   8.595  0.00  0.00    +0.000 A 
ATOM      6  N   UNL     1      45.269   5.022   9.482  0.00  0.00    +0.000 NA
ATOM      7  C   UNL     1      44.538   4.480  10.489  0.00  0.00    +0.000 A 
ATOM      8  N   UNL     1      44.314   3.141  10.587  0.00  0.00    +0.000 NA
ATOM      9  N   UNL     1      44.869   2.281   9.684  0.00  0.00    +0.000 NA
BRANCH   4  11
ATOM     10  N   UNL     1      46.752   2.374   6.598  0.00  0.00    +0.000 N 
ATOM     11  C   UNL     1      46.302   1.858   7.781  0.00  0.00    +0.000 C 
ATOM     12  O   UNL     1      46.433   0.669   8.058  0.00  0.00    +0.000 OA
ATOM     13  H   UNL     1      47.162   1.750   5.912  0.00  0.00    +0.000 HD
ATOM     14  H   UNL     1      46.613   3.350   6.359  0.00  0.00    +0.000 HD
ENDBRANCH   4  11
ENDBRANCH   1   7
BRANCH   1  15
ATOM     15  C   UNL     1      44.814   6.631  11.843  0.00  0.00    +0.000 A 
ATOM     16  C   UNL     1      44.409   7.889  11.332  0.00  0.00    +0.000 A 
ATOM     17  C   UNL     1      44.960   9.089  11.781  0.00  0.00    +0.000 A 
ATOM     18  C   UNL     1      45.938   9.072  12.761  0.00  0.00    +0.000 A 
ATOM     19  C   UNL     1      46.417   7.851  13.226  0.00  0.00    +0.000 A 
ATOM     20  C   UNL     1      45.896   6.623  12.757  0.00  0.00    +0.000 A 
BRANCH  20  21
ATOM     21  C   UNL     1      46.533   5.371  13.320  0.00  0.00    +0.000 C 
ATOM     22  F   UNL     1      46.682   4.335  12.455  0.00  0.00    +0.000 F 
ATOM     23  F   UNL     1      47.790   5.620  13.793  0.00  0.00    +0.000 F 
ATOM     24  F   UNL     1      45.842   4.871  14.385  0.00  0.00    +0.000 F 
ENDBRANCH  20  21
ENDBRANCH   1  15
TORSDOF 4
ENDMDL
MODEL 3
REMARK VINA RESULT:    -6.846      3.608      5.939
REMARK INTER + INTRA:          -8.553
REMARK INTER:                  -9.024
REMARK INTRA:                   0.470
REMARK UNBOUND:                -0.107
REMARK  Name = 
REMARK  4 active torsions:
REMARK  status: ('A' for Active; 'I' for Inactive)
REMARK    1  A    between atoms: C_2  and  C_4
REMARK    2  A    between atoms: C_7  and  C_8
REMARK    3  A    between atoms: C_8  and  C_9
REMARK    4  A    between atoms: C_14  and  C_15
REMARK                            x       y       z     vdW  Elec       q    Type
REMARK                         _______ _______ _______ _____ _____    ______ ____
ROOT
ATOM      1  C   UNL     1      46.187   6.367  12.185  0.00  0.00    +0.000 C 
ATOM      2  C   UNL     1      47.104   7.537  11.808  0.00  0.00    +0.000 C 
ATOM      3  C   UNL     1      45.860   7.801  12.580  0.00  0.00    +0.000 C 
ENDROOT
BRANCH   1   7
ATOM      4  C   UNL     1      47.607   3.691  15.124  0.00  0.00    +0.000 A 
ATOM      5  C   UNL     1      47.640   5.048  15.333  0.00  0.00    +0.000 A 
ATOM      6  N   UNL     1      47.202   5.934  14.412  0.00  0.00    +0.000 NA
ATOM      7  C   UNL     1      46.723   5.411  13.255  0.00  0.00    +0.000 A 
ATOM      8  N   UNL     1      46.718   4.073  13.007  0.00  0.00    +0.000 NA
ATOM      9  N   UNL     1      47.159   3.194  13.955  0.00  0.00    +0.000 NA
BRANCH   4  11
ATOM     10  N   UNL     1      47.259   2.772  17.334  0.00  0.00    +0.000 N 
ATOM     11  C   UNL     1      47.991   2.736  16.180  0.00  0.00    +0.000 C 
ATOM     12  O   UNL     1      48.936   1.965  16.039  0.00  0.00    +0.000 OA
ATOM     13  H   UNL     1      47.533   2.181  18.110  0.00  0.00    +0.000 HD
ATOM     14  H   UNL     1      46.500   3.433  17.459  0.00  0.00    +0.000 HD
ENDBRANCH   4  11
ENDBRANCH   1   7
BRANCH   1  15
ATOM     15  C   UNL     1      45.420   5.649  11.068  0.00  0.00    +0.000 A 
ATOM     16  C   UNL     1      46.047   5.532   9.803  0.00  0.00    +0.000 A 
ATOM     17  C   UNL     1      45.582   4.661   8.818  0.00  0.00    +0.000 A 
ATOM     18  C   UNL     1      44.470   3.873   9.066  0.00  0.00    +0.000 A 
ATOM     19  C   UNL     1      43.782   4.022  10.267  0.00  0.00    +0.000 A 
ATOM     20  C   UNL     1      44.218   4.926  11.263  0.00  0.00    +0.000 A 
BRANCH  20  21
ATOM     21  C   UNL     1      43.356   5.014  12.505  0.00  0.00    +0.000 C 
ATOM     22  F   UNL     1      43.669   6.003  13.380  0.00  0.00    +0.000 F 
ATOM     23  F   UNL     1      42.044   5.225  12.187  0.00  0.00    +0.000 F 
ATOM     24  F   UNL     1      43.369   3.858  13.228  0.00  0.00    +0.000 F 
ENDBRANCH  20  21
ENDBRANCH   1  15
TORSDOF 4
ENDMDL
MODEL 4
REMARK VINA RESULT:    -6.378      3.959      5.810
REMARK INTER + INTRA:          -7.976
REMARK INTER:                  -8.052
REMARK INTRA:                   0.076
REMARK UNBOUND:                -0.107
REMARK  Name = 
REMARK  4 active torsions:
REMARK  status: ('A' for Active; 'I' for Inactive)
REMARK    1  A    between atoms: C_2  and  C_4
REMARK    2  A    between atoms: C_7  and  C_8
REMARK    3  A    between atoms: C_8  and  C_9
REMARK    4  A    between atoms: C_14  and  C_15
REMARK                            x       y       z     vdW  Elec       q    Type
REMARK                         _______ _______ _______ _____ _____    ______ ____
ROOT
ATOM      1  C   UNL     1      44.790   5.811  11.294  0.00  0.00    +0.000 C 
ATOM      2  C   UNL     1      43.891   7.027  11.041  0.00  0.00    +0.000 C 
ATOM      3  C   UNL     1      43.483   6.012  12.049  0.00  0.00    +0.000 C 
ENDROOT
BRANCH   1   7
ATOM      4  C   UNL     1      48.394   6.583  13.351  0.00  0.00    +0.000 A 
ATOM      5  C   UNL     1      48.068   7.283  12.215  0.00  0.00    +0.000 A 
ATOM      6  N   UNL     1      46.928   7.057  11.526  0.00  0.00    +0.000 NA
ATOM      7  C   UNL     1      46.110   6.092  12.017  0.00  0.00    +0.000 A 
ATOM      8  N   UNL     1      46.430   5.357  13.118  0.00  0.00    +0.000 NA
ATOM      9  N   UNL     1      47.585   5.607  13.803  0.00  0.00    +0.000 NA
BRANCH   4  11
ATOM     10  N   UNL     1      50.539   7.686  13.535  0.00  0.00    +0.000 N 
ATOM     11  C   UNL     1      49.591   6.915  14.146  0.00  0.00    +0.000 C 
ATOM     12  O   UNL     1      49.738   6.500  15.293  0.00  0.00    +0.000 OA
ATOM     13  H   UNL     1      51.406   7.880  14.022  0.00  0.00    +0.000 HD
ATOM     14  H   UNL     1      50.429   8.000  12.576  0.00  0.00    +0.000 HD
ENDBRANCH   4  11
ENDBRANCH   1   7
BRANCH   1  15
ATOM     15  C   UNL     1      44.923   4.757  10.188  0.00  0.00    +0.000 A 
ATOM     16  C   UNL     1      45.651   5.105   9.024  0.00  0.00    +0.000 A 
ATOM     17  C   UNL     1      46.081   4.153   8.100  0.00  0.00    +0.000 A 
ATOM     18  C   UNL     1      45.798   2.814   8.311  0.00  0.00    +0.000 A 
ATOM     19  C   UNL     1      45.015   2.445   9.401  0.00  0.00    +0.000 A 
ATOM     20  C   UNL     1      44.540   3.401  10.329  0.00  0.00    +0.000 A 
BRANCH  20  21
ATOM     21  C   UNL     1      43.669   2.867  11.447  0.00  0.00    +0.000 C 
ATOM     22  F   UNL     1      42.505   3.530  11.665  0.00  0.00    +0.000 F 
ATOM     23  F   UNL     1      43.301   1.572  11.217  0.00  0.00    +0.000 F 
ATOM     24  F   UNL     1      44.319   2.848  12.646  0.00  0.00    +0.000 F 
ENDBRANCH  20  21
ENDBRANCH   1  15
TORSDOF 4
ENDMDL
MODEL 5
REMARK VINA RESULT:    -5.841      5.637      7.666
REMARK INTER + INTRA:          -7.314
REMARK INTER:                  -7.338
REMARK INTRA:                   0.024
REMARK UNBOUND:                -0.107
REMARK  Name = 
REMARK  4 active torsions:
REMARK  status: ('A' for Active; 'I' for Inactive)
REMARK    1  A    between atoms: C_2  and  C_4
REMARK    2  A    between atoms: C_7  and  C_8
REMARK    3  A    between atoms: C_8  and  C_9
REMARK    4  A    between atoms: C_14  and  C_15
REMARK                            x       y       z     vdW  Elec       q    Type
REMARK                         _______ _______ _______ _____ _____    ______ ____
ROOT
ATOM      1  C   UNL     1      48.822   5.448  17.429  0.00  0.00    +0.000 C 
ATOM      2  C   UNL     1      48.095   5.181  18.752  0.00  0.00    +0.000 C 
ATOM      3  C   UNL     1      48.379   6.583  18.343  0.00  0.00    +0.000 C 
ENDROOT
BRANCH   1   7
ATOM      4  C   UNL     1      46.620   4.614  13.926  0.00  0.00    +0.000 A 
ATOM      5  C   UNL     1      47.555   5.620  13.946  0.00  0.00    +0.000 A 
ATOM      6  N   UNL     1      48.272   5.921  15.051  0.00  0.00    +0.000 NA
ATOM      7  C   UNL     1      48.019   5.171  16.154  0.00  0.00    +0.000 A 
ATOM      8  N   UNL     1      47.069   4.196  16.170  0.00  0.00    +0.000 NA
ATOM      9  N   UNL     1      46.361   3.905  15.040  0.00  0.00    +0.000 NA
BRANCH   4  11
ATOM     10  N   UNL     1      45.524   2.930  12.580  0.00  0.00    +0.000 N 
ATOM     11  C   UNL     1      45.923   4.232  12.683  0.00  0.00    +0.000 C 
ATOM     12  O   UNL     1      45.733   5.039  11.777  0.00  0.00    +0.000 OA
ATOM     13  H   UNL     1      45.103   2.610  11.716  0.00  0.00    +0.000 HD
ATOM     14  H   UNL     1      45.712   2.258  13.317  0.00  0.00    +0.000 HD
ENDBRANCH   4  11
ENDBRANCH   1   7
BRANCH   1  15
ATOM     15  C   UNL     1      50.296   5.044  17.309  0.00  0.00    +0.000 A 
ATOM     16  C   UNL     1      51.264   6.077  17.243  0.00  0.00    +0.000 A 
ATOM     17  C   UNL     1      52.625   5.836  17.426  0.00  0.00    +0.000 A 
ATOM     18  C   UNL     1      53.067   4.550  17.686  0.00  0.00    +0.000 A 
ATOM     19  C   UNL     1      52.154   3.499  17.677  0.00  0.00    +0.000 A 
ATOM     20  C   UNL     1      50.775   3.719  17.457  0.00  0.00    +0.000 A 
BRANCH  20  21
ATOM     21  C   UNL     1      49.899   2.484  17.437  0.00  0.00    +0.000 C 
ATOM     22  F   UNL     1      49.257   2.226  16.269  0.00  0.00    +0.000 F 
ATOM     23  F   UNL     1      50.622   1.356  17.701  0.00  0.00    +0.000 F 
ATOM     24  F   UNL     1      48.929   2.522  18.396  0.00  0.00    +0.000 F 
ENDBRANCH  20  21
ENDBRANCH   1  15
TORSDOF 4
ENDMDL
MODEL 6
REMARK VINA RESULT:    -5.724      5.513      7.587
REMARK INTER + INTRA:          -7.169
REMARK INTER:                  -6.859
REMARK INTRA:                  -0.311
REMARK UNBOUND:                -0.107
REMARK  Name = 
REMARK  4 active torsions:
REMARK  status: ('A' for Active; 'I' for Inactive)
REMARK    1  A    between atoms: C_2  and  C_4
REMARK    2  A    between atoms: C_7  and  C_8
REMARK    3  A    between atoms: C_8  and  C_9
REMARK    4  A    between atoms: C_14  and  C_15
REMARK                            x       y       z     vdW  Elec       q    Type
REMARK                         _______ _______ _______ _____ _____    ______ ____
ROOT
ATOM      1  C   UNL     1      49.485   6.206  16.865  0.00  0.00    +0.000 C 
ATOM      2  C   UNL     1      50.965   6.231  16.464  0.00  0.00    +0.000 C 
ATOM      3  C   UNL     1      50.490   5.221  17.447  0.00  0.00    +0.000 C 
ENDROOT
BRANCH   1   7
ATOM      4  C   UNL     1      46.828   4.792  13.906  0.00  0.00    +0.000 A 
ATOM      5  C   UNL     1      47.321   6.072  13.855  0.00  0.00    +0.000 A 
ATOM      6  N   UNL     1      48.167   6.561  14.788  0.00  0.00    +0.000 NA
ATOM      7  C   UNL     1      48.508   5.715  15.793  0.00  0.00    +0.000 A 
ATOM      8  N   UNL     1      48.000   4.456  15.888  0.00  0.00    +0.000 NA
ATOM      9  N   UNL     1      47.152   3.979  14.930  0.00  0.00    +0.000 NA
BRANCH   4  11
ATOM     10  N   UNL     1      45.764   2.895  12.848  0.00  0.00    +0.000 N 
ATOM     11  C   UNL     1      45.990   4.242  12.824  0.00  0.00    +0.000 C 
ATOM     12  O   UNL     1      45.539   4.956  11.932  0.00  0.00    +0.000 OA
ATOM     13  H   UNL     1      45.252   2.467  12.086  0.00  0.00    +0.000 HD
ATOM     14  H   UNL     1      46.166   2.303  13.568  0.00  0.00    +0.000 HD
ENDBRANCH   4  11
ENDBRANCH   1   7
BRANCH   1  15
ATOM     15  C   UNL     1      48.932   7.371  17.694  0.00  0.00    +0.000 A 
ATOM     16  C   UNL     1      49.274   8.688  17.300  0.00  0.00    +0.000 A 
ATOM     17  C   UNL     1      48.607   9.810  17.788  0.00  0.00    +0.000 A 
ATOM     18  C   UNL     1      47.567   9.653  18.689  0.00  0.00    +0.000 A 
ATOM     19  C   UNL     1      47.257   8.381  19.161  0.00  0.00    +0.000 A 
ATOM     20  C   UNL     1      47.948   7.234  18.704  0.00  0.00    +0.000 A 
BRANCH  20  21
ATOM     21  C   UNL     1      47.535   5.917  19.326  0.00  0.00    +0.000 C 
ATOM     22  F   UNL     1      48.543   5.072  19.660  0.00  0.00    +0.000 F 
ATOM     23  F   UNL     1      46.836   6.110  20.484  0.00  0.00    +0.000 F 
ATOM     24  F   UNL     1      46.700   5.202  18.518  0.00  0.00    +0.000 F 
ENDBRANCH  20  21
ENDBRANCH   1  15
TORSDOF 4
ENDMDL
MODEL 7
REMARK VINA RESULT:    -5.515      5.244      7.189
REMARK INTER + INTRA:          -6.911
REMARK INTER:                  -6.828
REMARK INTRA:                  -0.083
REMARK UNBOUND:                -0.107
REMARK  Name = 
REMARK  4 active torsions:
REMARK  status: ('A' for Active; 'I' for Inactive)
REMARK    1  A    between atoms: C_2  and  C_4
REMARK    2  A    between atoms: C_7  and  C_8
REMARK    3  A    between atoms: C_8  and  C_9
REMARK    4  A    between atoms: C_14  and  C_15
REMARK                            x       y       z     vdW  Elec       q    Type
REMARK                         _______ _______ _______ _____ _____    ______ ____
ROOT
ATOM      1  C   UNL     1      48.586   4.142  17.109  0.00  0.00    +0.000 C 
ATOM      2  C   UNL     1      49.180   2.729  17.124  0.00  0.00    +0.000 C 
ATOM      3  C   UNL     1      48.009   3.040  17.987  0.00  0.00    +0.000 C 
ENDROOT
BRANCH   1   7
ATOM      4  C   UNL     1      46.516   5.174  13.579  0.00  0.00    +0.000 A 
ATOM      5  C   UNL     1      47.576   5.928  14.018  0.00  0.00    +0.000 A 
ATOM      6  N   UNL     1      48.257   5.632  15.147  0.00  0.00    +0.000 NA
ATOM      7  C   UNL     1      47.835   4.541  15.836  0.00  0.00    +0.000 A 
ATOM      8  N   UNL     1      46.761   3.802  15.443  0.00  0.00    +0.000 NA
ATOM      9  N   UNL     1      46.092   4.114  14.294  0.00  0.00    +0.000 NA
BRANCH   4  11
ATOM     10  N   UNL     1      46.471   6.343  11.462  0.00  0.00    +0.000 N 
ATOM     11  C   UNL     1      45.853   5.449  12.291  0.00  0.00    +0.000 C 
ATOM     12  O   UNL     1      44.786   4.920  11.988  0.00  0.00    +0.000 OA
ATOM     13  H   UNL     1      46.015   6.612  10.599  0.00  0.00    +0.000 HD
ATOM     14  H   UNL     1      47.335   6.803  11.730  0.00  0.00    +0.000 HD
ENDBRANCH   4  11
ENDBRANCH   1   7
BRANCH   1  15
ATOM     15  C   UNL     1      49.413   5.289  17.703  0.00  0.00    +0.000 A 
ATOM     16  C   UNL     1      50.708   5.516  17.176  0.00  0.00    +0.000 A 
ATOM     17  C   UNL     1      51.421   6.688  17.427  0.00  0.00    +0.000 A 
ATOM     18  C   UNL     1      50.860   7.679  18.215  0.00  0.00    +0.000 A 
ATOM     19  C   UNL     1      49.624   7.455  18.816  0.00  0.00    +0.000 A 
ATOM     20  C   UNL     1      48.903   6.258  18.602  0.00  0.00    +0.000 A 
BRANCH  20  21
ATOM     21  C   UNL     1      47.590   6.131  19.345  0.00  0.00    +0.000 C 
ATOM     22  F   UNL     1      47.560   5.224  20.355  0.00  0.00    +0.000 F 
ATOM     23  F   UNL     1      47.227   7.314  19.922  0.00  0.00    +0.000 F 
ATOM     24  F   UNL     1      46.556   5.802  18.518  0.00  0.00    +0.000 F 
ENDBRANCH  20  21
ENDBRANCH   1  15
TORSDOF 4
ENDMDL
MODEL 8
REMARK VINA RESULT:    -5.367      5.605      7.525
REMARK INTER + INTRA:          -6.729
REMARK INTER:                  -6.849
REMARK INTRA:                   0.120
REMARK UNBOUND:                -0.107
REMARK  Name = 
REMARK  4 active torsions:
REMARK  status: ('A' for Active; 'I' for Inactive)
REMARK    1  A    between atoms: C_2  and  C_4
REMARK    2  A    between atoms: C_7  and  C_8
REMARK    3  A    between atoms: C_8  and  C_9
REMARK    4  A    between atoms: C_14  and  C_15
REMARK                            x       y       z     vdW  Elec       q    Type
REMARK                         _______ _______ _______ _____ _____    ______ ____
ROOT
ATOM      1  C   UNL     1      48.072   4.166  17.281  0.00  0.00    +0.000 C 
ATOM      2  C   UNL     1      48.927   2.895  17.346  0.00  0.00    +0.000 C 
ATOM      3  C   UNL     1      47.489   2.830  17.720  0.00  0.00    +0.000 C 
ENDROOT
BRANCH   1   7
ATOM      4  C   UNL     1      47.187   5.669  13.437  0.00  0.00    +0.000 A 
ATOM      5  C   UNL     1      46.454   4.640  13.976  0.00  0.00    +0.000 A 
ATOM      6  N   UNL     1      46.713   4.129  15.200  0.00  0.00    +0.000 NA
ATOM      7  C   UNL     1      47.749   4.687  15.877  0.00  0.00    +0.000 A 
ATOM      8  N   UNL     1      48.515   5.679  15.348  0.00  0.00    +0.000 NA
ATOM      9  N   UNL     1      48.230   6.186  14.112  0.00  0.00    +0.000 NA
BRANCH   4  11
ATOM     10  N   UNL     1      45.871   5.639  11.408  0.00  0.00    +0.000 N 
ATOM     11  C   UNL     1      46.823   6.284  12.147  0.00  0.00    +0.000 C 
ATOM     12  O   UNL     1      47.365   7.310  11.747  0.00  0.00    +0.000 OA
ATOM     13  H   UNL     1      45.642   5.990  10.486  0.00  0.00    +0.000 HD
ATOM     14  H   UNL     1      45.449   4.773  11.727  0.00  0.00    +0.000 HD
ENDBRANCH   4  11
ENDBRANCH   1   7
BRANCH   1  15
ATOM     15  C   UNL     1      48.352   5.288  18.288  0.00  0.00    +0.000 A 
ATOM     16  C   UNL     1      47.248   5.869  18.959  0.00  0.00    +0.000 A 
ATOM     17  C   UNL     1      47.400   6.675  20.086  0.00  0.00    +0.000 A 
ATOM     18  C   UNL     1      48.667   6.926  20.586  0.00  0.00    +0.000 A 
ATOM     19  C   UNL     1      49.778   6.439  19.905  0.00  0.00    +0.000 A 
ATOM     20  C   UNL     1      49.645   5.650  18.739  0.00  0.00    +0.000 A 
BRANCH  20  21
ATOM     21  C   UNL     1      50.937   5.217  18.078  0.00  0.00    +0.000 C 
ATOM     22  F   UNL     1      50.960   5.268  16.721  0.00  0.00    +0.000 F 
ATOM     23  F   UNL     1      51.987   5.992  18.479  0.00  0.00    +0.000 F 
ATOM     24  F   UNL     1      51.285   3.940  18.409  0.00  0.00    +0.000 F 
ENDBRANCH  20  21
ENDBRANCH   1  15
TORSDOF 4
ENDMDL
MODEL 9
REMARK VINA RESULT:    -5.327      7.370      8.920
REMARK INTER + INTRA:          -6.679
REMARK INTER:                  -6.698
REMARK INTRA:                   0.019
REMARK UNBOUND:                -0.107
REMARK  Name = 
REMARK  4 active torsions:
REMARK  status: ('A' for Active; 'I' for Inactive)
REMARK    1  A    between atoms: C_2  and  C_4
REMARK    2  A    between atoms: C_7  and  C_8
REMARK    3  A    between atoms: C_8  and  C_9
REMARK    4  A    between atoms: C_14  and  C_15
REMARK                            x       y       z     vdW  Elec       q    Type
REMARK                         _______ _______ _______ _____ _____    ______ ____
ROOT
ATOM      1  C   UNL     1      48.303   4.497  16.818  0.00  0.00    +0.000 C 
ATOM      2  C   UNL     1      46.957   3.977  17.335  0.00  0.00    +0.000 C 
ATOM      3  C   UNL     1      47.200   4.049  15.869  0.00  0.00    +0.000 C 
ENDROOT
BRANCH   1   7
ATOM      4  C   UNL     1      51.576   1.905  17.441  0.00  0.00    +0.000 A 
ATOM      5  C   UNL     1      51.614   3.205  17.882  0.00  0.00    +0.000 A 
ATOM      6  N   UNL     1      50.589   4.065  17.694  0.00  0.00    +0.000 NA
ATOM      7  C   UNL     1      49.507   3.575  17.036  0.00  0.00    +0.000 A 
ATOM      8  N   UNL     1      49.462   2.303  16.553  0.00  0.00    +0.000 NA
ATOM      9  N   UNL     1      50.507   1.449  16.762  0.00  0.00    +0.000 NA
BRANCH   4  11
ATOM     10  N   UNL     1      52.305  -0.181  18.424  0.00  0.00    +0.000 N 
ATOM     11  C   UNL     1      52.660   0.952  17.748  0.00  0.00    +0.000 C 
ATOM     12  O   UNL     1      53.825   1.179  17.433  0.00  0.00    +0.000 OA
ATOM     13  H   UNL     1      53.029  -0.829  18.714  0.00  0.00    +0.000 HD
ATOM     14  H   UNL     1      51.347  -0.350  18.711  0.00  0.00    +0.000 HD
ENDBRANCH   4  11
ENDBRANCH   1   7
BRANCH   1  15
ATOM     15  C   UNL     1      48.639   5.980  17.014  0.00  0.00    +0.000 A 
ATOM     16  C   UNL     1      49.055   6.722  15.881  0.00  0.00    +0.000 A 
ATOM     17  C   UNL     1      49.102   8.115  15.878  0.00  0.00    +0.000 A 
ATOM     18  C   UNL     1      48.730   8.818  17.011  0.00  0.00    +0.000 A 
ATOM     19  C   UNL     1      48.395   8.120  18.168  0.00  0.00    +0.000 A 
ATOM     20  C   UNL     1      48.377   6.707  18.201  0.00  0.00    +0.000 A 
BRANCH  20  21
ATOM     21  C   UNL     1      48.030   6.077  19.533  0.00  0.00    +0.000 C 
ATOM     22  F   UNL     1      48.689   4.931  19.842  0.00  0.00    +0.000 F 
ATOM     23  F   UNL     1      48.292   6.926  20.570  0.00  0.00    +0.000 F 
ATOM     24  F   UNL     1      46.702   5.783  19.637  0.00  0.00    +0.000 F 
ENDBRANCH  20  21
ENDBRANCH   1  15
TORSDOF 4
ENDMDL
