MODEL 1
REMARK VINA RESULT:    -7.863      0.000      0.000
REMARK INTER + INTRA:         -11.619
REMARK INTER:                 -10.621
REMARK INTRA:                  -0.998
REMARK UNBOUND:                -0.998
REMARK  Name = 
REMARK  6 active torsions:
REMARK  status: ('A' for Active; 'I' for Inactive)
REMARK    1  A    between atoms: C_2  and  C_25
REMARK    2  A    between atoms: N_3  and  C_4
REMARK    3  A    between atoms: C_4  and  C_5
REMARK    4  A    between atoms: C_8  and  C_9
REMARK    5  A    between atoms: C_9  and  N_10
REMARK    6  A    between atoms: C_11  and  C_13
REMARK                            x       y       z     vdW  Elec       q    Type
REMARK                         _______ _______ _______ _____ _____    ______ ____
ROOT
ATOM      1  C   UNL     1      44.767   5.819  10.845  0.00  0.00    +0.000 A 
ATOM      2  C   UNL     1      46.157   5.911  10.685  0.00  0.00    +0.000 A 
ATOM      3  C   UNL     1      46.929   6.710  11.539  0.00  0.00    +0.000 A 
ATOM      4  C   UNL     1      46.330   7.426  12.584  0.00  0.00    +0.000 A 
ATOM      5  C   UNL     1      44.940   7.333  12.742  0.00  0.00    +0.000 A 
ATOM      6  C   UNL     1      44.169   6.527  11.895  0.00  0.00    +0.000 A 
ENDROOT
BRANCH   1   7
ATOM      7  C   UNL     1      43.947   4.981   9.899  0.00  0.00    +0.000 C 
BRANCH   7  10
ATOM      8  O   UNL     1      44.929   2.407  10.160  0.00  0.00    +0.000 OA
ATOM      9  C   UNL     1      45.200   3.016   9.123  0.00  0.00    +0.000 C 
ATOM     10  N   UNL     1      44.759   4.307   8.917  0.00  0.00    +0.000 N 
ATOM     11  H   UNL     1      44.990   4.777   8.051  0.00  0.00    +0.000 HD
BRANCH   9  12
ATOM     12  C   UNL     1      45.984   2.433   8.056  0.00  0.00    +0.000 A 
ATOM     13  C   UNL     1      46.374   1.112   7.926  0.00  0.00    +0.000 A 
ATOM     14  N   UNL     1      47.126   0.809   6.805  0.00  0.00    +0.000 NA
ATOM     15  C   UNL     1      47.301   1.902   6.097  0.00  0.00    +0.000 A 
ATOM     16  S   UNL     1      46.582   3.328   6.719  0.00  0.00    +0.000 S 
ENDBRANCH   9  12
ENDBRANCH   7  10
ENDBRANCH   1   7
BRANCH   4  17
ATOM     17  C   UNL     1      47.138   8.289  13.525  0.00  0.00    +0.000 C 
BRANCH  17  18
ATOM     18  N   UNL     1      47.564   7.565  14.695  0.00  0.00    +0.000 N 
ATOM     19  C   UNL     1      48.787   6.935  14.746  0.00  0.00    +0.000 C 
ATOM     20  O   UNL     1      49.586   6.978  13.818  0.00  0.00    +0.000 OA
ATOM     21  H   UNL     1      46.833   7.249  15.327  0.00  0.00    +0.000 HD
BRANCH  19  22
ATOM     22  C   UNL     1      49.110   6.262  16.010  0.00  0.00    +0.000 A 
ATOM     23  C   UNL     1      50.154   6.722  16.801  0.00  0.00    +0.000 A 
ATOM     24  S   UNL     1      50.346   5.849  18.255  0.00  0.00    +0.000 S 
ATOM     25  C   UNL     1      49.081   4.785  17.848  0.00  0.00    +0.000 A 
ATOM     26  N   UNL     1      48.742   3.751  18.664  0.00  0.00    +0.000 NA
ATOM     27  C   UNL     1      47.786   3.007  18.217  0.00  0.00    +0.000 A 
ATOM     28  N   UNL     1      47.131   3.210  17.030  0.00  0.00    +0.000 N 
ATOM     29  C   UNL     1      47.407   4.267  16.198  0.00  0.00    +0.000 A 
ATOM     30  O   UNL     1      46.751   4.463  15.180  0.00  0.00    +0.000 OA
ATOM     31  C   UNL     1      48.498   5.114  16.640  0.00  0.00    +0.000 A 
ATOM     32  H   UNL     1      46.378   2.602  16.742  0.00  0.00    +0.000 HD
ENDBRANCH  19  22
ENDBRANCH  17  18
ENDBRANCH   4  17
TORSDOF 6
ENDMDL
MODEL 2
REMARK VINA RESULT:    -7.178      4.846      9.273
REMARK INTER + INTRA:         -10.694
REMARK INTER:                  -9.920
REMARK INTRA:                  -0.774
REMARK UNBOUND:                -0.998
REMARK  Name = 
REMARK  6 active torsions:
REMARK  status: ('A' for Active; 'I' for Inactive)
REMARK    1  A    between atoms: C_2  and  C_25
REMARK    2  A    between atoms: N_3  and  C_4
REMARK    3  A    between atoms: C_4  and  C_5
REMARK    4  A    between atoms: C_8  and  C_9
REMARK    5  A    between atoms: C_9  and  N_10
REMARK    6  A    between atoms: C_11  and  C_13
REMARK                            x       y       z     vdW  Elec       q    Type
REMARK                         _______ _______ _______ _____ _____    ______ ____
ROOT
ATOM      1  C   UNL     1      51.443   3.134  17.708  0.00  0.00    +0.000 A 
ATOM      2  C   UNL     1      50.765   4.337  17.954  0.00  0.00    +0.000 A 
ATOM      3  C   UNL     1      49.392   4.456  17.697  0.00  0.00    +0.000 A 
ATOM      4  C   UNL     1      48.662   3.369  17.199  0.00  0.00    +0.000 A 
ATOM      5  C   UNL     1      49.341   2.168  16.953  0.00  0.00    +0.000 A 
ATOM      6  C   UNL     1      50.711   2.045  17.219  0.00  0.00    +0.000 A 
ENDROOT
BRANCH   1   7
ATOM      7  C   UNL     1      52.925   3.032  17.959  0.00  0.00    +0.000 C 
BRANCH   7  10
ATOM      8  O   UNL     1      54.321   1.299  19.605  0.00  0.00    +0.000 OA
ATOM      9  C   UNL     1      54.143   0.953  18.435  0.00  0.00    +0.000 C 
ATOM     10  N   UNL     1      53.467   1.762  17.546  0.00  0.00    +0.000 N 
ATOM     11  H   UNL     1      53.329   1.446  16.594  0.00  0.00    +0.000 HD
BRANCH   9  12
ATOM     12  C   UNL     1      54.617  -0.310  17.914  0.00  0.00    +0.000 A 
ATOM     13  C   UNL     1      54.803  -1.490  18.611  0.00  0.00    +0.000 A 
ATOM     14  N   UNL     1      55.271  -2.563  17.874  0.00  0.00    +0.000 NA
ATOM     15  C   UNL     1      55.439  -2.187  16.627  0.00  0.00    +0.000 A 
ATOM     16  S   UNL     1      55.045  -0.557  16.270  0.00  0.00    +0.000 S 
ENDBRANCH   9  12
ENDBRANCH   7  10
ENDBRANCH   1   7
BRANCH   4  17
ATOM     17  C   UNL     1      47.180   3.466  16.920  0.00  0.00    +0.000 C 
BRANCH  17  18
ATOM     18  N   UNL     1      46.881   4.442  15.904  0.00  0.00    +0.000 N 
ATOM     19  C   UNL     1      46.992   4.144  14.565  0.00  0.00    +0.000 C 
ATOM     20  O   UNL     1      47.322   3.033  14.165  0.00  0.00    +0.000 OA
ATOM     21  H   UNL     1      46.918   5.417  16.185  0.00  0.00    +0.000 HD
BRANCH  19  22
ATOM     22  C   UNL     1      46.624   5.219  13.636  0.00  0.00    +0.000 A 
ATOM     23  C   UNL     1      47.528   6.233  13.346  0.00  0.00    +0.000 A 
ATOM     24  S   UNL     1      46.945   7.363  12.207  0.00  0.00    +0.000 S 
ATOM     25  C   UNL     1      45.441   6.573  12.110  0.00  0.00    +0.000 A 
ATOM     26  N   UNL     1      44.443   7.055  11.322  0.00  0.00    +0.000 NA
ATOM     27  C   UNL     1      43.347   6.373  11.368  0.00  0.00    +0.000 A 
ATOM     28  N   UNL     1      43.163   5.245  12.124  0.00  0.00    +0.000 N 
ATOM     29  C   UNL     1      44.157   4.695  12.896  0.00  0.00    +0.000 A 
ATOM     30  O   UNL     1      43.982   3.642  13.501  0.00  0.00    +0.000 OA
ATOM     31  C   UNL     1      45.398   5.444  12.906  0.00  0.00    +0.000 A 
ATOM     32  H   UNL     1      42.286   4.744  12.105  0.00  0.00    +0.000 HD
ENDBRANCH  19  22
ENDBRANCH  17  18
ENDBRANCH   4  17
TORSDOF 6
ENDMDL
MODEL 3
REMARK VINA RESULT:    -7.079      1.720      2.038
REMARK INTER + INTRA:         -10.559
REMARK INTER:                  -9.671
REMARK INTRA:                  -0.889
REMARK UNBOUND:                -0.998
REMARK  Name = 
REMARK  6 active torsions:
REMARK  status: ('A' for Active; 'I' for Inactive)
REMARK    1  A    between atoms: C_2  and  C_25
REMARK    2  A    between atoms: N_3  and  C_4
REMARK    3  A    between atoms: C_4  and  C_5
REMARK    4  A    between atoms: C_8  and  C_9
REMARK    5  A    between atoms: C_9  and  N_10
REMARK    6  A    between atoms: C_11  and  C_13
REMARK                            x       y       z     vdW  Elec       q    Type
REMARK                         _______ _______ _______ _____ _____    ______ ____
ROOT
ATOM      1  C   UNL     1      45.220   6.105  11.220  0.00  0.00    +0.000 A 
ATOM      2  C   UNL     1      44.714   7.389  11.464  0.00  0.00    +0.000 A 
ATOM      3  C   UNL     1      45.413   8.297  12.271  0.00  0.00    +0.000 A 
ATOM      4  C   UNL     1      46.642   7.945  12.844  0.00  0.00    +0.000 A 
ATOM      5  C   UNL     1      47.146   6.660  12.598  0.00  0.00    +0.000 A 
ATOM      6  C   UNL     1      46.453   5.756  11.784  0.00  0.00    +0.000 A 
ENDROOT
BRANCH   1   7
ATOM      7  C   UNL     1      44.441   5.130  10.375  0.00  0.00    +0.000 C 
BRANCH   7  10
ATOM      8  O   UNL     1      44.259   2.440   9.751  0.00  0.00    +0.000 OA
ATOM      9  C   UNL     1      45.108   3.106   9.154  0.00  0.00    +0.000 C 
ATOM     10  N   UNL     1      45.271   4.451   9.412  0.00  0.00    +0.000 N 
ATOM     11  H   UNL     1      45.969   4.973   8.898  0.00  0.00    +0.000 HD
BRANCH   9  12
ATOM     12  C   UNL     1      45.979   2.540   8.147  0.00  0.00    +0.000 A 
ATOM     13  C   UNL     1      46.389   1.224   8.035  0.00  0.00    +0.000 A 
ATOM     14  N   UNL     1      47.230   0.938   6.975  0.00  0.00    +0.000 NA
ATOM     15  C   UNL     1      47.453   2.040   6.295  0.00  0.00    +0.000 A 
ATOM     16  S   UNL     1      46.675   3.454   6.872  0.00  0.00    +0.000 S 
ENDBRANCH   9  12
ENDBRANCH   7  10
ENDBRANCH   1   7
BRANCH   4  17
ATOM     17  C   UNL     1      47.422   8.905  13.712  0.00  0.00    +0.000 C 
BRANCH  17  18
ATOM     18  N   UNL     1      47.557   8.427  15.064  0.00  0.00    +0.000 N 
ATOM     19  C   UNL     1      48.434   9.012  15.950  0.00  0.00    +0.000 C 
ATOM     20  O   UNL     1      49.121   9.981  15.649  0.00  0.00    +0.000 OA
ATOM     21  H   UNL     1      47.258   7.472  15.241  0.00  0.00    +0.000 HD
BRANCH  19  22
ATOM     22  C   UNL     1      48.447   8.448  17.305  0.00  0.00    +0.000 A 
ATOM     23  C   UNL     1      48.233   9.267  18.405  0.00  0.00    +0.000 A 
ATOM     24  S   UNL     1      48.232   8.429  19.893  0.00  0.00    +0.000 S 
ATOM     25  C   UNL     1      48.582   6.951  19.123  0.00  0.00    +0.000 A 
ATOM     26  N   UNL     1      48.755   5.809  19.839  0.00  0.00    +0.000 NA
ATOM     27  C   UNL     1      49.045   4.770  19.129  0.00  0.00    +0.000 A 
ATOM     28  N   UNL     1      49.170   4.770  17.764  0.00  0.00    +0.000 N 
ATOM     29  C   UNL     1      48.957   5.888  16.996  0.00  0.00    +0.000 A 
ATOM     30  O   UNL     1      49.002   5.836  15.771  0.00  0.00    +0.000 OA
ATOM     31  C   UNL     1      48.662   7.090  17.750  0.00  0.00    +0.000 A 
ATOM     32  H   UNL     1      49.383   3.919  17.262  0.00  0.00    +0.000 HD
ENDBRANCH  19  22
ENDBRANCH  17  18
ENDBRANCH   4  17
TORSDOF 6
ENDMDL
MODEL 4
REMARK VINA RESULT:    -7.049      2.211      2.566
REMARK INTER + INTRA:         -10.519
REMARK INTER:                  -9.877
REMARK INTRA:                  -0.642
REMARK UNBOUND:                -0.998
REMARK  Name = 
REMARK  6 active torsions:
REMARK  status: ('A' for Active; 'I' for Inactive)
REMARK    1  A    between atoms: C_2  and  C_25
REMARK    2  A    between atoms: N_3  and  C_4
REMARK    3  A    between atoms: C_4  and  C_5
REMARK    4  A    between atoms: C_8  and  C_9
REMARK    5  A    between atoms: C_9  and  N_10
REMARK    6  A    between atoms: C_11  and  C_13
REMARK                            x       y       z     vdW  Elec       q    Type
REMARK                         _______ _______ _______ _____ _____    ______ ____
ROOT
ATOM      1  C   UNL     1      45.165   4.989  11.352  0.00  0.00    +0.000 A 
ATOM      2  C   UNL     1      45.511   6.316  11.059  0.00  0.00    +0.000 A 
ATOM      3  C   UNL     1      46.396   7.028  11.880  0.00  0.00    +0.000 A 
ATOM      4  C   UNL     1      46.967   6.424  13.008  0.00  0.00    +0.000 A 
ATOM      5  C   UNL     1      46.619   5.097  13.300  0.00  0.00    +0.000 A 
ATOM      6  C   UNL     1      45.742   4.382  12.474  0.00  0.00    +0.000 A 
ENDROOT
BRANCH   1   7
ATOM      7  C   UNL     1      44.187   4.248  10.477  0.00  0.00    +0.000 C 
BRANCH   7  10
ATOM      8  O   UNL     1      45.600   4.887   8.185  0.00  0.00    +0.000 OA
ATOM      9  C   UNL     1      45.529   3.695   8.496  0.00  0.00    +0.000 C 
ATOM     10  N   UNL     1      44.835   3.290   9.617  0.00  0.00    +0.000 N 
ATOM     11  H   UNL     1      44.803   2.306   9.851  0.00  0.00    +0.000 HD
BRANCH   9  12
ATOM     12  C   UNL     1      46.162   2.648   7.724  0.00  0.00    +0.000 A 
ATOM     13  C   UNL     1      46.340   1.326   8.089  0.00  0.00    +0.000 A 
ATOM     14  N   UNL     1      46.981   0.522   7.165  0.00  0.00    +0.000 NA
ATOM     15  C   UNL     1      47.287   1.242   6.109  0.00  0.00    +0.000 A 
ATOM     16  S   UNL     1      46.825   2.891   6.159  0.00  0.00    +0.000 S 
ENDBRANCH   9  12
ENDBRANCH   7  10
ENDBRANCH   1   7
BRANCH   4  17
ATOM     17  C   UNL     1      47.930   7.163  13.907  0.00  0.00    +0.000 C 
BRANCH  17  18
ATOM     18  N   UNL     1      47.891   6.677  15.262  0.00  0.00    +0.000 N 
ATOM     19  C   UNL     1      49.044   6.441  15.976  0.00  0.00    +0.000 C 
ATOM     20  O   UNL     1      50.158   6.657  15.513  0.00  0.00    +0.000 OA
ATOM     21  H   UNL     1      47.040   6.202  15.551  0.00  0.00    +0.000 HD
BRANCH  19  22
ATOM     22  C   UNL     1      48.860   5.979  17.357  0.00  0.00    +0.000 A 
ATOM     23  C   UNL     1      49.164   4.669  17.703  0.00  0.00    +0.000 A 
ATOM     24  S   UNL     1      48.938   4.329  19.361  0.00  0.00    +0.000 S 
ATOM     25  C   UNL     1      48.365   5.903  19.662  0.00  0.00    +0.000 A 
ATOM     26  N   UNL     1      47.953   6.276  20.903  0.00  0.00    +0.000 NA
ATOM     27  C   UNL     1      47.516   7.488  20.980  0.00  0.00    +0.000 A 
ATOM     28  N   UNL     1      47.462   8.366  19.929  0.00  0.00    +0.000 N 
ATOM     29  C   UNL     1      47.912   8.049  18.670  0.00  0.00    +0.000 A 
ATOM     30  O   UNL     1      47.920   8.883  17.769  0.00  0.00    +0.000 OA
ATOM     31  C   UNL     1      48.382   6.686  18.523  0.00  0.00    +0.000 A 
ATOM     32  H   UNL     1      47.125   9.310  20.056  0.00  0.00    +0.000 HD
ENDBRANCH  19  22
ENDBRANCH  17  18
ENDBRANCH   4  17
TORSDOF 6
ENDMDL
MODEL 5
REMARK VINA RESULT:    -6.845      2.962      8.076
REMARK INTER + INTRA:         -10.243
REMARK INTER:                  -9.369
REMARK INTRA:                  -0.874
REMARK UNBOUND:                -0.998
REMARK  Name = 
REMARK  6 active torsions:
REMARK  status: ('A' for Active; 'I' for Inactive)
REMARK    1  A    between atoms: C_2  and  C_25
REMARK    2  A    between atoms: N_3  and  C_4
REMARK    3  A    between atoms: C_4  and  C_5
REMARK    4  A    between atoms: C_8  and  C_9
REMARK    5  A    between atoms: C_9  and  N_10
REMARK    6  A    between atoms: C_11  and  C_13
REMARK                            x       y       z     vdW  Elec       q    Type
REMARK                         _______ _______ _______ _____ _____    ______ ____
ROOT
ATOM      1  C   UNL     1      50.089   7.129  15.844  0.00  0.00    +0.000 A 
ATOM      2  C   UNL     1      50.824   7.828  14.876  0.00  0.00    +0.000 A 
ATOM      3  C   UNL     1      50.269   8.122  13.623  0.00  0.00    +0.000 A 
ATOM      4  C   UNL     1      48.959   7.734  13.314  0.00  0.00    +0.000 A 
ATOM      5  C   UNL     1      48.226   7.034  14.283  0.00  0.00    +0.000 A 
ATOM      6  C   UNL     1      48.777   6.749  15.538  0.00  0.00    +0.000 A 
ENDROOT
BRANCH   1   7
ATOM      7  C   UNL     1      50.712   6.793  17.174  0.00  0.00    +0.000 C 
BRANCH   7  10
ATOM      8  O   UNL     1      49.513   4.564  18.293  0.00  0.00    +0.000 OA
ATOM      9  C   UNL     1      50.617   4.411  17.766  0.00  0.00    +0.000 C 
ATOM     10  N   UNL     1      51.288   5.472  17.195  0.00  0.00    +0.000 N 
ATOM     11  H   UNL     1      52.189   5.313  16.761  0.00  0.00    +0.000 HD
BRANCH   9  12
ATOM     12  C   UNL     1      51.281   3.128  17.702  0.00  0.00    +0.000 A 
ATOM     13  C   UNL     1      50.737   1.919  17.309  0.00  0.00    +0.000 A 
ATOM     14  N   UNL     1      51.590   0.830  17.339  0.00  0.00    +0.000 NA
ATOM     15  C   UNL     1      52.772   1.223  17.756  0.00  0.00    +0.000 A 
ATOM     16  S   UNL     1      52.928   2.889  18.124  0.00  0.00    +0.000 S 
ENDBRANCH   9  12
ENDBRANCH   7  10
ENDBRANCH   1   7
BRANCH   4  17
ATOM     17  C   UNL     1      48.331   8.044  11.975  0.00  0.00    +0.000 C 
BRANCH  17  18
ATOM     18  N   UNL     1      47.604   6.920  11.442  0.00  0.00    +0.000 N 
ATOM     19  C   UNL     1      46.229   6.916  11.380  0.00  0.00    +0.000 C 
ATOM     20  O   UNL     1      45.553   7.872  11.744  0.00  0.00    +0.000 OA
ATOM     21  H   UNL     1      48.089   6.027  11.435  0.00  0.00    +0.000 HD
BRANCH  19  22
ATOM     22  C   UNL     1      45.617   5.722  10.784  0.00  0.00    +0.000 A 
ATOM     23  C   UNL     1      45.747   5.473   9.425  0.00  0.00    +0.000 A 
ATOM     24  S   UNL     1      45.016   4.014   8.923  0.00  0.00    +0.000 S 
ATOM     25  C   UNL     1      44.446   3.695  10.495  0.00  0.00    +0.000 A 
ATOM     26  N   UNL     1      43.694   2.594  10.760  0.00  0.00    +0.000 NA
ATOM     27  C   UNL     1      43.304   2.494  11.987  0.00  0.00    +0.000 A 
ATOM     28  N   UNL     1      43.608   3.393  12.976  0.00  0.00    +0.000 N 
ATOM     29  C   UNL     1      44.403   4.492  12.766  0.00  0.00    +0.000 A 
ATOM     30  O   UNL     1      44.718   5.236  13.690  0.00  0.00    +0.000 OA
ATOM     31  C   UNL     1      44.839   4.668  11.394  0.00  0.00    +0.000 A 
ATOM     32  H   UNL     1      43.287   3.251  13.924  0.00  0.00    +0.000 HD
ENDBRANCH  19  22
ENDBRANCH  17  18
ENDBRANCH   4  17
TORSDOF 6
ENDMDL
MODEL 6
REMARK VINA RESULT:    -6.825      2.846      8.503
REMARK INTER + INTRA:         -10.217
REMARK INTER:                  -9.306
REMARK INTRA:                  -0.911
REMARK UNBOUND:                -0.998
REMARK  Name = 
REMARK  6 active torsions:
REMARK  status: ('A' for Active; 'I' for Inactive)
REMARK    1  A    between atoms: C_2  and  C_25
REMARK    2  A    between atoms: N_3  and  C_4
REMARK    3  A    between atoms: C_4  and  C_5
REMARK    4  A    between atoms: C_8  and  C_9
REMARK    5  A    between atoms: C_9  and  N_10
REMARK    6  A    between atoms: C_11  and  C_13
REMARK                            x       y       z     vdW  Elec       q    Type
REMARK                         _______ _______ _______ _____ _____    ______ ____
ROOT
ATOM      1  C   UNL     1      50.049   7.059  15.622  0.00  0.00    +0.000 A 
ATOM      2  C   UNL     1      50.525   7.750  14.500  0.00  0.00    +0.000 A 
ATOM      3  C   UNL     1      49.729   7.904  13.356  0.00  0.00    +0.000 A 
ATOM      4  C   UNL     1      48.430   7.379  13.315  0.00  0.00    +0.000 A 
ATOM      5  C   UNL     1      47.956   6.687  14.439  0.00  0.00    +0.000 A 
ATOM      6  C   UNL     1      48.748   6.542  15.585  0.00  0.00    +0.000 A 
ENDROOT
BRANCH   1   7
ATOM      7  C   UNL     1      50.930   6.876  16.831  0.00  0.00    +0.000 C 
BRANCH   7  10
ATOM      8  O   UNL     1      49.866   4.867  18.410  0.00  0.00    +0.000 OA
ATOM      9  C   UNL     1      50.861   4.593  17.734  0.00  0.00    +0.000 C 
ATOM     10  N   UNL     1      51.459   5.538  16.928  0.00  0.00    +0.000 N 
ATOM     11  H   UNL     1      52.269   5.280  16.378  0.00  0.00    +0.000 HD
BRANCH   9  12
ATOM     12  C   UNL     1      51.464   3.278  17.730  0.00  0.00    +0.000 A 
ATOM     13  C   UNL     1      50.884   2.088  17.329  0.00  0.00    +0.000 A 
ATOM     14  N   UNL     1      51.680   0.961  17.425  0.00  0.00    +0.000 NA
ATOM     15  C   UNL     1      52.855   1.305  17.902  0.00  0.00    +0.000 A 
ATOM     16  S   UNL     1      53.072   2.970  18.248  0.00  0.00    +0.000 S 
ENDBRANCH   9  12
ENDBRANCH   7  10
ENDBRANCH   1   7
BRANCH   4  17
ATOM     17  C   UNL     1      47.546   7.536  12.100  0.00  0.00    +0.000 C 
BRANCH  17  18
ATOM     18  N   UNL     1      46.820   6.328  11.797  0.00  0.00    +0.000 N 
ATOM     19  C   UNL     1      45.444   6.304  11.766  0.00  0.00    +0.000 C 
ATOM     20  O   UNL     1      44.766   7.306  11.964  0.00  0.00    +0.000 OA
ATOM     21  H   UNL     1      47.314   5.452  11.942  0.00  0.00    +0.000 HD
BRANCH  19  22
ATOM     22  C   UNL     1      44.833   5.018  11.411  0.00  0.00    +0.000 A 
ATOM     23  C   UNL     1      44.046   4.340  12.332  0.00  0.00    +0.000 A 
ATOM     24  S   UNL     1      43.378   2.890  11.726  0.00  0.00    +0.000 S 
ATOM     25  C   UNL     1      44.170   3.086  10.231  0.00  0.00    +0.000 A 
ATOM     26  N   UNL     1      44.053   2.157   9.247  0.00  0.00    +0.000 NA
ATOM     27  C   UNL     1      44.731   2.418   8.179  0.00  0.00    +0.000 A 
ATOM     28  N   UNL     1      45.509   3.533   8.004  0.00  0.00    +0.000 N 
ATOM     29  C   UNL     1      45.618   4.522   8.952  0.00  0.00    +0.000 A 
ATOM     30  O   UNL     1      46.262   5.543   8.734  0.00  0.00    +0.000 OA
ATOM     31  C   UNL     1      44.902   4.258  10.184  0.00  0.00    +0.000 A 
ATOM     32  H   UNL     1      46.003   3.692   7.138  0.00  0.00    +0.000 HD
ENDBRANCH  19  22
ENDBRANCH  17  18
ENDBRANCH   4  17
TORSDOF 6
ENDMDL
MODEL 7
REMARK VINA RESULT:    -6.695      1.684      2.101
REMARK INTER + INTRA:         -10.042
REMARK INTER:                  -9.316
REMARK INTRA:                  -0.726
REMARK UNBOUND:                -0.998
REMARK  Name = 
REMARK  6 active torsions:
REMARK  status: ('A' for Active; 'I' for Inactive)
REMARK    1  A    between atoms: C_2  and  C_25
REMARK    2  A    between atoms: N_3  and  C_4
REMARK    3  A    between atoms: C_4  and  C_5
REMARK    4  A    between atoms: C_8  and  C_9
REMARK    5  A    between atoms: C_9  and  N_10
REMARK    6  A    between atoms: C_11  and  C_13
REMARK                            x       y       z     vdW  Elec       q    Type
REMARK                         _______ _______ _______ _____ _____    ______ ____
ROOT
ATOM      1  C   UNL     1      45.337   5.962  11.479  0.00  0.00    +0.000 A 
ATOM      2  C   UNL     1      45.030   7.328  11.555  0.00  0.00    +0.000 A 
ATOM      3  C   UNL     1      45.769   8.188  12.380  0.00  0.00    +0.000 A 
ATOM      4  C   UNL     1      46.842   7.702  13.138  0.00  0.00    +0.000 A 
ATOM      5  C   UNL     1      47.147   6.336  13.060  0.00  0.00    +0.000 A 
ATOM      6  C   UNL     1      46.416   5.478  12.229  0.00  0.00    +0.000 A 
ENDROOT
BRANCH   1   7
ATOM      7  C   UNL     1      44.512   5.046  10.612  0.00  0.00    +0.000 C 
BRANCH   7  10
ATOM      8  O   UNL     1      44.003   2.492   9.677  0.00  0.00    +0.000 OA
ATOM      9  C   UNL     1      44.978   3.085   9.209  0.00  0.00    +0.000 C 
ATOM     10  N   UNL     1      45.308   4.357   9.627  0.00  0.00    +0.000 N 
ATOM     11  H   UNL     1      46.109   4.821   9.218  0.00  0.00    +0.000 HD
BRANCH   9  12
ATOM     12  C   UNL     1      45.833   2.505   8.197  0.00  0.00    +0.000 A 
ATOM     13  C   UNL     1      46.236   1.186   8.092  0.00  0.00    +0.000 A 
ATOM     14  N   UNL     1      47.062   0.886   7.024  0.00  0.00    +0.000 NA
ATOM     15  C   UNL     1      47.281   1.980   6.330  0.00  0.00    +0.000 A 
ATOM     16  S   UNL     1      46.516   3.403   6.903  0.00  0.00    +0.000 S 
ENDBRANCH   9  12
ENDBRANCH   7  10
ENDBRANCH   1   7
BRANCH   4  17
ATOM     17  C   UNL     1      47.662   8.606  14.029  0.00  0.00    +0.000 C 
BRANCH  17  18
ATOM     18  N   UNL     1      48.866   7.964  14.494  0.00  0.00    +0.000 N 
ATOM     19  C   UNL     1      49.130   7.816  15.836  0.00  0.00    +0.000 C 
ATOM     20  O   UNL     1      48.350   8.192  16.704  0.00  0.00    +0.000 OA
ATOM     21  H   UNL     1      49.646   7.935  13.843  0.00  0.00    +0.000 HD
BRANCH  19  22
ATOM     22  C   UNL     1      50.376   7.115  16.171  0.00  0.00    +0.000 A 
ATOM     23  C   UNL     1      51.602   7.656  15.811  0.00  0.00    +0.000 A 
ATOM     24  S   UNL     1      52.938   6.729  16.330  0.00  0.00    +0.000 S 
ATOM     25  C   UNL     1      51.922   5.538  16.998  0.00  0.00    +0.000 A 
ATOM     26  N   UNL     1      52.435   4.422  17.581  0.00  0.00    +0.000 NA
ATOM     27  C   UNL     1      51.550   3.590  18.018  0.00  0.00    +0.000 A 
ATOM     28  N   UNL     1      50.195   3.778  17.933  0.00  0.00    +0.000 N 
ATOM     29  C   UNL     1      49.632   4.910  17.397  0.00  0.00    +0.000 A 
ATOM     30  O   UNL     1      48.417   5.082  17.404  0.00  0.00    +0.000 OA
ATOM     31  C   UNL     1      50.586   5.862  16.860  0.00  0.00    +0.000 A 
ATOM     32  H   UNL     1      49.551   3.097  18.309  0.00  0.00    +0.000 HD
ENDBRANCH  19  22
ENDBRANCH  17  18
ENDBRANCH   4  17
TORSDOF 6
ENDMDL
MODEL 8
REMARK VINA RESULT:    -6.544      3.661      8.435
REMARK INTER + INTRA:          -9.838
REMARK INTER:                  -8.949
REMARK INTRA:                  -0.889
REMARK UNBOUND:                -0.998
REMARK  Name = 
REMARK  6 active torsions:
REMARK  status: ('A' for Active; 'I' for Inactive)
REMARK    1  A    between atoms: C_2  and  C_25
REMARK    2  A    between atoms: N_3  and  C_4
REMARK    3  A    between atoms: C_4  and  C_5
REMARK    4  A    between atoms: C_8  and  C_9
REMARK    5  A    between atoms: C_9  and  N_10
REMARK    6  A    between atoms: C_11  and  C_13
REMARK                            x       y       z     vdW  Elec       q    Type
REMARK                         _______ _______ _______ _____ _____    ______ ____
ROOT
ATOM      1  C   UNL     1      49.612   4.390  17.451  0.00  0.00    +0.000 A 
ATOM      2  C   UNL     1      50.434   5.492  17.178  0.00  0.00    +0.000 A 
ATOM      3  C   UNL     1      50.016   6.504  16.303  0.00  0.00    +0.000 A 
ATOM      4  C   UNL     1      48.758   6.443  15.690  0.00  0.00    +0.000 A 
ATOM      5  C   UNL     1      47.937   5.340  15.964  0.00  0.00    +0.000 A 
ATOM      6  C   UNL     1      48.350   4.333  16.845  0.00  0.00    +0.000 A 
ENDROOT
BRANCH   1   7
ATOM      7  C   UNL     1      50.090   3.295  18.369  0.00  0.00    +0.000 C 
BRANCH   7  10
ATOM      8  O   UNL     1      51.171   0.983  17.299  0.00  0.00    +0.000 OA
ATOM      9  C   UNL     1      51.956   1.857  17.674  0.00  0.00    +0.000 C 
ATOM     10  N   UNL     1      51.501   3.035  18.229  0.00  0.00    +0.000 N 
ATOM     11  H   UNL     1      52.169   3.738  18.518  0.00  0.00    +0.000 HD
BRANCH   9  12
ATOM     12  C   UNL     1      53.391   1.720  17.559  0.00  0.00    +0.000 A 
ATOM     13  C   UNL     1      54.351   2.684  17.809  0.00  0.00    +0.000 A 
ATOM     14  N   UNL     1      55.665   2.296  17.620  0.00  0.00    +0.000 NA
ATOM     15  C   UNL     1      55.690   1.043  17.226  0.00  0.00    +0.000 A 
ATOM     16  S   UNL     1      54.169   0.270  17.070  0.00  0.00    +0.000 S 
ENDBRANCH   9  12
ENDBRANCH   7  10
ENDBRANCH   1   7
BRANCH   4  17
ATOM     17  C   UNL     1      48.277   7.523  14.748  0.00  0.00    +0.000 C 
BRANCH  17  18
ATOM     18  N   UNL     1      47.056   7.155  14.078  0.00  0.00    +0.000 N 
ATOM     19  C   UNL     1      47.068   6.554  12.840  0.00  0.00    +0.000 C 
ATOM     20  O   UNL     1      48.109   6.275  12.256  0.00  0.00    +0.000 OA
ATOM     21  H   UNL     1      46.212   7.640  14.370  0.00  0.00    +0.000 HD
BRANCH  19  22
ATOM     22  C   UNL     1      45.755   6.201  12.285  0.00  0.00    +0.000 A 
ATOM     23  C   UNL     1      44.950   7.179  11.718  0.00  0.00    +0.000 A 
ATOM     24  S   UNL     1      43.486   6.574  11.079  0.00  0.00    +0.000 S 
ATOM     25  C   UNL     1      43.850   4.994  11.597  0.00  0.00    +0.000 A 
ATOM     26  N   UNL     1      42.978   3.970  11.397  0.00  0.00    +0.000 NA
ATOM     27  C   UNL     1      43.369   2.833  11.867  0.00  0.00    +0.000 A 
ATOM     28  N   UNL     1      44.560   2.625  12.513  0.00  0.00    +0.000 N 
ATOM     29  C   UNL     1      45.492   3.617  12.695  0.00  0.00    +0.000 A 
ATOM     30  O   UNL     1      46.581   3.381  13.209  0.00  0.00    +0.000 OA
ATOM     31  C   UNL     1      45.085   4.923  12.214  0.00  0.00    +0.000 A 
ATOM     32  H   UNL     1      44.818   1.706  12.844  0.00  0.00    +0.000 HD
ENDBRANCH  19  22
ENDBRANCH  17  18
ENDBRANCH   4  17
TORSDOF 6
ENDMDL
MODEL 9
REMARK VINA RESULT:    -6.490      4.520      7.427
REMARK INTER + INTRA:          -9.765
REMARK INTER:                  -8.898
REMARK INTRA:                  -0.867
REMARK UNBOUND:                -0.998
REMARK  Name = 
REMARK  6 active torsions:
REMARK  status: ('A' for Active; 'I' for Inactive)
REMARK    1  A    between atoms: C_2  and  C_25
REMARK    2  A    between atoms: N_3  and  C_4
REMARK    3  A    between atoms: C_4  and  C_5
REMARK    4  A    between atoms: C_8  and  C_9
REMARK    5  A    between atoms: C_9  and  N_10
REMARK    6  A    between atoms: C_11  and  C_13
REMARK                            x       y       z     vdW  Elec       q    Type
REMARK                         _______ _______ _______ _____ _____    ______ ____
ROOT
ATOM      1  C   UNL     1      50.497   8.771  11.566  0.00  0.00    +0.000 A 
ATOM      2  C   UNL     1      50.152   7.559  12.179  0.00  0.00    +0.000 A 
ATOM      3  C   UNL     1      48.844   7.323  12.623  0.00  0.00    +0.000 A 
ATOM      4  C   UNL     1      47.846   8.291  12.453  0.00  0.00    +0.000 A 
ATOM      5  C   UNL     1      48.194   9.504  11.840  0.00  0.00    +0.000 A 
ATOM      6  C   UNL     1      49.498   9.736  11.387  0.00  0.00    +0.000 A 
ENDROOT
BRANCH   1   7
ATOM      7  C   UNL     1      51.915   9.021  11.122  0.00  0.00    +0.000 C 
BRANCH   7  10
ATOM      8  O   UNL     1      53.743   6.968  10.806  0.00  0.00    +0.000 OA
ATOM      9  C   UNL     1      53.141   7.352   9.801  0.00  0.00    +0.000 C 
ATOM     10  N   UNL     1      52.221   8.378   9.869  0.00  0.00    +0.000 N 
ATOM     11  H   UNL     1      51.736   8.665   9.029  0.00  0.00    +0.000 HD
BRANCH   9  12
ATOM     12  C   UNL     1      53.345   6.764   8.496  0.00  0.00    +0.000 A 
ATOM     13  C   UNL     1      52.983   7.292   7.270  0.00  0.00    +0.000 A 
ATOM     14  N   UNL     1      53.293   6.524   6.162  0.00  0.00    +0.000 NA
ATOM     15  C   UNL     1      53.884   5.419   6.558  0.00  0.00    +0.000 A 
ATOM     16  S   UNL     1      54.105   5.244   8.249  0.00  0.00    +0.000 S 
ENDBRANCH   9  12
ENDBRANCH   7  10
ENDBRANCH   1   7
BRANCH   4  17
ATOM     17  C   UNL     1      46.425   8.063  12.915  0.00  0.00    +0.000 C 
BRANCH  17  18
ATOM     18  N   UNL     1      45.951   6.744  12.580  0.00  0.00    +0.000 N 
ATOM     19  C   UNL     1      44.860   6.558  11.760  0.00  0.00    +0.000 C 
ATOM     20  O   UNL     1      44.255   7.495  11.251  0.00  0.00    +0.000 OA
ATOM     21  H   UNL     1      46.213   5.992  13.211  0.00  0.00    +0.000 HD
BRANCH  19  22
ATOM     22  C   UNL     1      44.504   5.164  11.473  0.00  0.00    +0.000 A 
ATOM     23  C   UNL     1      43.762   4.429  12.388  0.00  0.00    +0.000 A 
ATOM     24  S   UNL     1      43.399   2.846  11.860  0.00  0.00    +0.000 S 
ATOM     25  C   UNL     1      44.276   3.067  10.418  0.00  0.00    +0.000 A 
ATOM     26  N   UNL     1      44.402   2.062   9.511  0.00  0.00    +0.000 NA
ATOM     27  C   UNL     1      45.119   2.359   8.479  0.00  0.00    +0.000 A 
ATOM     28  N   UNL     1      45.714   3.575   8.267  0.00  0.00    +0.000 N 
ATOM     29  C   UNL     1      45.575   4.633   9.131  0.00  0.00    +0.000 A 
ATOM     30  O   UNL     1      46.057   5.732   8.875  0.00  0.00    +0.000 OA
ATOM     31  C   UNL     1      44.806   4.340  10.325  0.00  0.00    +0.000 A 
ATOM     32  H   UNL     1      46.251   3.753   7.430  0.00  0.00    +0.000 HD
ENDBRANCH  19  22
ENDBRANCH  17  18
ENDBRANCH   4  17
TORSDOF 6
ENDMDL
