MODEL 1
REMARK VINA RESULT:    -8.665      0.000      0.000
REMARK INTER + INTRA:         -12.717
REMARK INTER:                 -12.211
REMARK INTRA:                  -0.506
REMARK UNBOUND:                -0.506
REMARK  Name = 
REMARK  9 active torsions:
REMARK  status: ('A' for Active; 'I' for Inactive)
REMARK    1  A    between atoms: C_1  and  C_2
REMARK    2  A    between atoms: C_2  and  N_3
REMARK    3  A    between atoms: C_2  and  C_16
REMARK    4  A    between atoms: C_4  and  C_6
REMARK    5  A    between atoms: C_19  and  C_20
REMARK    6  A    between atoms: C_20  and  N_21
REMARK    7  A    between atoms: N_21  and  C_22
REMARK    8  A    between atoms: C_22  and  C_23
REMARK    9  A    between atoms: C_22  and  C_24
REMARK                            x       y       z     vdW  Elec       q    Type
REMARK                         _______ _______ _______ _____ _____    ______ ____
ROOT
ATOM      1  C   UNL     1      48.102   8.776  12.363  0.00  0.00    +0.000 C 
ATOM      2  C   UNL     1      46.953   8.212  13.201  0.00  0.00    +0.000 C 
ENDROOT
BRANCH   2   3
ATOM      3  C   UNL     1      46.075   7.233  12.476  0.00  0.00    +0.000 A 
ATOM      4  C   UNL     1      46.476   6.685  11.275  0.00  0.00    +0.000 A 
ATOM      5  N   UNL     1      45.712   5.875  10.521  0.00  0.00    +0.000 NA
ATOM      6  C   UNL     1      44.487   5.579  11.015  0.00  0.00    +0.000 A 
ATOM      7  N   UNL     1      43.983   6.082  12.157  0.00  0.00    +0.000 NA
ATOM      8  C   UNL     1      44.792   6.896  12.861  0.00  0.00    +0.000 A 
BRANCH   6   9
ATOM      9  C   UNL     1      43.621   4.621  10.209  0.00  0.00    +0.000 C 
BRANCH   9  10
ATOM     10  N   UNL     1      44.133   4.285   8.853  0.00  0.00    +0.000 NA
ATOM     11  H   UNL     1      45.013   4.798   8.765  0.00  0.00    +0.000 HD
BRANCH  10  12
ATOM     12  C   UNL     1      44.474   2.842   8.748  0.00  0.00    +0.000 C 
ATOM     13  C   UNL     1      44.452   2.227  10.154  0.00  0.00    +0.000 C 
BRANCH  12  14
ATOM     14  C   UNL     1      45.787   2.588   8.018  0.00  0.00    +0.000 A 
ATOM     15  C   UNL     1      46.390   3.574   7.239  0.00  0.00    +0.000 A 
ATOM     16  C   UNL     1      47.517   3.246   6.490  0.00  0.00    +0.000 A 
ATOM     17  C   UNL     1      48.005   1.946   6.525  0.00  0.00    +0.000 A 
ATOM     18  C   UNL     1      47.350   1.024   7.321  0.00  0.00    +0.000 A 
ATOM     19  N   UNL     1      46.265   1.316   8.069  0.00  0.00    +0.000 NA
ENDBRANCH  12  14
ENDBRANCH  10  12
ENDBRANCH   9  10
ENDBRANCH   6   9
ENDBRANCH   2   3
BRANCH   2  20
ATOM     20  N   UNL     1      47.462   7.562  14.392  0.00  0.00    +0.000 N 
ATOM     21  C   UNL     1      48.602   6.803  14.402  0.00  0.00    +0.000 C 
ATOM     22  O   UNL     1      49.309   6.672  13.404  0.00  0.00    +0.000 OA
ATOM     23  H   UNL     1      46.842   7.524  15.195  0.00  0.00    +0.000 HD
BRANCH  21  24
ATOM     24  C   UNL     1      48.964   6.208  15.688  0.00  0.00    +0.000 A 
ATOM     25  C   UNL     1      50.027   6.728  16.415  0.00  0.00    +0.000 A 
ATOM     26  S   UNL     1      50.309   5.913  17.886  0.00  0.00    +0.000 S 
ATOM     27  C   UNL     1      49.049   4.811  17.582  0.00  0.00    +0.000 A 
ATOM     28  N   UNL     1      48.778   3.799  18.450  0.00  0.00    +0.000 NA
ATOM     29  C   UNL     1      47.820   3.018  18.077  0.00  0.00    +0.000 A 
ATOM     30  N   UNL     1      47.097   3.164  16.922  0.00  0.00    +0.000 N 
ATOM     31  C   UNL     1      47.292   4.207  16.047  0.00  0.00    +0.000 A 
ATOM     32  O   UNL     1      46.555   4.378  15.080  0.00  0.00    +0.000 OA
ATOM     33  C   UNL     1      48.393   5.084  16.394  0.00  0.00    +0.000 A 
ATOM     34  H   UNL     1      46.335   2.537  16.708  0.00  0.00    +0.000 HD
ENDBRANCH  21  24
ENDBRANCH   2  20
TORSDOF 7
ENDMDL
MODEL 2
REMARK VINA RESULT:    -8.076      2.873      4.153
REMARK INTER + INTRA:         -11.886
REMARK INTER:                 -10.713
REMARK INTRA:                  -1.173
REMARK UNBOUND:                -0.506
REMARK  Name = 
REMARK  9 active torsions:
REMARK  status: ('A' for Active; 'I' for Inactive)
REMARK    1  A    between atoms: C_1  and  C_2
REMARK    2  A    between atoms: C_2  and  N_3
REMARK    3  A    between atoms: C_2  and  C_16
REMARK    4  A    between atoms: C_4  and  C_6
REMARK    5  A    between atoms: C_19  and  C_20
REMARK    6  A    between atoms: C_20  and  N_21
REMARK    7  A    between atoms: N_21  and  C_22
REMARK    8  A    between atoms: C_22  and  C_23
REMARK    9  A    between atoms: C_22  and  C_24
REMARK                            x       y       z     vdW  Elec       q    Type
REMARK                         _______ _______ _______ _____ _____    ______ ____
ROOT
ATOM      1  C   UNL     1      49.792   7.929  15.755  0.00  0.00    +0.000 C 
ATOM      2  C   UNL     1      49.160   6.684  16.378  0.00  0.00    +0.000 C 
ENDROOT
BRANCH   2   3
ATOM      3  C   UNL     1      48.278   5.901  15.449  0.00  0.00    +0.000 A 
ATOM      4  C   UNL     1      47.586   4.797  15.902  0.00  0.00    +0.000 A 
ATOM      5  N   UNL     1      46.850   3.991  15.116  0.00  0.00    +0.000 NA
ATOM      6  C   UNL     1      46.787   4.328  13.807  0.00  0.00    +0.000 A 
ATOM      7  N   UNL     1      47.449   5.361  13.253  0.00  0.00    +0.000 NA
ATOM      8  C   UNL     1      48.176   6.125  14.090  0.00  0.00    +0.000 A 
BRANCH   6   9
ATOM      9  C   UNL     1      45.919   3.464  12.903  0.00  0.00    +0.000 C 
BRANCH   9  10
ATOM     10  N   UNL     1      44.471   3.808  12.890  0.00  0.00    +0.000 NA
ATOM     11  H   UNL     1      44.308   4.305  13.769  0.00  0.00    +0.000 HD
BRANCH  10  12
ATOM     12  C   UNL     1      44.154   4.766  11.799  0.00  0.00    +0.000 C 
ATOM     13  C   UNL     1      42.640   5.015  11.786  0.00  0.00    +0.000 C 
BRANCH  12  14
ATOM     14  C   UNL     1      44.686   4.324  10.441  0.00  0.00    +0.000 A 
ATOM     15  C   UNL     1      45.536   5.136   9.693  0.00  0.00    +0.000 A 
ATOM     16  C   UNL     1      45.885   4.741   8.404  0.00  0.00    +0.000 A 
ATOM     17  C   UNL     1      45.370   3.558   7.890  0.00  0.00    +0.000 A 
ATOM     18  C   UNL     1      44.531   2.807   8.695  0.00  0.00    +0.000 A 
ATOM     19  N   UNL     1      44.187   3.158   9.952  0.00  0.00    +0.000 NA
ENDBRANCH  12  14
ENDBRANCH  10  12
ENDBRANCH   9  10
ENDBRANCH   6   9
ENDBRANCH   2   3
BRANCH   2  20
ATOM     20  N   UNL     1      50.183   5.792  16.884  0.00  0.00    +0.000 N 
ATOM     21  C   UNL     1      50.268   5.417  18.199  0.00  0.00    +0.000 C 
ATOM     22  O   UNL     1      49.435   5.769  19.033  0.00  0.00    +0.000 OA
ATOM     23  H   UNL     1      50.966   5.594  16.268  0.00  0.00    +0.000 HD
BRANCH  21  24
ATOM     24  C   UNL     1      51.371   4.521  18.541  0.00  0.00    +0.000 A 
ATOM     25  C   UNL     1      52.407   4.976  19.346  0.00  0.00    +0.000 A 
ATOM     26  S   UNL     1      53.606   3.800  19.642  0.00  0.00    +0.000 S 
ATOM     27  C   UNL     1      52.805   2.657  18.670  0.00  0.00    +0.000 A 
ATOM     28  N   UNL     1      53.334   1.422  18.459  0.00  0.00    +0.000 NA
ATOM     29  C   UNL     1      52.639   0.670  17.673  0.00  0.00    +0.000 A 
ATOM     30  N   UNL     1      51.454   1.035  17.088  0.00  0.00    +0.000 N 
ATOM     31  C   UNL     1      50.849   2.247  17.322  0.00  0.00    +0.000 A 
ATOM     32  O   UNL     1      49.733   2.503  16.878  0.00  0.00    +0.000 OA
ATOM     33  C   UNL     1      51.617   3.149  18.158  0.00  0.00    +0.000 A 
ATOM     34  H   UNL     1      50.942   0.383  16.511  0.00  0.00    +0.000 HD
ENDBRANCH  21  24
ENDBRANCH   2  20
TORSDOF 7
ENDMDL
MODEL 3
REMARK VINA RESULT:    -7.913      2.052      2.878
REMARK INTER + INTRA:         -11.657
REMARK INTER:                 -10.484
REMARK INTRA:                  -1.173
REMARK UNBOUND:                -0.506
REMARK  Name = 
REMARK  9 active torsions:
REMARK  status: ('A' for Active; 'I' for Inactive)
REMARK    1  A    between atoms: C_1  and  C_2
REMARK    2  A    between atoms: C_2  and  N_3
REMARK    3  A    between atoms: C_2  and  C_16
REMARK    4  A    between atoms: C_4  and  C_6
REMARK    5  A    between atoms: C_19  and  C_20
REMARK    6  A    between atoms: C_20  and  N_21
REMARK    7  A    between atoms: N_21  and  C_22
REMARK    8  A    between atoms: C_22  and  C_23
REMARK    9  A    between atoms: C_22  and  C_24
REMARK                            x       y       z     vdW  Elec       q    Type
REMARK                         _______ _______ _______ _____ _____    ______ ____
ROOT
ATOM      1  C   UNL     1      48.491   9.415  12.166  0.00  0.00    +0.000 C 
ATOM      2  C   UNL     1      47.618   8.596  13.117  0.00  0.00    +0.000 C 
ENDROOT
BRANCH   2   3
ATOM      3  C   UNL     1      46.661   7.661  12.436  0.00  0.00    +0.000 A 
ATOM      4  C   UNL     1      45.350   8.034  12.216  0.00  0.00    +0.000 A 
ATOM      5  N   UNL     1      44.411   7.224  11.697  0.00  0.00    +0.000 NA
ATOM      6  C   UNL     1      44.817   5.979  11.357  0.00  0.00    +0.000 A 
ATOM      7  N   UNL     1      46.059   5.500  11.558  0.00  0.00    +0.000 NA
ATOM      8  C   UNL     1      46.952   6.356  12.090  0.00  0.00    +0.000 A 
BRANCH   6   9
ATOM      9  C   UNL     1      43.787   5.057  10.718  0.00  0.00    +0.000 C 
BRANCH   9  10
ATOM     10  N   UNL     1      44.084   4.641   9.321  0.00  0.00    +0.000 NA
ATOM     11  H   UNL     1      45.005   5.035   9.115  0.00  0.00    +0.000 HD
BRANCH  10  12
ATOM     12  C   UNL     1      44.224   3.165   9.216  0.00  0.00    +0.000 C 
ATOM     13  C   UNL     1      44.187   2.565  10.628  0.00  0.00    +0.000 C 
BRANCH  12  14
ATOM     14  C   UNL     1      45.456   2.734   8.429  0.00  0.00    +0.000 A 
ATOM     15  C   UNL     1      46.083   3.594   7.530  0.00  0.00    +0.000 A 
ATOM     16  C   UNL     1      47.123   3.106   6.742  0.00  0.00    +0.000 A 
ATOM     17  C   UNL     1      47.500   1.774   6.861  0.00  0.00    +0.000 A 
ATOM     18  C   UNL     1      46.828   0.984   7.775  0.00  0.00    +0.000 A 
ATOM     19  N   UNL     1      45.827   1.433   8.561  0.00  0.00    +0.000 NA
ENDBRANCH  12  14
ENDBRANCH  10  12
ENDBRANCH   9  10
ENDBRANCH   6   9
ENDBRANCH   2   3
BRANCH   2  20
ATOM     20  N   UNL     1      48.440   7.816  14.020  0.00  0.00    +0.000 N 
ATOM     21  C   UNL     1      48.560   8.096  15.355  0.00  0.00    +0.000 C 
ATOM     22  O   UNL     1      47.922   9.000  15.892  0.00  0.00    +0.000 OA
ATOM     23  H   UNL     1      49.088   7.158  13.598  0.00  0.00    +0.000 HD
BRANCH  21  24
ATOM     24  C   UNL     1      49.443   7.216  16.118  0.00  0.00    +0.000 A 
ATOM     25  C   UNL     1      48.931   6.465  17.168  0.00  0.00    +0.000 A 
ATOM     26  S   UNL     1      50.100   5.497  17.946  0.00  0.00    +0.000 S 
ATOM     27  C   UNL     1      51.337   6.080  16.936  0.00  0.00    +0.000 A 
ATOM     28  N   UNL     1      52.626   5.677  17.101  0.00  0.00    +0.000 NA
ATOM     29  C   UNL     1      53.466   6.225  16.288  0.00  0.00    +0.000 A 
ATOM     30  N   UNL     1      53.134   7.131  15.314  0.00  0.00    +0.000 N 
ATOM     31  C   UNL     1      51.837   7.519  15.068  0.00  0.00    +0.000 A 
ATOM     32  O   UNL     1      51.555   8.242  14.116  0.00  0.00    +0.000 OA
ATOM     33  C   UNL     1      50.862   6.971  15.989  0.00  0.00    +0.000 A 
ATOM     34  H   UNL     1      53.837   7.495  14.687  0.00  0.00    +0.000 HD
ENDBRANCH  21  24
ENDBRANCH   2  20
TORSDOF 7
ENDMDL
MODEL 4
REMARK VINA RESULT:    -7.479      3.124      7.762
REMARK INTER + INTRA:         -11.045
REMARK INTER:                 -10.077
REMARK INTRA:                  -0.967
REMARK UNBOUND:                -0.506
REMARK  Name = 
REMARK  9 active torsions:
REMARK  status: ('A' for Active; 'I' for Inactive)
REMARK    1  A    between atoms: C_1  and  C_2
REMARK    2  A    between atoms: C_2  and  N_3
REMARK    3  A    between atoms: C_2  and  C_16
REMARK    4  A    between atoms: C_4  and  C_6
REMARK    5  A    between atoms: C_19  and  C_20
REMARK    6  A    between atoms: C_20  and  N_21
REMARK    7  A    between atoms: N_21  and  C_22
REMARK    8  A    between atoms: C_22  and  C_23
REMARK    9  A    between atoms: C_22  and  C_24
REMARK                            x       y       z     vdW  Elec       q    Type
REMARK                         _______ _______ _______ _____ _____    ______ ____
ROOT
ATOM      1  C   UNL     1      47.963   9.498  11.784  0.00  0.00    +0.000 C 
ATOM      2  C   UNL     1      48.494   8.126  12.201  0.00  0.00    +0.000 C 
ENDROOT
BRANCH   2   3
ATOM      3  C   UNL     1      48.503   7.886  13.683  0.00  0.00    +0.000 A 
ATOM      4  C   UNL     1      48.255   8.919  14.564  0.00  0.00    +0.000 A 
ATOM      5  N   UNL     1      48.334   8.806  15.902  0.00  0.00    +0.000 NA
ATOM      6  C   UNL     1      48.656   7.583  16.381  0.00  0.00    +0.000 A 
ATOM      7  N   UNL     1      48.951   6.516  15.614  0.00  0.00    +0.000 NA
ATOM      8  C   UNL     1      48.864   6.695  14.282  0.00  0.00    +0.000 A 
BRANCH   6   9
ATOM      9  C   UNL     1      48.702   7.413  17.893  0.00  0.00    +0.000 C 
BRANCH   9  10
ATOM     10  N   UNL     1      47.409   7.051  18.534  0.00  0.00    +0.000 NA
ATOM     11  H   UNL     1      46.774   6.851  17.757  0.00  0.00    +0.000 HD
BRANCH  10  12
ATOM     12  C   UNL     1      47.528   5.793  19.315  0.00  0.00    +0.000 C 
ATOM     13  C   UNL     1      48.520   6.018  20.464  0.00  0.00    +0.000 C 
BRANCH  12  14
ATOM     14  C   UNL     1      47.890   4.586  18.457  0.00  0.00    +0.000 A 
ATOM     15  C   UNL     1      49.112   3.932  18.599  0.00  0.00    +0.000 A 
ATOM     16  C   UNL     1      49.444   2.920  17.702  0.00  0.00    +0.000 A 
ATOM     17  C   UNL     1      48.559   2.597  16.681  0.00  0.00    +0.000 A 
ATOM     18  C   UNL     1      47.366   3.293  16.606  0.00  0.00    +0.000 A 
ATOM     19  N   UNL     1      47.012   4.267  17.470  0.00  0.00    +0.000 NA
ENDBRANCH  12  14
ENDBRANCH  10  12
ENDBRANCH   9  10
ENDBRANCH   6   9
ENDBRANCH   2   3
BRANCH   2  20
ATOM     20  N   UNL     1      47.720   7.070  11.580  0.00  0.00    +0.000 N 
ATOM     21  C   UNL     1      46.362   6.957  11.716  0.00  0.00    +0.000 C 
ATOM     22  O   UNL     1      45.696   7.788  12.331  0.00  0.00    +0.000 OA
ATOM     23  H   UNL     1      48.239   6.291  11.188  0.00  0.00    +0.000 HD
BRANCH  21  24
ATOM     24  C   UNL     1      45.742   5.823  11.033  0.00  0.00    +0.000 A 
ATOM     25  C   UNL     1      45.847   5.705   9.654  0.00  0.00    +0.000 A 
ATOM     26  S   UNL     1      45.065   4.325   9.027  0.00  0.00    +0.000 S 
ATOM     27  C   UNL     1      44.522   3.862  10.570  0.00  0.00    +0.000 A 
ATOM     28  N   UNL     1      43.740   2.761  10.737  0.00  0.00    +0.000 NA
ATOM     29  C   UNL     1      43.372   2.547  11.956  0.00  0.00    +0.000 A 
ATOM     30  N   UNL     1      43.725   3.326  13.027  0.00  0.00    +0.000 N 
ATOM     31  C   UNL     1      44.565   4.410  12.917  0.00  0.00    +0.000 A 
ATOM     32  O   UNL     1      44.957   5.020  13.908  0.00  0.00    +0.000 OA
ATOM     33  C   UNL     1      44.964   4.723  11.559  0.00  0.00    +0.000 A 
ATOM     34  H   UNL     1      43.432   3.081  13.962  0.00  0.00    +0.000 HD
ENDBRANCH  21  24
ENDBRANCH   2  20
TORSDOF 7
ENDMDL
MODEL 5
REMARK VINA RESULT:    -7.276      3.145      8.704
REMARK INTER + INTRA:         -10.760
REMARK INTER:                  -9.555
REMARK INTRA:                  -1.204
REMARK UNBOUND:                -0.506
REMARK  Name = 
REMARK  9 active torsions:
REMARK  status: ('A' for Active; 'I' for Inactive)
REMARK    1  A    between atoms: C_1  and  C_2
REMARK    2  A    between atoms: C_2  and  N_3
REMARK    3  A    between atoms: C_2  and  C_16
REMARK    4  A    between atoms: C_4  and  C_6
REMARK    5  A    between atoms: C_19  and  C_20
REMARK    6  A    between atoms: C_20  and  N_21
REMARK    7  A    between atoms: N_21  and  C_22
REMARK    8  A    between atoms: C_22  and  C_23
REMARK    9  A    between atoms: C_22  and  C_24
REMARK                            x       y       z     vdW  Elec       q    Type
REMARK                         _______ _______ _______ _____ _____    ______ ____
ROOT
ATOM      1  C   UNL     1      43.270   4.186  12.789  0.00  0.00    +0.000 C 
ATOM      2  C   UNL     1      44.353   4.803  11.902  0.00  0.00    +0.000 C 
ENDROOT
BRANCH   2   3
ATOM      3  C   UNL     1      45.495   5.424  12.653  0.00  0.00    +0.000 A 
ATOM      4  C   UNL     1      45.634   6.796  12.712  0.00  0.00    +0.000 A 
ATOM      5  N   UNL     1      46.675   7.426  13.284  0.00  0.00    +0.000 NA
ATOM      6  C   UNL     1      47.614   6.635  13.851  0.00  0.00    +0.000 A 
ATOM      7  N   UNL     1      47.596   5.289  13.824  0.00  0.00    +0.000 NA
ATOM      8  C   UNL     1      46.533   4.717  13.227  0.00  0.00    +0.000 A 
BRANCH   6   9
ATOM      9  C   UNL     1      48.777   7.322  14.553  0.00  0.00    +0.000 C 
BRANCH   9  10
ATOM     10  N   UNL     1      48.579   7.591  16.003  0.00  0.00    +0.000 NA
ATOM     11  H   UNL     1      47.671   7.178  16.229  0.00  0.00    +0.000 HD
BRANCH  10  12
ATOM     12  C   UNL     1      49.585   6.873  16.827  0.00  0.00    +0.000 C 
ATOM     13  C   UNL     1      50.968   7.061  16.191  0.00  0.00    +0.000 C 
BRANCH  12  14
ATOM     14  C   UNL     1      49.239   5.406  17.053  0.00  0.00    +0.000 A 
ATOM     15  C   UNL     1      47.945   5.005  17.379  0.00  0.00    +0.000 A 
ATOM     16  C   UNL     1      47.713   3.671  17.703  0.00  0.00    +0.000 A 
ATOM     17  C   UNL     1      48.776   2.776  17.708  0.00  0.00    +0.000 A 
ATOM     18  C   UNL     1      50.032   3.252  17.375  0.00  0.00    +0.000 A 
ATOM     19  N   UNL     1      50.283   4.536  17.042  0.00  0.00    +0.000 NA
ENDBRANCH  12  14
ENDBRANCH  10  12
ENDBRANCH   9  10
ENDBRANCH   6   9
ENDBRANCH   2   3
BRANCH   2  20
ATOM     20  N   UNL     1      44.898   3.811  10.998  0.00  0.00    +0.000 N 
ATOM     21  C   UNL     1      44.557   3.737   9.673  0.00  0.00    +0.000 C 
ATOM     22  O   UNL     1      43.805   4.555   9.146  0.00  0.00    +0.000 OA
ATOM     23  H   UNL     1      45.405   3.037  11.416  0.00  0.00    +0.000 HD
BRANCH  21  24
ATOM     24  C   UNL     1      45.191   2.666   8.907  0.00  0.00    +0.000 A 
ATOM     25  C   UNL     1      44.777   1.352   9.083  0.00  0.00    +0.000 A 
ATOM     26  S   UNL     1      45.624   0.235   8.110  0.00  0.00    +0.000 S 
ATOM     27  C   UNL     1      46.601   1.462   7.453  0.00  0.00    +0.000 A 
ATOM     28  N   UNL     1      47.588   1.172   6.564  0.00  0.00    +0.000 NA
ATOM     29  C   UNL     1      48.273   2.194   6.174  0.00  0.00    +0.000 A 
ATOM     30  N   UNL     1      48.054   3.484   6.581  0.00  0.00    +0.000 N 
ATOM     31  C   UNL     1      47.028   3.834   7.428  0.00  0.00    +0.000 A 
ATOM     32  O   UNL     1      46.783   5.010   7.685  0.00  0.00    +0.000 OA
ATOM     33  C   UNL     1      46.261   2.714   7.936  0.00  0.00    +0.000 A 
ATOM     34  H   UNL     1      48.605   4.244   6.208  0.00  0.00    +0.000 HD
ENDBRANCH  21  24
ENDBRANCH   2  20
TORSDOF 7
ENDMDL
MODEL 6
REMARK VINA RESULT:    -7.145      3.309      5.609
REMARK INTER + INTRA:         -10.575
REMARK INTER:                  -9.406
REMARK INTRA:                  -1.170
REMARK UNBOUND:                -0.506
REMARK  Name = 
REMARK  9 active torsions:
REMARK  status: ('A' for Active; 'I' for Inactive)
REMARK    1  A    between atoms: C_1  and  C_2
REMARK    2  A    between atoms: C_2  and  N_3
REMARK    3  A    between atoms: C_2  and  C_16
REMARK    4  A    between atoms: C_4  and  C_6
REMARK    5  A    between atoms: C_19  and  C_20
REMARK    6  A    between atoms: C_20  and  N_21
REMARK    7  A    between atoms: N_21  and  C_22
REMARK    8  A    between atoms: C_22  and  C_23
REMARK    9  A    between atoms: C_22  and  C_24
REMARK                            x       y       z     vdW  Elec       q    Type
REMARK                         _______ _______ _______ _____ _____    ______ ____
ROOT
ATOM      1  C   UNL     1      48.564   4.255  19.787  0.00  0.00    +0.000 C 
ATOM      2  C   UNL     1      49.233   3.628  18.563  0.00  0.00    +0.000 C 
ENDROOT
BRANCH   2   3
ATOM      3  C   UNL     1      48.493   3.835  17.274  0.00  0.00    +0.000 A 
ATOM      4  C   UNL     1      48.255   2.774  16.423  0.00  0.00    +0.000 A 
ATOM      5  N   UNL     1      47.682   2.891  15.212  0.00  0.00    +0.000 NA
ATOM      6  C   UNL     1      47.304   4.138  14.847  0.00  0.00    +0.000 A 
ATOM      7  N   UNL     1      47.518   5.246  15.582  0.00  0.00    +0.000 NA
ATOM      8  C   UNL     1      48.105   5.065  16.781  0.00  0.00    +0.000 A 
BRANCH   6   9
ATOM      9  C   UNL     1      46.605   4.293  13.504  0.00  0.00    +0.000 C 
BRANCH   9  10
ATOM     10  N   UNL     1      45.121   4.190  13.542  0.00  0.00    +0.000 NA
ATOM     11  H   UNL     1      44.844   4.652  14.411  0.00  0.00    +0.000 HD
BRANCH  10  12
ATOM     12  C   UNL     1      44.499   4.963  12.436  0.00  0.00    +0.000 C 
ATOM     13  C   UNL     1      42.995   5.092  12.709  0.00  0.00    +0.000 C 
BRANCH  12  14
ATOM     14  C   UNL     1      44.796   4.384  11.058  0.00  0.00    +0.000 A 
ATOM     15  C   UNL     1      45.402   5.147  10.062  0.00  0.00    +0.000 A 
ATOM     16  C   UNL     1      45.529   4.609   8.784  0.00  0.00    +0.000 A 
ATOM     17  C   UNL     1      45.038   3.335   8.528  0.00  0.00    +0.000 A 
ATOM     18  C   UNL     1      44.447   2.642   9.569  0.00  0.00    +0.000 A 
ATOM     19  N   UNL     1      44.324   3.131  10.820  0.00  0.00    +0.000 NA
ENDBRANCH  12  14
ENDBRANCH  10  12
ENDBRANCH   9  10
ENDBRANCH   6   9
ENDBRANCH   2   3
BRANCH   2  20
ATOM     20  N   UNL     1      50.577   4.143  18.397  0.00  0.00    +0.000 N 
ATOM     21  C   UNL     1      51.612   3.393  17.905  0.00  0.00    +0.000 C 
ATOM     22  O   UNL     1      51.452   2.239  17.511  0.00  0.00    +0.000 OA
ATOM     23  H   UNL     1      50.785   5.034  18.837  0.00  0.00    +0.000 HD
BRANCH  21  24
ATOM     24  C   UNL     1      52.906   4.066  17.815  0.00  0.00    +0.000 A 
ATOM     25  C   UNL     1      54.025   3.496  18.408  0.00  0.00    +0.000 A 
ATOM     26  S   UNL     1      55.447   4.416  18.206  0.00  0.00    +0.000 S 
ATOM     27  C   UNL     1      54.609   5.628  17.357  0.00  0.00    +0.000 A 
ATOM     28  N   UNL     1      55.246   6.749  16.924  0.00  0.00    +0.000 NA
ATOM     29  C   UNL     1      54.483   7.600  16.325  0.00  0.00    +0.000 A 
ATOM     30  N   UNL     1      53.140   7.428  16.107  0.00  0.00    +0.000 N 
ATOM     31  C   UNL     1      52.467   6.285  16.469  0.00  0.00    +0.000 A 
ATOM     32  O   UNL     1      51.292   6.109  16.158  0.00  0.00    +0.000 OA
ATOM     33  C   UNL     1      53.270   5.319  17.192  0.00  0.00    +0.000 A 
ATOM     34  H   UNL     1      52.608   8.120  15.598  0.00  0.00    +0.000 HD
ENDBRANCH  21  24
ENDBRANCH   2  20
TORSDOF 7
ENDMDL
MODEL 7
REMARK VINA RESULT:    -6.967      2.803      8.168
REMARK INTER + INTRA:         -10.324
REMARK INTER:                 -10.368
REMARK INTRA:                   0.044
REMARK UNBOUND:                -0.506
REMARK  Name = 
REMARK  9 active torsions:
REMARK  status: ('A' for Active; 'I' for Inactive)
REMARK    1  A    between atoms: C_1  and  C_2
REMARK    2  A    between atoms: C_2  and  N_3
REMARK    3  A    between atoms: C_2  and  C_16
REMARK    4  A    between atoms: C_4  and  C_6
REMARK    5  A    between atoms: C_19  and  C_20
REMARK    6  A    between atoms: C_20  and  N_21
REMARK    7  A    between atoms: N_21  and  C_22
REMARK    8  A    between atoms: C_22  and  C_23
REMARK    9  A    between atoms: C_22  and  C_24
REMARK                            x       y       z     vdW  Elec       q    Type
REMARK                         _______ _______ _______ _____ _____    ______ ____
ROOT
ATOM      1  C   UNL     1      46.413   9.116  12.130  0.00  0.00    +0.000 C 
ATOM      2  C   UNL     1      47.384   7.943  11.982  0.00  0.00    +0.000 C 
ENDROOT
BRANCH   2   3
ATOM      3  C   UNL     1      48.301   7.742  13.153  0.00  0.00    +0.000 A 
ATOM      4  C   UNL     1      49.306   8.649  13.423  0.00  0.00    +0.000 A 
ATOM      5  N   UNL     1      50.223   8.494  14.394  0.00  0.00    +0.000 NA
ATOM      6  C   UNL     1      50.109   7.379  15.151  0.00  0.00    +0.000 A 
ATOM      7  N   UNL     1      49.191   6.414  14.955  0.00  0.00    +0.000 NA
ATOM      8  C   UNL     1      48.307   6.622  13.961  0.00  0.00    +0.000 A 
BRANCH   6   9
ATOM      9  C   UNL     1      51.101   7.203  16.292  0.00  0.00    +0.000 C 
BRANCH   9  10
ATOM     10  N   UNL     1      51.552   5.806  16.537  0.00  0.00    +0.000 NA
ATOM     11  H   UNL     1      52.561   5.874  16.688  0.00  0.00    +0.000 HD
BRANCH  10  12
ATOM     12  C   UNL     1      50.973   5.266  17.794  0.00  0.00    +0.000 C 
ATOM     13  C   UNL     1      52.020   4.376  18.477  0.00  0.00    +0.000 C 
BRANCH  12  14
ATOM     14  C   UNL     1      49.644   4.550  17.583  0.00  0.00    +0.000 A 
ATOM     15  C   UNL     1      48.456   5.048  18.113  0.00  0.00    +0.000 A 
ATOM     16  C   UNL     1      47.295   4.286  18.002  0.00  0.00    +0.000 A 
ATOM     17  C   UNL     1      47.351   3.046  17.380  0.00  0.00    +0.000 A 
ATOM     18  C   UNL     1      48.569   2.620  16.880  0.00  0.00    +0.000 A 
ATOM     19  N   UNL     1      49.706   3.343  16.960  0.00  0.00    +0.000 NA
ENDBRANCH  12  14
ENDBRANCH  10  12
ENDBRANCH   9  10
ENDBRANCH   6   9
ENDBRANCH   2   3
BRANCH   2  20
ATOM     20  N   UNL     1      46.661   6.707  11.760  0.00  0.00    +0.000 N 
ATOM     21  C   UNL     1      45.309   6.658  11.548  0.00  0.00    +0.000 C 
ATOM     22  O   UNL     1      44.622   7.675  11.470  0.00  0.00    +0.000 OA
ATOM     23  H   UNL     1      47.157   5.843  11.956  0.00  0.00    +0.000 HD
BRANCH  21  24
ATOM     24  C   UNL     1      44.738   5.326  11.356  0.00  0.00    +0.000 A 
ATOM     25  C   UNL     1      43.947   4.762  12.348  0.00  0.00    +0.000 A 
ATOM     26  S   UNL     1      43.367   3.207  11.956  0.00  0.00    +0.000 S 
ATOM     27  C   UNL     1      44.188   3.215  10.466  0.00  0.00    +0.000 A 
ATOM     28  N   UNL     1      44.146   2.138   9.636  0.00  0.00    +0.000 NA
ATOM     29  C   UNL     1      44.842   2.267   8.557  0.00  0.00    +0.000 A 
ATOM     30  N   UNL     1      45.567   3.382   8.224  0.00  0.00    +0.000 N 
ATOM     31  C   UNL     1      45.588   4.517   8.999  0.00  0.00    +0.000 A 
ATOM     32  O   UNL     1      46.151   5.541   8.621  0.00  0.00    +0.000 OA
ATOM     33  C   UNL     1      44.863   4.403  10.249  0.00  0.00    +0.000 A 
ATOM     34  H   UNL     1      46.061   3.431   7.344  0.00  0.00    +0.000 HD
ENDBRANCH  21  24
ENDBRANCH   2  20
TORSDOF 7
ENDMDL
MODEL 8
REMARK VINA RESULT:    -6.839      2.770      4.134
REMARK INTER + INTRA:         -10.144
REMARK INTER:                  -9.245
REMARK INTRA:                  -0.899
REMARK UNBOUND:                -0.506
REMARK  Name = 
REMARK  9 active torsions:
REMARK  status: ('A' for Active; 'I' for Inactive)
REMARK    1  A    between atoms: C_1  and  C_2
REMARK    2  A    between atoms: C_2  and  N_3
REMARK    3  A    between atoms: C_2  and  C_16
REMARK    4  A    between atoms: C_4  and  C_6
REMARK    5  A    between atoms: C_19  and  C_20
REMARK    6  A    between atoms: C_20  and  N_21
REMARK    7  A    between atoms: N_21  and  C_22
REMARK    8  A    between atoms: C_22  and  C_23
REMARK    9  A    between atoms: C_22  and  C_24
REMARK                            x       y       z     vdW  Elec       q    Type
REMARK                         _______ _______ _______ _____ _____    ______ ____
ROOT
ATOM      1  C   UNL     1      45.730   9.105  12.150  0.00  0.00    +0.000 C 
ATOM      2  C   UNL     1      46.140   8.029  13.157  0.00  0.00    +0.000 C 
ENDROOT
BRANCH   2   3
ATOM      3  C   UNL     1      45.643   6.650  12.833  0.00  0.00    +0.000 A 
ATOM      4  C   UNL     1      46.500   5.569  12.864  0.00  0.00    +0.000 A 
ATOM      5  N   UNL     1      46.156   4.320  12.500  0.00  0.00    +0.000 NA
ATOM      6  C   UNL     1      44.873   4.145  12.109  0.00  0.00    +0.000 A 
ATOM      7  N   UNL     1      43.963   5.132  12.010  0.00  0.00    +0.000 NA
ATOM      8  C   UNL     1      44.371   6.361  12.378  0.00  0.00    +0.000 A 
BRANCH   6   9
ATOM      9  C   UNL     1      44.440   2.732  11.742  0.00  0.00    +0.000 C 
BRANCH   9  10
ATOM     10  N   UNL     1      44.240   2.483  10.289  0.00  0.00    +0.000 NA
ATOM     11  H   UNL     1      43.261   2.719  10.111  0.00  0.00    +0.000 HD
BRANCH  10  12
ATOM     12  C   UNL     1      45.055   3.412   9.465  0.00  0.00    +0.000 C 
ATOM     13  C   UNL     1      44.117   4.410   8.774  0.00  0.00    +0.000 C 
BRANCH  12  14
ATOM     14  C   UNL     1      45.973   2.694   8.483  0.00  0.00    +0.000 A 
ATOM     15  C   UNL     1      46.616   3.379   7.454  0.00  0.00    +0.000 A 
ATOM     16  C   UNL     1      47.336   2.654   6.508  0.00  0.00    +0.000 A 
ATOM     17  C   UNL     1      47.385   1.269   6.603  0.00  0.00    +0.000 A 
ATOM     18  C   UNL     1      46.719   0.662   7.653  0.00  0.00    +0.000 A 
ATOM     19  N   UNL     1      46.026   1.340   8.592  0.00  0.00    +0.000 NA
ENDBRANCH  12  14
ENDBRANCH  10  12
ENDBRANCH   9  10
ENDBRANCH   6   9
ENDBRANCH   2   3
BRANCH   2  20
ATOM     20  N   UNL     1      47.583   7.968  13.278  0.00  0.00    +0.000 N 
ATOM     21  C   UNL     1      48.278   8.594  14.278  0.00  0.00    +0.000 C 
ATOM     22  O   UNL     1      47.712   9.203  15.184  0.00  0.00    +0.000 OA
ATOM     23  H   UNL     1      48.096   7.601  12.482  0.00  0.00    +0.000 HD
BRANCH  21  24
ATOM     24  C   UNL     1      49.732   8.440  14.242  0.00  0.00    +0.000 A 
ATOM     25  C   UNL     1      50.401   7.938  15.351  0.00  0.00    +0.000 A 
ATOM     26  S   UNL     1      52.090   7.827  15.133  0.00  0.00    +0.000 S 
ATOM     27  C   UNL     1      51.988   8.487  13.569  0.00  0.00    +0.000 A 
ATOM     28  N   UNL     1      53.107   8.707  12.827  0.00  0.00    +0.000 NA
ATOM     29  C   UNL     1      52.886   9.243  11.674  0.00  0.00    +0.000 A 
ATOM     30  N   UNL     1      51.647   9.568  11.187  0.00  0.00    +0.000 N 
ATOM     31  C   UNL     1      50.484   9.305  11.873  0.00  0.00    +0.000 A 
ATOM     32  O   UNL     1      49.383   9.500  11.365  0.00  0.00    +0.000 OA
ATOM     33  C   UNL     1      50.681   8.751  13.198  0.00  0.00    +0.000 A 
ATOM     34  H   UNL     1      51.542   9.952  10.259  0.00  0.00    +0.000 HD
ENDBRANCH  21  24
ENDBRANCH   2  20
TORSDOF 7
ENDMDL
MODEL 9
REMARK VINA RESULT:    -6.813      1.930      2.705
REMARK INTER + INTRA:         -10.107
REMARK INTER:                  -9.064
REMARK INTRA:                  -1.043
REMARK UNBOUND:                -0.506
REMARK  Name = 
REMARK  9 active torsions:
REMARK  status: ('A' for Active; 'I' for Inactive)
REMARK    1  A    between atoms: C_1  and  C_2
REMARK    2  A    between atoms: C_2  and  N_3
REMARK    3  A    between atoms: C_2  and  C_16
REMARK    4  A    between atoms: C_4  and  C_6
REMARK    5  A    between atoms: C_19  and  C_20
REMARK    6  A    between atoms: C_20  and  N_21
REMARK    7  A    between atoms: N_21  and  C_22
REMARK    8  A    between atoms: C_22  and  C_23
REMARK    9  A    between atoms: C_22  and  C_24
REMARK                            x       y       z     vdW  Elec       q    Type
REMARK                         _______ _______ _______ _____ _____    ______ ____
ROOT
ATOM      1  C   UNL     1      51.325   8.577  14.041  0.00  0.00    +0.000 C 
ATOM      2  C   UNL     1      49.882   8.598  14.548  0.00  0.00    +0.000 C 
ENDROOT
BRANCH   2   3
ATOM      3  C   UNL     1      48.877   8.018  13.595  0.00  0.00    +0.000 A 
ATOM      4  C   UNL     1      47.856   8.797  13.091  0.00  0.00    +0.000 A 
ATOM      5  N   UNL     1      46.866   8.331  12.308  0.00  0.00    +0.000 NA
ATOM      6  C   UNL     1      46.921   7.017  11.994  0.00  0.00    +0.000 A 
ATOM      7  N   UNL     1      47.851   6.160  12.456  0.00  0.00    +0.000 NA
ATOM      8  C   UNL     1      48.809   6.684  13.244  0.00  0.00    +0.000 A 
BRANCH   6   9
ATOM      9  C   UNL     1      45.844   6.474  11.066  0.00  0.00    +0.000 C 
BRANCH   9  10
ATOM     10  N   UNL     1      45.218   5.194  11.495  0.00  0.00    +0.000 NA
ATOM     11  H   UNL     1      44.584   5.450  12.257  0.00  0.00    +0.000 HD
BRANCH  10  12
ATOM     12  C   UNL     1      44.371   4.620  10.418  0.00  0.00    +0.000 C 
ATOM     13  C   UNL     1      43.242   3.803  11.059  0.00  0.00    +0.000 C 
BRANCH  12  14
ATOM     14  C   UNL     1      45.166   3.816   9.395  0.00  0.00    +0.000 A 
ATOM     15  C   UNL     1      45.767   4.427   8.296  0.00  0.00    +0.000 A 
ATOM     16  C   UNL     1      46.368   3.630   7.326  0.00  0.00    +0.000 A 
ATOM     17  C   UNL     1      46.342   2.248   7.467  0.00  0.00    +0.000 A 
ATOM     18  C   UNL     1      45.725   1.717   8.585  0.00  0.00    +0.000 A 
ATOM     19  N   UNL     1      45.148   2.466   9.549  0.00  0.00    +0.000 NA
ENDBRANCH  12  14
ENDBRANCH  10  12
ENDBRANCH   9  10
ENDBRANCH   6   9
ENDBRANCH   2   3
BRANCH   2  20
ATOM     20  N   UNL     1      49.773   7.885  15.805  0.00  0.00    +0.000 N 
ATOM     21  C   UNL     1      48.886   8.231  16.789  0.00  0.00    +0.000 C 
ATOM     22  O   UNL     1      48.074   9.143  16.644  0.00  0.00    +0.000 OA
ATOM     23  H   UNL     1      50.513   7.224  16.023  0.00  0.00    +0.000 HD
BRANCH  21  24
ATOM     24  C   UNL     1      48.919   7.412  17.999  0.00  0.00    +0.000 A 
ATOM     25  C   UNL     1      49.183   8.003  19.227  0.00  0.00    +0.000 A 
ATOM     26  S   UNL     1      49.182   6.900  20.528  0.00  0.00    +0.000 S 
ATOM     27  C   UNL     1      48.873   5.589  19.490  0.00  0.00    +0.000 A 
ATOM     28  N   UNL     1      48.793   4.318  19.970  0.00  0.00    +0.000 NA
ATOM     29  C   UNL     1      48.588   3.419  19.067  0.00  0.00    +0.000 A 
ATOM     30  N   UNL     1      48.442   3.674  17.728  0.00  0.00    +0.000 N 
ATOM     31  C   UNL     1      48.451   4.946  17.206  0.00  0.00    +0.000 A 
ATOM     32  O   UNL     1      48.202   5.154  16.022  0.00  0.00    +0.000 OA
ATOM     33  C   UNL     1      48.730   5.989  18.173  0.00  0.00    +0.000 A 
ATOM     34  H   UNL     1      48.247   2.925  17.079  0.00  0.00    +0.000 HD
ENDBRANCH  21  24
ENDBRANCH   2  20
TORSDOF 7
ENDMDL
