MODEL 1
REMARK VINA RESULT:    -7.852      0.000      0.000
REMARK INTER + INTRA:         -10.953
REMARK INTER:                 -10.376
REMARK INTRA:                  -0.576
REMARK UNBOUND:                -0.576
REMARK  Name = 
REMARK  6 active torsions:
REMARK  status: ('A' for Active; 'I' for Inactive)
REMARK    1  A    between atoms: N_1  and  C_2
REMARK    2  A    between atoms: C_2  and  C_3
REMARK    3  A    between atoms: C_6  and  N_7
REMARK    4  A    between atoms: N_7  and  C_8
REMARK    5  A    between atoms: C_8  and  C_9
REMARK    6  A    between atoms: C_11  and  C_12
REMARK                            x       y       z     vdW  Elec       q    Type
REMARK                         _______ _______ _______ _____ _____    ______ ____
ROOT
ATOM      1  N   UNL     1      43.829   3.526   9.760  0.00  0.00    +0.000 N 
ATOM      2  H   UNL     1      42.923   3.355   9.328  0.00  0.00    +0.000 HD
ENDROOT
BRANCH   1   6
ATOM      3  C   UNL     1      47.041   2.391   7.264  0.00  0.00    +0.000 A 
ATOM      4  C   UNL     1      46.374   1.418   8.021  0.00  0.00    +0.000 A 
ATOM      5  C   UNL     1      45.290   1.766   8.835  0.00  0.00    +0.000 A 
ATOM      6  C   UNL     1      44.869   3.093   8.934  0.00  0.00    +0.000 A 
ATOM      7  C   UNL     1      45.481   4.044   8.110  0.00  0.00    +0.000 A 
ATOM      8  C   UNL     1      46.568   3.707   7.300  0.00  0.00    +0.000 A 
BRANCH   3   9
ATOM      9  C   UNL     1      48.266   2.036   6.462  0.00  0.00    +0.000 C 
BRANCH   9  10
ATOM     10  N   UNL     1      48.205   2.577   5.110  0.00  0.00    +0.000 NA
ATOM     11  H   UNL     1      48.579   1.886   4.462  0.00  0.00    +0.000 HD
ATOM     12  H   UNL     1      48.822   3.386   5.056  0.00  0.00    +0.000 HD
ENDBRANCH   9  10
ENDBRANCH   3   9
ENDBRANCH   1   6
BRANCH   1  13
ATOM     13  C   UNL     1      43.842   3.095  11.159  0.00  0.00    +0.000 C 
BRANCH  13  14
ATOM     14  C   UNL     1      44.834   3.937  11.939  0.00  0.00    +0.000 A 
ATOM     15  C   UNL     1      44.885   5.315  11.720  0.00  0.00    +0.000 A 
ATOM     16  C   UNL     1      45.799   6.092  12.437  0.00  0.00    +0.000 A 
ATOM     17  C   UNL     1      46.642   5.450  13.347  0.00  0.00    +0.000 A 
ATOM     18  C   UNL     1      46.531   4.078  13.502  0.00  0.00    +0.000 A 
ATOM     19  N   UNL     1      45.651   3.313  12.821  0.00  0.00    +0.000 NA
BRANCH  16  20
ATOM     20  C   UNL     1      45.875   7.582  12.243  0.00  0.00    +0.000 C 
ATOM     21  F   UNL     1      45.618   8.296  13.371  0.00  0.00    +0.000 F 
ATOM     22  F   UNL     1      47.102   7.988  11.815  0.00  0.00    +0.000 F 
ATOM     23  F   UNL     1      44.989   8.028  11.309  0.00  0.00    +0.000 F 
ENDBRANCH  16  20
ENDBRANCH  13  14
ENDBRANCH   1  13
TORSDOF 6
ENDMDL
MODEL 2
REMARK VINA RESULT:    -7.523      2.541      2.950
REMARK INTER + INTRA:         -10.519
REMARK INTER:                  -9.975
REMARK INTRA:                  -0.544
REMARK UNBOUND:                -0.576
REMARK  Name = 
REMARK  6 active torsions:
REMARK  status: ('A' for Active; 'I' for Inactive)
REMARK    1  A    between atoms: N_1  and  C_2
REMARK    2  A    between atoms: C_2  and  C_3
REMARK    3  A    between atoms: C_6  and  N_7
REMARK    4  A    between atoms: N_7  and  C_8
REMARK    5  A    between atoms: C_8  and  C_9
REMARK    6  A    between atoms: C_11  and  C_12
REMARK                            x       y       z     vdW  Elec       q    Type
REMARK                         _______ _______ _______ _____ _____    ______ ____
ROOT
ATOM      1  N   UNL     1      43.980   4.943   9.825  0.00  0.00    +0.000 N 
ATOM      2  H   UNL     1      43.088   5.107   9.361  0.00  0.00    +0.000 HD
ENDROOT
BRANCH   1   6
ATOM      3  C   UNL     1      46.281   1.990   7.871  0.00  0.00    +0.000 A 
ATOM      4  C   UNL     1      45.314   1.607   8.810  0.00  0.00    +0.000 A 
ATOM      5  C   UNL     1      44.521   2.565   9.451  0.00  0.00    +0.000 A 
ATOM      6  C   UNL     1      44.697   3.925   9.191  0.00  0.00    +0.000 A 
ATOM      7  C   UNL     1      45.600   4.296   8.190  0.00  0.00    +0.000 A 
ATOM      8  C   UNL     1      46.401   3.346   7.550  0.00  0.00    +0.000 A 
BRANCH   3   9
ATOM      9  C   UNL     1      47.199   0.969   7.251  0.00  0.00    +0.000 C 
BRANCH   9  10
ATOM     10  N   UNL     1      46.877  -0.385   7.683  0.00  0.00    +0.000 NA
ATOM     11  H   UNL     1      46.013  -0.678   7.229  0.00  0.00    +0.000 HD
ATOM     12  H   UNL     1      46.686  -0.370   8.684  0.00  0.00    +0.000 HD
ENDBRANCH   9  10
ENDBRANCH   3   9
ENDBRANCH   1   6
BRANCH   1  13
ATOM     13  C   UNL     1      43.817   4.863  11.278  0.00  0.00    +0.000 C 
BRANCH  13  14
ATOM     14  C   UNL     1      45.101   5.302  11.956  0.00  0.00    +0.000 A 
ATOM     15  C   UNL     1      45.517   4.656  13.121  0.00  0.00    +0.000 A 
ATOM     16  C   UNL     1      46.700   5.061  13.748  0.00  0.00    +0.000 A 
ATOM     17  C   UNL     1      47.421   6.115  13.181  0.00  0.00    +0.000 A 
ATOM     18  C   UNL     1      46.936   6.706  12.026  0.00  0.00    +0.000 A 
ATOM     19  N   UNL     1      45.799   6.325  11.405  0.00  0.00    +0.000 NA
BRANCH  16  20
ATOM     20  C   UNL     1      47.192   4.380  14.996  0.00  0.00    +0.000 C 
ATOM     21  F   UNL     1      47.554   3.083  14.807  0.00  0.00    +0.000 F 
ATOM     22  F   UNL     1      48.281   4.998  15.529  0.00  0.00    +0.000 F 
ATOM     23  F   UNL     1      46.252   4.365  15.982  0.00  0.00    +0.000 F 
ENDBRANCH  16  20
ENDBRANCH  13  14
ENDBRANCH   1  13
TORSDOF 6
ENDMDL
MODEL 3
REMARK VINA RESULT:    -7.390      1.569      2.090
REMARK INTER + INTRA:         -10.343
REMARK INTER:                  -9.879
REMARK INTRA:                  -0.464
REMARK UNBOUND:                -0.576
REMARK  Name = 
REMARK  6 active torsions:
REMARK  status: ('A' for Active; 'I' for Inactive)
REMARK    1  A    between atoms: N_1  and  C_2
REMARK    2  A    between atoms: C_2  and  C_3
REMARK    3  A    between atoms: C_6  and  N_7
REMARK    4  A    between atoms: N_7  and  C_8
REMARK    5  A    between atoms: C_8  and  C_9
REMARK    6  A    between atoms: C_11  and  C_12
REMARK                            x       y       z     vdW  Elec       q    Type
REMARK                         _______ _______ _______ _____ _____    ______ ____
ROOT
ATOM      1  N   UNL     1      44.278   5.059   9.538  0.00  0.00    +0.000 N 
ATOM      2  H   UNL     1      43.481   5.312   8.957  0.00  0.00    +0.000 HD
ENDROOT
BRANCH   1   6
ATOM      3  C   UNL     1      46.467   1.924   7.745  0.00  0.00    +0.000 A 
ATOM      4  C   UNL     1      46.726   3.251   7.376  0.00  0.00    +0.000 A 
ATOM      5  C   UNL     1      46.033   4.309   7.975  0.00  0.00    +0.000 A 
ATOM      6  C   UNL     1      45.046   4.063   8.931  0.00  0.00    +0.000 A 
ATOM      7  C   UNL     1      44.853   2.745   9.360  0.00  0.00    +0.000 A 
ATOM      8  C   UNL     1      45.537   1.683   8.762  0.00  0.00    +0.000 A 
BRANCH   3   9
ATOM      9  C   UNL     1      47.143   0.781   7.035  0.00  0.00    +0.000 C 
BRANCH   9  10
ATOM     10  N   UNL     1      46.859  -0.499   7.673  0.00  0.00    +0.000 NA
ATOM     11  H   UNL     1      45.878  -0.520   7.945  0.00  0.00    +0.000 HD
ATOM     12  H   UNL     1      47.400  -0.559   8.534  0.00  0.00    +0.000 HD
ENDBRANCH   9  10
ENDBRANCH   3   9
ENDBRANCH   1   6
BRANCH   1  13
ATOM     13  C   UNL     1      43.880   4.863  10.933  0.00  0.00    +0.000 C 
BRANCH  13  14
ATOM     14  C   UNL     1      45.047   5.194  11.844  0.00  0.00    +0.000 A 
ATOM     15  C   UNL     1      45.913   6.232  11.499  0.00  0.00    +0.000 A 
ATOM     16  C   UNL     1      46.990   6.538  12.336  0.00  0.00    +0.000 A 
ATOM     17  C   UNL     1      47.163   5.776  13.495  0.00  0.00    +0.000 A 
ATOM     18  C   UNL     1      46.261   4.760  13.763  0.00  0.00    +0.000 A 
ATOM     19  N   UNL     1      45.214   4.455  12.967  0.00  0.00    +0.000 NA
BRANCH  16  20
ATOM     20  C   UNL     1      47.937   7.660  12.009  0.00  0.00    +0.000 C 
ATOM     21  F   UNL     1      47.323   8.855  11.802  0.00  0.00    +0.000 F 
ATOM     22  F   UNL     1      48.849   7.874  12.996  0.00  0.00    +0.000 F 
ATOM     23  F   UNL     1      48.661   7.413  10.881  0.00  0.00    +0.000 F 
ENDBRANCH  16  20
ENDBRANCH  13  14
ENDBRANCH   1  13
TORSDOF 6
ENDMDL
MODEL 4
REMARK VINA RESULT:    -6.898      3.190      5.994
REMARK INTER + INTRA:          -9.692
REMARK INTER:                  -9.034
REMARK INTRA:                  -0.658
REMARK UNBOUND:                -0.576
REMARK  Name = 
REMARK  6 active torsions:
REMARK  status: ('A' for Active; 'I' for Inactive)
REMARK    1  A    between atoms: N_1  and  C_2
REMARK    2  A    between atoms: C_2  and  C_3
REMARK    3  A    between atoms: C_6  and  N_7
REMARK    4  A    between atoms: N_7  and  C_8
REMARK    5  A    between atoms: C_8  and  C_9
REMARK    6  A    between atoms: C_11  and  C_12
REMARK                            x       y       z     vdW  Elec       q    Type
REMARK                         _______ _______ _______ _____ _____    ______ ____
ROOT
ATOM      1  N   UNL     1      43.992   5.492  12.096  0.00  0.00    +0.000 N 
ATOM      2  H   UNL     1      43.321   5.958  12.705  0.00  0.00    +0.000 HD
ENDROOT
BRANCH   1   6
ATOM      3  C   UNL     1      47.942   6.868  12.675  0.00  0.00    +0.000 A 
ATOM      4  C   UNL     1      47.020   7.673  11.992  0.00  0.00    +0.000 A 
ATOM      5  C   UNL     1      45.699   7.251  11.811  0.00  0.00    +0.000 A 
ATOM      6  C   UNL     1      45.278   6.004  12.280  0.00  0.00    +0.000 A 
ATOM      7  C   UNL     1      46.176   5.244  13.036  0.00  0.00    +0.000 A 
ATOM      8  C   UNL     1      47.500   5.656  13.215  0.00  0.00    +0.000 A 
BRANCH   3   9
ATOM      9  C   UNL     1      49.387   7.277  12.788  0.00  0.00    +0.000 C 
BRANCH   9  10
ATOM     10  N   UNL     1      49.919   7.032  14.122  0.00  0.00    +0.000 NA
ATOM     11  H   UNL     1      49.189   6.613  14.695  0.00  0.00    +0.000 HD
ATOM     12  H   UNL     1      50.145   7.928  14.552  0.00  0.00    +0.000 HD
ENDBRANCH   9  10
ENDBRANCH   3   9
ENDBRANCH   1   6
BRANCH   1  13
ATOM     13  C   UNL     1      43.485   5.389  10.726  0.00  0.00    +0.000 C 
BRANCH  13  14
ATOM     14  C   UNL     1      44.100   4.179  10.049  0.00  0.00    +0.000 A 
ATOM     15  C   UNL     1      45.041   4.364   9.035  0.00  0.00    +0.000 A 
ATOM     16  C   UNL     1      45.607   3.249   8.409  0.00  0.00    +0.000 A 
ATOM     17  C   UNL     1      45.195   1.979   8.822  0.00  0.00    +0.000 A 
ATOM     18  C   UNL     1      44.252   1.882   9.832  0.00  0.00    +0.000 A 
ATOM     19  N   UNL     1      43.699   2.948  10.450  0.00  0.00    +0.000 NA
BRANCH  16  20
ATOM     20  C   UNL     1      46.637   3.405   7.324  0.00  0.00    +0.000 C 
ATOM     21  F   UNL     1      47.248   4.619   7.318  0.00  0.00    +0.000 F 
ATOM     22  F   UNL     1      47.635   2.484   7.420  0.00  0.00    +0.000 F 
ATOM     23  F   UNL     1      46.104   3.249   6.079  0.00  0.00    +0.000 F 
ENDBRANCH  16  20
ENDBRANCH  13  14
ENDBRANCH   1  13
TORSDOF 6
ENDMDL
MODEL 5
REMARK VINA RESULT:    -6.678      1.447      2.025
REMARK INTER + INTRA:          -9.402
REMARK INTER:                  -9.011
REMARK INTRA:                  -0.390
REMARK UNBOUND:                -0.576
REMARK  Name = 
REMARK  6 active torsions:
REMARK  status: ('A' for Active; 'I' for Inactive)
REMARK    1  A    between atoms: N_1  and  C_2
REMARK    2  A    between atoms: C_2  and  C_3
REMARK    3  A    between atoms: C_6  and  N_7
REMARK    4  A    between atoms: N_7  and  C_8
REMARK    5  A    between atoms: C_8  and  C_9
REMARK    6  A    between atoms: C_11  and  C_12
REMARK                            x       y       z     vdW  Elec       q    Type
REMARK                         _______ _______ _______ _____ _____    ______ ____
ROOT
ATOM      1  N   UNL     1      43.022   3.946  11.765  0.00  0.00    +0.000 N 
ATOM      2  H   UNL     1      43.046   3.199  12.457  0.00  0.00    +0.000 HD
ENDROOT
BRANCH   1   6
ATOM      3  C   UNL     1      45.365   3.116   8.351  0.00  0.00    +0.000 A 
ATOM      4  C   UNL     1      45.048   2.082   9.242  0.00  0.00    +0.000 A 
ATOM      5  C   UNL     1      44.251   2.327  10.366  0.00  0.00    +0.000 A 
ATOM      6  C   UNL     1      43.781   3.613  10.640  0.00  0.00    +0.000 A 
ATOM      7  C   UNL     1      44.026   4.621   9.702  0.00  0.00    +0.000 A 
ATOM      8  C   UNL     1      44.826   4.386   8.581  0.00  0.00    +0.000 A 
BRANCH   3   9
ATOM      9  C   UNL     1      46.299   2.876   7.194  0.00  0.00    +0.000 C 
BRANCH   9  10
ATOM     10  N   UNL     1      46.788   4.124   6.622  0.00  0.00    +0.000 NA
ATOM     11  H   UNL     1      46.092   4.852   6.777  0.00  0.00    +0.000 HD
ATOM     12  H   UNL     1      46.867   4.010   5.613  0.00  0.00    +0.000 HD
ENDBRANCH   9  10
ENDBRANCH   3   9
ENDBRANCH   1   6
BRANCH   1  13
ATOM     13  C   UNL     1      43.253   5.253  12.384  0.00  0.00    +0.000 C 
BRANCH  13  14
ATOM     14  C   UNL     1      44.702   5.356  12.821  0.00  0.00    +0.000 A 
ATOM     15  C   UNL     1      45.481   6.423  12.369  0.00  0.00    +0.000 A 
ATOM     16  C   UNL     1      46.816   6.519  12.770  0.00  0.00    +0.000 A 
ATOM     17  C   UNL     1      47.328   5.526  13.610  0.00  0.00    +0.000 A 
ATOM     18  C   UNL     1      46.490   4.498  14.009  0.00  0.00    +0.000 A 
ATOM     19  N   UNL     1      45.197   4.392  13.635  0.00  0.00    +0.000 NA
BRANCH  16  20
ATOM     20  C   UNL     1      47.685   7.662  12.318  0.00  0.00    +0.000 C 
ATOM     21  F   UNL     1      46.998   8.810  12.074  0.00  0.00    +0.000 F 
ATOM     22  F   UNL     1      48.638   7.983  13.236  0.00  0.00    +0.000 F 
ATOM     23  F   UNL     1      48.357   7.377  11.168  0.00  0.00    +0.000 F 
ENDBRANCH  16  20
ENDBRANCH  13  14
ENDBRANCH   1  13
TORSDOF 6
ENDMDL
MODEL 6
REMARK VINA RESULT:    -6.212      3.391      5.819
REMARK INTER + INTRA:          -8.785
REMARK INTER:                  -8.133
REMARK INTRA:                  -0.652
REMARK UNBOUND:                -0.576
REMARK  Name = 
REMARK  6 active torsions:
REMARK  status: ('A' for Active; 'I' for Inactive)
REMARK    1  A    between atoms: N_1  and  C_2
REMARK    2  A    between atoms: C_2  and  C_3
REMARK    3  A    between atoms: C_6  and  N_7
REMARK    4  A    between atoms: N_7  and  C_8
REMARK    5  A    between atoms: C_8  and  C_9
REMARK    6  A    between atoms: C_11  and  C_12
REMARK                            x       y       z     vdW  Elec       q    Type
REMARK                         _______ _______ _______ _____ _____    ______ ____
ROOT
ATOM      1  N   UNL     1      44.917   6.792  12.969  0.00  0.00    +0.000 N 
ATOM      2  H   UNL     1      44.527   7.426  13.665  0.00  0.00    +0.000 HD
ENDROOT
BRANCH   1   6
ATOM      3  C   UNL     1      48.997   7.707  12.379  0.00  0.00    +0.000 A 
ATOM      4  C   UNL     1      48.636   6.466  12.921  0.00  0.00    +0.000 A 
ATOM      5  C   UNL     1      47.290   6.129  13.101  0.00  0.00    +0.000 A 
ATOM      6  C   UNL     1      46.279   7.035  12.774  0.00  0.00    +0.000 A 
ATOM      7  C   UNL     1      46.640   8.234  12.152  0.00  0.00    +0.000 A 
ATOM      8  C   UNL     1      47.982   8.581  11.975  0.00  0.00    +0.000 A 
BRANCH   3   9
ATOM      9  C   UNL     1      50.445   8.109  12.272  0.00  0.00    +0.000 C 
BRANCH   9  10
ATOM     10  N   UNL     1      51.129   7.395  11.202  0.00  0.00    +0.000 NA
ATOM     11  H   UNL     1      51.479   8.071  10.526  0.00  0.00    +0.000 HD
ATOM     12  H   UNL     1      50.448   6.819  10.709  0.00  0.00    +0.000 HD
ENDBRANCH   9  10
ENDBRANCH   3   9
ENDBRANCH   1   6
BRANCH   1  13
ATOM     13  C   UNL     1      44.059   6.709  11.785  0.00  0.00    +0.000 C 
BRANCH  13  14
ATOM     14  C   UNL     1      44.111   5.301  11.221  0.00  0.00    +0.000 A 
ATOM     15  C   UNL     1      44.815   5.061  10.040  0.00  0.00    +0.000 A 
ATOM     16  C   UNL     1      44.862   3.765   9.519  0.00  0.00    +0.000 A 
ATOM     17  C   UNL     1      44.186   2.752  10.203  0.00  0.00    +0.000 A 
ATOM     18  C   UNL     1      43.506   3.075  11.366  0.00  0.00    +0.000 A 
ATOM     19  N   UNL     1      43.454   4.320  11.886  0.00  0.00    +0.000 NA
BRANCH  16  20
ATOM     20  C   UNL     1      45.623   3.461   8.257  0.00  0.00    +0.000 C 
ATOM     21  F   UNL     1      46.563   4.392   7.945  0.00  0.00    +0.000 F 
ATOM     22  F   UNL     1      46.283   2.271   8.323  0.00  0.00    +0.000 F 
ATOM     23  F   UNL     1      44.808   3.374   7.169  0.00  0.00    +0.000 F 
ENDBRANCH  16  20
ENDBRANCH  13  14
ENDBRANCH   1  13
TORSDOF 6
ENDMDL
MODEL 7
REMARK VINA RESULT:    -6.009      4.036      7.858
REMARK INTER + INTRA:          -8.518
REMARK INTER:                  -8.224
REMARK INTRA:                  -0.294
REMARK UNBOUND:                -0.576
REMARK  Name = 
REMARK  6 active torsions:
REMARK  status: ('A' for Active; 'I' for Inactive)
REMARK    1  A    between atoms: N_1  and  C_2
REMARK    2  A    between atoms: C_2  and  C_3
REMARK    3  A    between atoms: C_6  and  N_7
REMARK    4  A    between atoms: N_7  and  C_8
REMARK    5  A    between atoms: C_8  and  C_9
REMARK    6  A    between atoms: C_11  and  C_12
REMARK                            x       y       z     vdW  Elec       q    Type
REMARK                         _______ _______ _______ _____ _____    ______ ____
ROOT
ATOM      1  N   UNL     1      46.719   4.081  14.597  0.00  0.00    +0.000 N 
ATOM      2  H   UNL     1      45.859   3.544  14.692  0.00  0.00    +0.000 HD
ENDROOT
BRANCH   1   6
ATOM      3  C   UNL     1      48.587   4.462  18.366  0.00  0.00    +0.000 A 
ATOM      4  C   UNL     1      48.672   5.511  17.440  0.00  0.00    +0.000 A 
ATOM      5  C   UNL     1      48.039   5.419  16.196  0.00  0.00    +0.000 A 
ATOM      6  C   UNL     1      47.335   4.268  15.837  0.00  0.00    +0.000 A 
ATOM      7  C   UNL     1      47.179   3.262  16.796  0.00  0.00    +0.000 A 
ATOM      8  C   UNL     1      47.814   3.343  18.038  0.00  0.00    +0.000 A 
BRANCH   3   9
ATOM      9  C   UNL     1      49.345   4.518  19.666  0.00  0.00    +0.000 C 
BRANCH   9  10
ATOM     10  N   UNL     1      48.562   3.986  20.774  0.00  0.00    +0.000 NA
ATOM     11  H   UNL     1      47.756   4.589  20.928  0.00  0.00    +0.000 HD
ATOM     12  H   UNL     1      49.126   4.035  21.622  0.00  0.00    +0.000 HD
ENDBRANCH   9  10
ENDBRANCH   3   9
ENDBRANCH   1   6
BRANCH   1  13
ATOM     13  C   UNL     1      46.520   5.258  13.748  0.00  0.00    +0.000 C 
BRANCH  13  14
ATOM     14  C   UNL     1      45.315   5.037  12.853  0.00  0.00    +0.000 A 
ATOM     15  C   UNL     1      45.497   4.504  11.576  0.00  0.00    +0.000 A 
ATOM     16  C   UNL     1      44.388   4.302  10.750  0.00  0.00    +0.000 A 
ATOM     17  C   UNL     1      43.127   4.655  11.238  0.00  0.00    +0.000 A 
ATOM     18  C   UNL     1      43.033   5.183  12.515  0.00  0.00    +0.000 A 
ATOM     19  N   UNL     1      44.093   5.381  13.327  0.00  0.00    +0.000 NA
BRANCH  16  20
ATOM     20  C   UNL     1      44.539   3.714   9.373  0.00  0.00    +0.000 C 
ATOM     21  F   UNL     1      44.147   2.415   9.285  0.00  0.00    +0.000 F 
ATOM     22  F   UNL     1      43.814   4.389   8.439  0.00  0.00    +0.000 F 
ATOM     23  F   UNL     1      45.829   3.745   8.937  0.00  0.00    +0.000 F 
ENDBRANCH  16  20
ENDBRANCH  13  14
ENDBRANCH   1  13
TORSDOF 6
ENDMDL
MODEL 8
REMARK VINA RESULT:    -5.604      4.338      6.376
REMARK INTER + INTRA:          -7.982
REMARK INTER:                  -7.590
REMARK INTRA:                  -0.392
REMARK UNBOUND:                -0.576
REMARK  Name = 
REMARK  6 active torsions:
REMARK  status: ('A' for Active; 'I' for Inactive)
REMARK    1  A    between atoms: N_1  and  C_2
REMARK    2  A    between atoms: C_2  and  C_3
REMARK    3  A    between atoms: C_6  and  N_7
REMARK    4  A    between atoms: N_7  and  C_8
REMARK    5  A    between atoms: C_8  and  C_9
REMARK    6  A    between atoms: C_11  and  C_12
REMARK                            x       y       z     vdW  Elec       q    Type
REMARK                         _______ _______ _______ _____ _____    ______ ____
ROOT
ATOM      1  N   UNL     1      47.041   7.042  13.798  0.00  0.00    +0.000 N 
ATOM      2  H   UNL     1      46.485   7.256  14.624  0.00  0.00    +0.000 HD
ENDROOT
BRANCH   1   6
ATOM      3  C   UNL     1      44.916   4.306  11.383  0.00  0.00    +0.000 A 
ATOM      4  C   UNL     1      45.417   5.487  10.818  0.00  0.00    +0.000 A 
ATOM      5  C   UNL     1      46.147   6.396  11.591  0.00  0.00    +0.000 A 
ATOM      6  C   UNL     1      46.366   6.161  12.950  0.00  0.00    +0.000 A 
ATOM      7  C   UNL     1      45.941   4.942  13.488  0.00  0.00    +0.000 A 
ATOM      8  C   UNL     1      45.205   4.032  12.724  0.00  0.00    +0.000 A 
BRANCH   3   9
ATOM      9  C   UNL     1      44.050   3.373  10.578  0.00  0.00    +0.000 C 
BRANCH   9  10
ATOM     10  N   UNL     1      42.993   2.778  11.387  0.00  0.00    +0.000 NA
ATOM     11  H   UNL     1      43.294   2.760  12.359  0.00  0.00    +0.000 HD
ATOM     12  H   UNL     1      42.875   1.807  11.103  0.00  0.00    +0.000 HD
ENDBRANCH   9  10
ENDBRANCH   3   9
ENDBRANCH   1   6
BRANCH   1  13
ATOM     13  C   UNL     1      48.425   6.722  14.156  0.00  0.00    +0.000 C 
BRANCH  13  14
ATOM     14  C   UNL     1      48.490   6.328  15.620  0.00  0.00    +0.000 A 
ATOM     15  C   UNL     1      48.267   4.999  15.983  0.00  0.00    +0.000 A 
ATOM     16  C   UNL     1      48.325   4.635  17.331  0.00  0.00    +0.000 A 
ATOM     17  C   UNL     1      48.598   5.630  18.274  0.00  0.00    +0.000 A 
ATOM     18  C   UNL     1      48.803   6.926  17.830  0.00  0.00    +0.000 A 
ATOM     19  N   UNL     1      48.755   7.294  16.532  0.00  0.00    +0.000 NA
BRANCH  16  20
ATOM     20  C   UNL     1      48.107   3.210  17.763  0.00  0.00    +0.000 C 
ATOM     21  F   UNL     1      46.830   2.775  17.594  0.00  0.00    +0.000 F 
ATOM     22  F   UNL     1      48.894   2.335  17.080  0.00  0.00    +0.000 F 
ATOM     23  F   UNL     1      48.394   3.020  19.081  0.00  0.00    +0.000 F 
ENDBRANCH  16  20
ENDBRANCH  13  14
ENDBRANCH   1  13
TORSDOF 6
ENDMDL
MODEL 9
REMARK VINA RESULT:    -5.588      4.258      8.003
REMARK INTER + INTRA:          -7.961
REMARK INTER:                  -7.593
REMARK INTRA:                  -0.368
REMARK UNBOUND:                -0.576
REMARK  Name = 
REMARK  6 active torsions:
REMARK  status: ('A' for Active; 'I' for Inactive)
REMARK    1  A    between atoms: N_1  and  C_2
REMARK    2  A    between atoms: C_2  and  C_3
REMARK    3  A    between atoms: C_6  and  N_7
REMARK    4  A    between atoms: N_7  and  C_8
REMARK    5  A    between atoms: C_8  and  C_9
REMARK    6  A    between atoms: C_11  and  C_12
REMARK                            x       y       z     vdW  Elec       q    Type
REMARK                         _______ _______ _______ _____ _____    ______ ____
ROOT
ATOM      1  N   UNL     1      46.668   4.141  15.622  0.00  0.00    +0.000 N 
ATOM      2  H   UNL     1      45.945   4.859  15.607  0.00  0.00    +0.000 HD
ENDROOT
BRANCH   1   6
ATOM      3  C   UNL     1      49.578   4.806  18.610  0.00  0.00    +0.000 A 
ATOM      4  C   UNL     1      49.498   5.675  17.513  0.00  0.00    +0.000 A 
ATOM      5  C   UNL     1      48.526   5.491  16.524  0.00  0.00    +0.000 A 
ATOM      6  C   UNL     1      47.633   4.420  16.593  0.00  0.00    +0.000 A 
ATOM      7  C   UNL     1      47.659   3.609  17.732  0.00  0.00    +0.000 A 
ATOM      8  C   UNL     1      48.632   3.782  18.720  0.00  0.00    +0.000 A 
BRANCH   3   9
ATOM      9  C   UNL     1      50.682   4.946  19.625  0.00  0.00    +0.000 C 
BRANCH   9  10
ATOM     10  N   UNL     1      50.274   4.471  20.940  0.00  0.00    +0.000 NA
ATOM     11  H   UNL     1      50.665   5.088  21.649  0.00  0.00    +0.000 HD
ATOM     12  H   UNL     1      50.687   3.552  21.097  0.00  0.00    +0.000 HD
ENDBRANCH   9  10
ENDBRANCH   3   9
ENDBRANCH   1   6
BRANCH   1  13
ATOM     13  C   UNL     1      47.130   3.823  14.269  0.00  0.00    +0.000 C 
BRANCH  13  14
ATOM     14  C   UNL     1      46.423   4.720  13.270  0.00  0.00    +0.000 A 
ATOM     15  C   UNL     1      45.251   4.274  12.657  0.00  0.00    +0.000 A 
ATOM     16  C   UNL     1      44.601   5.099  11.734  0.00  0.00    +0.000 A 
ATOM     17  C   UNL     1      45.161   6.347  11.453  0.00  0.00    +0.000 A 
ATOM     18  C   UNL     1      46.330   6.712  12.101  0.00  0.00    +0.000 A 
ATOM     19  N   UNL     1      46.969   5.930  12.997  0.00  0.00    +0.000 NA
BRANCH  16  20
ATOM     20  C   UNL     1      43.326   4.663  11.064  0.00  0.00    +0.000 C 
ATOM     21  F   UNL     1      42.255   5.448  11.357  0.00  0.00    +0.000 F 
ATOM     22  F   UNL     1      43.428   4.661   9.706  0.00  0.00    +0.000 F 
ATOM     23  F   UNL     1      42.966   3.396  11.412  0.00  0.00    +0.000 F 
ENDBRANCH  16  20
ENDBRANCH  13  14
ENDBRANCH   1  13
TORSDOF 6
ENDMDL
