MODEL 1
REMARK VINA RESULT:    -7.890      0.000      0.000
REMARK INTER + INTRA:         -14.037
REMARK INTER:                 -12.502
REMARK INTRA:                  -1.534
REMARK UNBOUND:                -1.534
REMARK  Name = 
REMARK  11 active torsions:
REMARK  status: ('A' for Active; 'I' for Inactive)
REMARK    1  A    between atoms: N_1  and  C_2
REMARK    2  A    between atoms: C_2  and  C_3
REMARK    3  A    between atoms: C_3  and  N_4
REMARK    4  A    between atoms: C_3  and  C_20
REMARK    5  A    between atoms: C_5  and  C_7
REMARK    6  A    between atoms: N_13  and  C_14
REMARK    7  A    between atoms: C_14  and  C_15
REMARK    8  A    between atoms: C_15  and  O_16
REMARK    9  A    between atoms: C_23  and  O_24
REMARK   10  A    between atoms: O_24  and  C_25
REMARK   11  A    between atoms: C_25  and  C_26
REMARK                            x       y       z     vdW  Elec       q    Type
REMARK                         _______ _______ _______ _____ _____    ______ ____
ROOT
ATOM      1  C   UNL     1      47.328   7.718  13.198  0.00  0.00    +0.000 C 
ENDROOT
BRANCH   1   2
ATOM      2  C   UNL     1      46.569   6.515  12.633  0.00  0.00    +0.000 A 
ATOM      3  C   UNL     1      46.626   5.270  13.275  0.00  0.00    +0.000 A 
ATOM      4  C   UNL     1      46.039   4.142  12.691  0.00  0.00    +0.000 A 
ATOM      5  C   UNL     1      45.348   4.252  11.484  0.00  0.00    +0.000 A 
ATOM      6  C   UNL     1      45.305   5.477  10.827  0.00  0.00    +0.000 A 
ATOM      7  C   UNL     1      45.926   6.587  11.389  0.00  0.00    +0.000 A 
BRANCH   5   8
ATOM      8  O   UNL     1      44.769   3.107  11.009  0.00  0.00    +0.000 OA
BRANCH   8   9
ATOM      9  C   UNL     1      44.256   3.222   9.674  0.00  0.00    +0.000 C 
BRANCH   9  10
ATOM     10  C   UNL     1      45.254   2.761   8.642  0.00  0.00    +0.000 A 
ATOM     11  C   UNL     1      45.811   3.650   7.729  0.00  0.00    +0.000 A 
ATOM     12  C   UNL     1      46.807   3.198   6.870  0.00  0.00    +0.000 A 
ATOM     13  C   UNL     1      47.229   1.880   6.955  0.00  0.00    +0.000 A 
ATOM     14  C   UNL     1      46.628   1.056   7.891  0.00  0.00    +0.000 A 
ATOM     15  N   UNL     1      45.660   1.465   8.737  0.00  0.00    +0.000 NA
ENDBRANCH   9  10
ENDBRANCH   8   9
ENDBRANCH   5   8
ENDBRANCH   1   2
BRANCH   1  16
ATOM     16  N   UNL     1      47.578   7.541  14.631  0.00  0.00    +0.000 N 
ATOM     17  C   UNL     1      48.643   8.087  15.298  0.00  0.00    +0.000 C 
ATOM     18  O   UNL     1      49.498   8.755  14.725  0.00  0.00    +0.000 OA
ATOM     19  H   UNL     1      46.880   7.039  15.165  0.00  0.00    +0.000 HD
BRANCH  17  20
ATOM     20  C   UNL     1      48.733   7.812  16.742  0.00  0.00    +0.000 A 
ATOM     21  C   UNL     1      48.814   8.869  17.638  0.00  0.00    +0.000 A 
ATOM     22  S   UNL     1      48.913   8.384  19.270  0.00  0.00    +0.000 S 
ATOM     23  C   UNL     1      48.811   6.740  18.847  0.00  0.00    +0.000 A 
ATOM     24  N   UNL     1      48.807   5.772  19.801  0.00  0.00    +0.000 NA
ATOM     25  C   UNL     1      48.680   4.566  19.347  0.00  0.00    +0.000 A 
ATOM     26  N   UNL     1      48.572   4.225  18.015  0.00  0.00    +0.000 N 
ATOM     27  C   UNL     1      48.637   5.192  17.018  0.00  0.00    +0.000 A 
ATOM     28  O   UNL     1      48.658   4.897  15.829  0.00  0.00    +0.000 OA
ATOM     29  C   UNL     1      48.732   6.561  17.479  0.00  0.00    +0.000 A 
BRANCH  26  30
ATOM     30  C   UNL     1      48.470   2.820  17.616  0.00  0.00    +0.000 C 
BRANCH  30  31
ATOM     31  C   UNL     1      49.823   2.233  17.211  0.00  0.00    +0.000 C 
BRANCH  31  32
ATOM     32  O   UNL     1      49.782   1.783  15.860  0.00  0.00    +0.000 OA
ATOM     33  H   UNL     1      49.229   0.983  15.832  0.00  0.00    +0.000 HD
ENDBRANCH  31  32
ENDBRANCH  30  31
ENDBRANCH  26  30
ENDBRANCH  17  20
ENDBRANCH   1  16
BRANCH   1  34
ATOM     34  C   UNL     1      46.521   9.017  12.888  0.00  0.00    +0.000 C 
BRANCH  34  35
ATOM     35  N   UNL     1      47.335  10.244  12.821  0.00  0.00    +0.000 NA
ATOM     36  H   UNL     1      46.739  11.020  12.536  0.00  0.00    +0.000 HD
ATOM     37  H   UNL     1      48.030  10.148  12.080  0.00  0.00    +0.000 HD
ENDBRANCH  34  35
ENDBRANCH   1  34
TORSDOF 11
ENDMDL
MODEL 2
REMARK VINA RESULT:    -7.120      1.983      2.295
REMARK INTER + INTRA:         -12.817
REMARK INTER:                 -11.455
REMARK INTRA:                  -1.362
REMARK UNBOUND:                -1.534
REMARK  Name = 
REMARK  11 active torsions:
REMARK  status: ('A' for Active; 'I' for Inactive)
REMARK    1  A    between atoms: N_1  and  C_2
REMARK    2  A    between atoms: C_2  and  C_3
REMARK    3  A    between atoms: C_3  and  N_4
REMARK    4  A    between atoms: C_3  and  C_20
REMARK    5  A    between atoms: C_5  and  C_7
REMARK    6  A    between atoms: N_13  and  C_14
REMARK    7  A    between atoms: C_14  and  C_15
REMARK    8  A    between atoms: C_15  and  O_16
REMARK    9  A    between atoms: C_23  and  O_24
REMARK   10  A    between atoms: O_24  and  C_25
REMARK   11  A    between atoms: C_25  and  C_26
REMARK                            x       y       z     vdW  Elec       q    Type
REMARK                         _______ _______ _______ _____ _____    ______ ____
ROOT
ATOM      1  C   UNL     1      48.297   7.951  13.287  0.00  0.00    +0.000 C 
ENDROOT
BRANCH   1   2
ATOM      2  C   UNL     1      47.237   6.969  12.783  0.00  0.00    +0.000 A 
ATOM      3  C   UNL     1      47.123   5.690  13.347  0.00  0.00    +0.000 A 
ATOM      4  C   UNL     1      46.243   4.749  12.803  0.00  0.00    +0.000 A 
ATOM      5  C   UNL     1      45.433   5.086  11.718  0.00  0.00    +0.000 A 
ATOM      6  C   UNL     1      45.554   6.343  11.135  0.00  0.00    +0.000 A 
ATOM      7  C   UNL     1      46.460   7.262  11.653  0.00  0.00    +0.000 A 
BRANCH   5   8
ATOM      8  O   UNL     1      44.572   4.117  11.279  0.00  0.00    +0.000 OA
BRANCH   8   9
ATOM      9  C   UNL     1      44.217   4.236   9.894  0.00  0.00    +0.000 C 
BRANCH   9  10
ATOM     10  C   UNL     1      45.204   3.536   8.995  0.00  0.00    +0.000 A 
ATOM     11  C   UNL     1      45.375   2.156   9.046  0.00  0.00    +0.000 A 
ATOM     12  C   UNL     1      46.218   1.546   8.122  0.00  0.00    +0.000 A 
ATOM     13  C   UNL     1      46.854   2.325   7.168  0.00  0.00    +0.000 A 
ATOM     14  C   UNL     1      46.633   3.692   7.180  0.00  0.00    +0.000 A 
ATOM     15  N   UNL     1      45.822   4.311   8.063  0.00  0.00    +0.000 NA
ENDBRANCH   9  10
ENDBRANCH   8   9
ENDBRANCH   5   8
ENDBRANCH   1   2
BRANCH   1  16
ATOM     16  N   UNL     1      49.231   7.278  14.192  0.00  0.00    +0.000 N 
ATOM     17  C   UNL     1      50.326   7.882  14.753  0.00  0.00    +0.000 C 
ATOM     18  O   UNL     1      50.625   9.046  14.510  0.00  0.00    +0.000 OA
ATOM     19  H   UNL     1      49.010   6.329  14.468  0.00  0.00    +0.000 HD
BRANCH  17  20
ATOM     20  C   UNL     1      51.154   7.054  15.649  0.00  0.00    +0.000 A 
ATOM     21  C   UNL     1      52.537   7.162  15.597  0.00  0.00    +0.000 A 
ATOM     22  S   UNL     1      53.349   6.139  16.695  0.00  0.00    +0.000 S 
ATOM     23  C   UNL     1      51.882   5.540  17.311  0.00  0.00    +0.000 A 
ATOM     24  N   UNL     1      51.867   4.632  18.322  0.00  0.00    +0.000 NA
ATOM     25  C   UNL     1      50.685   4.293  18.727  0.00  0.00    +0.000 A 
ATOM     26  N   UNL     1      49.499   4.764  18.204  0.00  0.00    +0.000 N 
ATOM     27  C   UNL     1      49.489   5.644  17.128  0.00  0.00    +0.000 A 
ATOM     28  O   UNL     1      48.447   5.984  16.578  0.00  0.00    +0.000 OA
ATOM     29  C   UNL     1      50.788   6.090  16.670  0.00  0.00    +0.000 A 
BRANCH  26  30
ATOM     30  C   UNL     1      48.217   4.280  18.719  0.00  0.00    +0.000 C 
BRANCH  30  31
ATOM     31  C   UNL     1      47.700   3.069  17.939  0.00  0.00    +0.000 C 
BRANCH  31  32
ATOM     32  O   UNL     1      46.654   3.462  17.055  0.00  0.00    +0.000 OA
ATOM     33  H   UNL     1      47.060   3.698  16.202  0.00  0.00    +0.000 HD
ENDBRANCH  31  32
ENDBRANCH  30  31
ENDBRANCH  26  30
ENDBRANCH  17  20
ENDBRANCH   1  16
BRANCH   1  34
ATOM     34  C   UNL     1      47.584   9.165  13.959  0.00  0.00    +0.000 C 
BRANCH  34  35
ATOM     35  N   UNL     1      47.433   9.057  15.420  0.00  0.00    +0.000 NA
ATOM     36  H   UNL     1      48.347   9.167  15.856  0.00  0.00    +0.000 HD
ATOM     37  H   UNL     1      47.129   8.111  15.659  0.00  0.00    +0.000 HD
ENDBRANCH  34  35
ENDBRANCH   1  34
TORSDOF 11
ENDMDL
MODEL 3
REMARK VINA RESULT:    -7.002      2.931      4.187
REMARK INTER + INTRA:         -12.630
REMARK INTER:                 -10.969
REMARK INTRA:                  -1.661
REMARK UNBOUND:                -1.534
REMARK  Name = 
REMARK  11 active torsions:
REMARK  status: ('A' for Active; 'I' for Inactive)
REMARK    1  A    between atoms: N_1  and  C_2
REMARK    2  A    between atoms: C_2  and  C_3
REMARK    3  A    between atoms: C_3  and  N_4
REMARK    4  A    between atoms: C_3  and  C_20
REMARK    5  A    between atoms: C_5  and  C_7
REMARK    6  A    between atoms: N_13  and  C_14
REMARK    7  A    between atoms: C_14  and  C_15
REMARK    8  A    between atoms: C_15  and  O_16
REMARK    9  A    between atoms: C_23  and  O_24
REMARK   10  A    between atoms: O_24  and  C_25
REMARK   11  A    between atoms: C_25  and  C_26
REMARK                            x       y       z     vdW  Elec       q    Type
REMARK                         _______ _______ _______ _____ _____    ______ ____
ROOT
ATOM      1  C   UNL     1      46.781   5.675  14.031  0.00  0.00    +0.000 C 
ENDROOT
BRANCH   1   2
ATOM      2  C   UNL     1      46.000   5.135  12.830  0.00  0.00    +0.000 A 
ATOM      3  C   UNL     1      45.375   3.881  12.889  0.00  0.00    +0.000 A 
ATOM      4  C   UNL     1      44.773   3.333  11.752  0.00  0.00    +0.000 A 
ATOM      5  C   UNL     1      44.745   4.048  10.555  0.00  0.00    +0.000 A 
ATOM      6  C   UNL     1      45.383   5.281  10.477  0.00  0.00    +0.000 A 
ATOM      7  C   UNL     1      46.017   5.806  11.598  0.00  0.00    +0.000 A 
BRANCH   5   8
ATOM      8  O   UNL     1      44.097   3.453   9.507  0.00  0.00    +0.000 OA
BRANCH   8   9
ATOM      9  C   UNL     1      44.571   2.133   9.200  0.00  0.00    +0.000 C 
BRANCH   9  10
ATOM     10  C   UNL     1      45.631   2.147   8.128  0.00  0.00    +0.000 A 
ATOM     11  C   UNL     1      45.826   3.263   7.320  0.00  0.00    +0.000 A 
ATOM     12  C   UNL     1      46.887   3.267   6.421  0.00  0.00    +0.000 A 
ATOM     13  C   UNL     1      47.730   2.168   6.362  0.00  0.00    +0.000 A 
ATOM     14  C   UNL     1      47.472   1.096   7.199  0.00  0.00    +0.000 A 
ATOM     15  N   UNL     1      46.452   1.063   8.081  0.00  0.00    +0.000 NA
ENDBRANCH   9  10
ENDBRANCH   8   9
ENDBRANCH   5   8
ENDBRANCH   1   2
BRANCH   1  16
ATOM     16  N   UNL     1      47.998   6.357  13.587  0.00  0.00    +0.000 N 
ATOM     17  C   UNL     1      48.111   7.716  13.452  0.00  0.00    +0.000 C 
ATOM     18  O   UNL     1      47.172   8.473  13.671  0.00  0.00    +0.000 OA
ATOM     19  H   UNL     1      48.822   5.787  13.438  0.00  0.00    +0.000 HD
BRANCH  17  20
ATOM     20  C   UNL     1      49.416   8.232  13.001  0.00  0.00    +0.000 A 
ATOM     21  C   UNL     1      49.516   8.855  11.765  0.00  0.00    +0.000 A 
ATOM     22  S   UNL     1      51.090   9.395  11.390  0.00  0.00    +0.000 S 
ATOM     23  C   UNL     1      51.694   8.850  12.884  0.00  0.00    +0.000 A 
ATOM     24  N   UNL     1      52.997   9.037  13.221  0.00  0.00    +0.000 NA
ATOM     25  C   UNL     1      53.316   8.616  14.403  0.00  0.00    +0.000 A 
ATOM     26  N   UNL     1      52.454   8.004  15.289  0.00  0.00    +0.000 N 
ATOM     27  C   UNL     1      51.132   7.745  14.942  0.00  0.00    +0.000 A 
ATOM     28  O   UNL     1      50.385   7.102  15.670  0.00  0.00    +0.000 OA
ATOM     29  C   UNL     1      50.716   8.241  13.646  0.00  0.00    +0.000 A 
BRANCH  26  30
ATOM     30  C   UNL     1      52.936   7.534  16.588  0.00  0.00    +0.000 C 
BRANCH  30  31
ATOM     31  C   UNL     1      53.414   6.081  16.539  0.00  0.00    +0.000 C 
BRANCH  31  32
ATOM     32  O   UNL     1      52.411   5.214  17.058  0.00  0.00    +0.000 OA
ATOM     33  H   UNL     1      51.646   5.763  17.307  0.00  0.00    +0.000 HD
ENDBRANCH  31  32
ENDBRANCH  30  31
ENDBRANCH  26  30
ENDBRANCH  17  20
ENDBRANCH   1  16
BRANCH   1  34
ATOM     34  C   UNL     1      47.078   4.498  15.011  0.00  0.00    +0.000 C 
BRANCH  34  35
ATOM     35  N   UNL     1      48.237   4.712  15.894  0.00  0.00    +0.000 NA
ATOM     36  H   UNL     1      47.904   5.019  16.808  0.00  0.00    +0.000 HD
ATOM     37  H   UNL     1      48.797   5.487  15.534  0.00  0.00    +0.000 HD
ENDBRANCH  34  35
ENDBRANCH   1  34
TORSDOF 11
ENDMDL
MODEL 4
REMARK VINA RESULT:    -6.870      2.188      4.749
REMARK INTER + INTRA:         -12.420
REMARK INTER:                 -10.867
REMARK INTRA:                  -1.553
REMARK UNBOUND:                -1.534
REMARK  Name = 
REMARK  11 active torsions:
REMARK  status: ('A' for Active; 'I' for Inactive)
REMARK    1  A    between atoms: N_1  and  C_2
REMARK    2  A    between atoms: C_2  and  C_3
REMARK    3  A    between atoms: C_3  and  N_4
REMARK    4  A    between atoms: C_3  and  C_20
REMARK    5  A    between atoms: C_5  and  C_7
REMARK    6  A    between atoms: N_13  and  C_14
REMARK    7  A    between atoms: C_14  and  C_15
REMARK    8  A    between atoms: C_15  and  O_16
REMARK    9  A    between atoms: C_23  and  O_24
REMARK   10  A    between atoms: O_24  and  C_25
REMARK   11  A    between atoms: C_25  and  C_26
REMARK                            x       y       z     vdW  Elec       q    Type
REMARK                         _______ _______ _______ _____ _____    ______ ____
ROOT
ATOM      1  C   UNL     1      46.910   4.973  15.110  0.00  0.00    +0.000 C 
ENDROOT
BRANCH   1   2
ATOM      2  C   UNL     1      46.248   4.845  13.736  0.00  0.00    +0.000 A 
ATOM      3  C   UNL     1      45.778   3.604  13.283  0.00  0.00    +0.000 A 
ATOM      4  C   UNL     1      45.291   3.461  11.979  0.00  0.00    +0.000 A 
ATOM      5  C   UNL     1      45.223   4.563  11.127  0.00  0.00    +0.000 A 
ATOM      6  C   UNL     1      45.709   5.793  11.557  0.00  0.00    +0.000 A 
ATOM      7  C   UNL     1      46.231   5.923  12.840  0.00  0.00    +0.000 A 
BRANCH   5   8
ATOM      8  O   UNL     1      44.694   4.340   9.886  0.00  0.00    +0.000 OA
BRANCH   8   9
ATOM      9  C   UNL     1      44.573   2.951   9.543  0.00  0.00    +0.000 C 
BRANCH   9  10
ATOM     10  C   UNL     1      45.488   2.567   8.408  0.00  0.00    +0.000 A 
ATOM     11  C   UNL     1      45.856   3.488   7.433  0.00  0.00    +0.000 A 
ATOM     12  C   UNL     1      46.787   3.115   6.470  0.00  0.00    +0.000 A 
ATOM     13  C   UNL     1      47.335   1.843   6.514  0.00  0.00    +0.000 A 
ATOM     14  C   UNL     1      46.920   0.982   7.516  0.00  0.00    +0.000 A 
ATOM     15  N   UNL     1      46.019   1.315   8.463  0.00  0.00    +0.000 NA
ENDBRANCH   9  10
ENDBRANCH   8   9
ENDBRANCH   5   8
ENDBRANCH   1   2
BRANCH   1  16
ATOM     16  N   UNL     1      48.095   5.829  15.031  0.00  0.00    +0.000 N 
ATOM     17  C   UNL     1      48.791   6.279  16.122  0.00  0.00    +0.000 C 
ATOM     18  O   UNL     1      48.447   6.016  17.269  0.00  0.00    +0.000 OA
ATOM     19  H   UNL     1      48.455   6.040  14.108  0.00  0.00    +0.000 HD
BRANCH  17  20
ATOM     20  C   UNL     1      49.967   7.127  15.855  0.00  0.00    +0.000 A 
ATOM     21  C   UNL     1      51.233   6.668  16.193  0.00  0.00    +0.000 A 
ATOM     22  S   UNL     1      52.485   7.765  15.821  0.00  0.00    +0.000 S 
ATOM     23  C   UNL     1      51.388   8.881  15.157  0.00  0.00    +0.000 A 
ATOM     24  N   UNL     1      51.822  10.050  14.616  0.00  0.00    +0.000 NA
ATOM     25  C   UNL     1      50.889  10.788  14.105  0.00  0.00    +0.000 A 
ATOM     26  N   UNL     1      49.545  10.479  14.095  0.00  0.00    +0.000 N 
ATOM     27  C   UNL     1      49.071   9.319  14.699  0.00  0.00    +0.000 A 
ATOM     28  O   UNL     1      47.872   9.085  14.800  0.00  0.00    +0.000 OA
ATOM     29  C   UNL     1      50.082   8.438  15.243  0.00  0.00    +0.000 A 
BRANCH  26  30
ATOM     30  C   UNL     1      48.574  11.411  13.521  0.00  0.00    +0.000 C 
BRANCH  30  31
ATOM     31  C   UNL     1      47.974  10.889  12.213  0.00  0.00    +0.000 C 
BRANCH  31  32
ATOM     32  O   UNL     1      46.635  10.452  12.424  0.00  0.00    +0.000 OA
ATOM     33  H   UNL     1      46.334  10.821  13.273  0.00  0.00    +0.000 HD
ENDBRANCH  31  32
ENDBRANCH  30  31
ENDBRANCH  26  30
ENDBRANCH  17  20
ENDBRANCH   1  16
BRANCH   1  34
ATOM     34  C   UNL     1      47.238   3.545  15.649  0.00  0.00    +0.000 C 
BRANCH  34  35
ATOM     35  N   UNL     1      46.818   3.303  17.040  0.00  0.00    +0.000 NA
ATOM     36  H   UNL     1      47.591   2.877  17.549  0.00  0.00    +0.000 HD
ATOM     37  H   UNL     1      46.069   2.609  17.051  0.00  0.00    +0.000 HD
ENDBRANCH  34  35
ENDBRANCH   1  34
TORSDOF 11
ENDMDL
MODEL 5
REMARK VINA RESULT:    -6.586      2.829      3.712
REMARK INTER + INTRA:         -11.970
REMARK INTER:                 -10.459
REMARK INTRA:                  -1.511
REMARK UNBOUND:                -1.534
REMARK  Name = 
REMARK  11 active torsions:
REMARK  status: ('A' for Active; 'I' for Inactive)
REMARK    1  A    between atoms: N_1  and  C_2
REMARK    2  A    between atoms: C_2  and  C_3
REMARK    3  A    between atoms: C_3  and  N_4
REMARK    4  A    between atoms: C_3  and  C_20
REMARK    5  A    between atoms: C_5  and  C_7
REMARK    6  A    between atoms: N_13  and  C_14
REMARK    7  A    between atoms: C_14  and  C_15
REMARK    8  A    between atoms: C_15  and  O_16
REMARK    9  A    between atoms: C_23  and  O_24
REMARK   10  A    between atoms: O_24  and  C_25
REMARK   11  A    between atoms: C_25  and  C_26
REMARK                            x       y       z     vdW  Elec       q    Type
REMARK                         _______ _______ _______ _____ _____    ______ ____
ROOT
ATOM      1  C   UNL     1      47.619   4.999  15.920  0.00  0.00    +0.000 C 
ENDROOT
BRANCH   1   2
ATOM      2  C   UNL     1      47.092   5.307  14.516  0.00  0.00    +0.000 A 
ATOM      3  C   UNL     1      46.132   4.480  13.917  0.00  0.00    +0.000 A 
ATOM      4  C   UNL     1      45.745   4.687  12.588  0.00  0.00    +0.000 A 
ATOM      5  C   UNL     1      46.277   5.749  11.856  0.00  0.00    +0.000 A 
ATOM      6  C   UNL     1      47.248   6.561  12.432  0.00  0.00    +0.000 A 
ATOM      7  C   UNL     1      47.661   6.328  13.740  0.00  0.00    +0.000 A 
BRANCH   5   8
ATOM      8  O   UNL     1      45.810   5.901  10.579  0.00  0.00    +0.000 OA
BRANCH   8   9
ATOM      9  C   UNL     1      44.822   4.932  10.200  0.00  0.00    +0.000 C 
BRANCH   9  10
ATOM     10  C   UNL     1      45.345   3.966   9.166  0.00  0.00    +0.000 A 
ATOM     11  C   UNL     1      46.069   4.410   8.065  0.00  0.00    +0.000 A 
ATOM     12  C   UNL     1      46.622   3.472   7.199  0.00  0.00    +0.000 A 
ATOM     13  C   UNL     1      46.451   2.121   7.464  0.00  0.00    +0.000 A 
ATOM     14  C   UNL     1      45.718   1.758   8.581  0.00  0.00    +0.000 A 
ATOM     15  N   UNL     1      45.170   2.644   9.437  0.00  0.00    +0.000 NA
ENDBRANCH   9  10
ENDBRANCH   8   9
ENDBRANCH   5   8
ENDBRANCH   1   2
BRANCH   1  16
ATOM     16  N   UNL     1      49.057   5.265  15.998  0.00  0.00    +0.000 N 
ATOM     17  C   UNL     1      49.613   6.262  16.756  0.00  0.00    +0.000 C 
ATOM     18  O   UNL     1      48.930   7.038  17.415  0.00  0.00    +0.000 OA
ATOM     19  H   UNL     1      49.675   4.627  15.512  0.00  0.00    +0.000 HD
BRANCH  17  20
ATOM     20  C   UNL     1      51.082   6.381  16.721  0.00  0.00    +0.000 A 
ATOM     21  C   UNL     1      51.663   7.564  16.287  0.00  0.00    +0.000 A 
ATOM     22  S   UNL     1      53.369   7.541  16.307  0.00  0.00    +0.000 S 
ATOM     23  C   UNL     1      53.398   5.961  16.934  0.00  0.00    +0.000 A 
ATOM     24  N   UNL     1      54.574   5.344  17.221  0.00  0.00    +0.000 NA
ATOM     25  C   UNL     1      54.454   4.162  17.734  0.00  0.00    +0.000 A 
ATOM     26  N   UNL     1      53.258   3.518  17.978  0.00  0.00    +0.000 N 
ATOM     27  C   UNL     1      52.045   4.103  17.634  0.00  0.00    +0.000 A 
ATOM     28  O   UNL     1      50.983   3.501  17.737  0.00  0.00    +0.000 OA
ATOM     29  C   UNL     1      52.126   5.447  17.100  0.00  0.00    +0.000 A 
BRANCH  26  30
ATOM     30  C   UNL     1      53.246   2.162  18.529  0.00  0.00    +0.000 C 
BRANCH  30  31
ATOM     31  C   UNL     1      53.212   1.093  17.435  0.00  0.00    +0.000 C 
BRANCH  31  32
ATOM     32  O   UNL     1      51.875   0.652  17.217  0.00  0.00    +0.000 OA
ATOM     33  H   UNL     1      51.333   0.974  17.959  0.00  0.00    +0.000 HD
ENDBRANCH  31  32
ENDBRANCH  30  31
ENDBRANCH  26  30
ENDBRANCH  17  20
ENDBRANCH   1  16
BRANCH   1  34
ATOM     34  C   UNL     1      47.264   3.523  16.281  0.00  0.00    +0.000 C 
BRANCH  34  35
ATOM     35  N   UNL     1      46.622   3.350  17.595  0.00  0.00    +0.000 NA
ATOM     36  H   UNL     1      47.334   3.412  18.321  0.00  0.00    +0.000 HD
ATOM     37  H   UNL     1      46.244   2.403  17.664  0.00  0.00    +0.000 HD
ENDBRANCH  34  35
ENDBRANCH   1  34
TORSDOF 11
ENDMDL
MODEL 6
REMARK VINA RESULT:    -6.549      2.726      8.467
REMARK INTER + INTRA:         -11.912
REMARK INTER:                 -10.613
REMARK INTRA:                  -1.298
REMARK UNBOUND:                -1.534
REMARK  Name = 
REMARK  11 active torsions:
REMARK  status: ('A' for Active; 'I' for Inactive)
REMARK    1  A    between atoms: N_1  and  C_2
REMARK    2  A    between atoms: C_2  and  C_3
REMARK    3  A    between atoms: C_3  and  N_4
REMARK    4  A    between atoms: C_3  and  C_20
REMARK    5  A    between atoms: C_5  and  C_7
REMARK    6  A    between atoms: N_13  and  C_14
REMARK    7  A    between atoms: C_14  and  C_15
REMARK    8  A    between atoms: C_15  and  O_16
REMARK    9  A    between atoms: C_23  and  O_24
REMARK   10  A    between atoms: O_24  and  C_25
REMARK   11  A    between atoms: C_25  and  C_26
REMARK                            x       y       z     vdW  Elec       q    Type
REMARK                         _______ _______ _______ _____ _____    ______ ____
ROOT
ATOM      1  C   UNL     1      47.168   8.203  12.656  0.00  0.00    +0.000 C 
ENDROOT
BRANCH   1   2
ATOM      2  C   UNL     1      48.008   8.104  13.931  0.00  0.00    +0.000 A 
ATOM      3  C   UNL     1      48.991   7.112  14.063  0.00  0.00    +0.000 A 
ATOM      4  C   UNL     1      49.669   6.940  15.274  0.00  0.00    +0.000 A 
ATOM      5  C   UNL     1      49.408   7.784  16.354  0.00  0.00    +0.000 A 
ATOM      6  C   UNL     1      48.419   8.755  16.243  0.00  0.00    +0.000 A 
ATOM      7  C   UNL     1      47.718   8.897  15.050  0.00  0.00    +0.000 A 
BRANCH   5   8
ATOM      8  O   UNL     1      50.149   7.570  17.484  0.00  0.00    +0.000 OA
BRANCH   8   9
ATOM      9  C   UNL     1      49.403   7.006  18.573  0.00  0.00    +0.000 C 
BRANCH   9  10
ATOM     10  C   UNL     1      48.956   5.596  18.282  0.00  0.00    +0.000 A 
ATOM     11  C   UNL     1      47.621   5.298  18.034  0.00  0.00    +0.000 A 
ATOM     12  C   UNL     1      47.276   4.002  17.664  0.00  0.00    +0.000 A 
ATOM     13  C   UNL     1      48.272   3.046  17.538  0.00  0.00    +0.000 A 
ATOM     14  C   UNL     1      49.579   3.419  17.801  0.00  0.00    +0.000 A 
ATOM     15  N   UNL     1      49.943   4.666  18.162  0.00  0.00    +0.000 NA
ENDBRANCH   9  10
ENDBRANCH   8   9
ENDBRANCH   5   8
ENDBRANCH   1   2
BRANCH   1  16
ATOM     16  N   UNL     1      46.499   6.929  12.381  0.00  0.00    +0.000 N 
ATOM     17  C   UNL     1      45.308   6.816  11.712  0.00  0.00    +0.000 C 
ATOM     18  O   UNL     1      44.689   7.796  11.312  0.00  0.00    +0.000 OA
ATOM     19  H   UNL     1      46.986   6.082  12.646  0.00  0.00    +0.000 HD
BRANCH  17  20
ATOM     20  C   UNL     1      44.784   5.453  11.518  0.00  0.00    +0.000 A 
ATOM     21  C   UNL     1      43.970   4.887  12.489  0.00  0.00    +0.000 A 
ATOM     22  S   UNL     1      43.447   3.307  12.115  0.00  0.00    +0.000 S 
ATOM     23  C   UNL     1      44.256   3.331  10.620  0.00  0.00    +0.000 A 
ATOM     24  N   UNL     1      44.186   2.274   9.770  0.00  0.00    +0.000 NA
ATOM     25  C   UNL     1      44.809   2.439   8.648  0.00  0.00    +0.000 A 
ATOM     26  N   UNL     1      45.520   3.566   8.291  0.00  0.00    +0.000 N 
ATOM     27  C   UNL     1      45.659   4.635   9.170  0.00  0.00    +0.000 A 
ATOM     28  O   UNL     1      46.380   5.593   8.916  0.00  0.00    +0.000 OA
ATOM     29  C   UNL     1      44.939   4.516  10.420  0.00  0.00    +0.000 A 
BRANCH  26  30
ATOM     30  C   UNL     1      46.218   3.627   7.006  0.00  0.00    +0.000 C 
BRANCH  30  31
ATOM     31  C   UNL     1      47.332   2.583   6.903  0.00  0.00    +0.000 C 
BRANCH  31  32
ATOM     32  O   UNL     1      48.188   2.881   5.804  0.00  0.00    +0.000 OA
ATOM     33  H   UNL     1      47.697   3.463   5.196  0.00  0.00    +0.000 HD
ENDBRANCH  31  32
ENDBRANCH  30  31
ENDBRANCH  26  30
ENDBRANCH  17  20
ENDBRANCH   1  16
BRANCH   1  34
ATOM     34  C   UNL     1      48.085   8.663  11.479  0.00  0.00    +0.000 C 
BRANCH  34  35
ATOM     35  N   UNL     1      48.725   9.975  11.677  0.00  0.00    +0.000 NA
ATOM     36  H   UNL     1      48.793  10.447  10.776  0.00  0.00    +0.000 HD
ATOM     37  H   UNL     1      49.689   9.837  11.986  0.00  0.00    +0.000 HD
ENDBRANCH  34  35
ENDBRANCH   1  34
TORSDOF 11
ENDMDL
MODEL 7
REMARK VINA RESULT:    -6.530      2.853      4.654
REMARK INTER + INTRA:         -11.882
REMARK INTER:                 -10.274
REMARK INTRA:                  -1.608
REMARK UNBOUND:                -1.534
REMARK  Name = 
REMARK  11 active torsions:
REMARK  status: ('A' for Active; 'I' for Inactive)
REMARK    1  A    between atoms: N_1  and  C_2
REMARK    2  A    between atoms: C_2  and  C_3
REMARK    3  A    between atoms: C_3  and  N_4
REMARK    4  A    between atoms: C_3  and  C_20
REMARK    5  A    between atoms: C_5  and  C_7
REMARK    6  A    between atoms: N_13  and  C_14
REMARK    7  A    between atoms: C_14  and  C_15
REMARK    8  A    between atoms: C_15  and  O_16
REMARK    9  A    between atoms: C_23  and  O_24
REMARK   10  A    between atoms: O_24  and  C_25
REMARK   11  A    between atoms: C_25  and  C_26
REMARK                            x       y       z     vdW  Elec       q    Type
REMARK                         _______ _______ _______ _____ _____    ______ ____
ROOT
ATOM      1  C   UNL     1      47.464   5.022  15.615  0.00  0.00    +0.000 C 
ENDROOT
BRANCH   1   2
ATOM      2  C   UNL     1      46.910   5.098  14.191  0.00  0.00    +0.000 A 
ATOM      3  C   UNL     1      47.153   6.223  13.389  0.00  0.00    +0.000 A 
ATOM      4  C   UNL     1      46.540   6.349  12.137  0.00  0.00    +0.000 A 
ATOM      5  C   UNL     1      45.716   5.335  11.650  0.00  0.00    +0.000 A 
ATOM      6  C   UNL     1      45.448   4.226  12.446  0.00  0.00    +0.000 A 
ATOM      7  C   UNL     1      46.025   4.123  13.707  0.00  0.00    +0.000 A 
BRANCH   5   8
ATOM      8  O   UNL     1      45.195   5.524  10.399  0.00  0.00    +0.000 OA
BRANCH   8   9
ATOM      9  C   UNL     1      44.526   4.373   9.864  0.00  0.00    +0.000 C 
BRANCH   9  10
ATOM     10  C   UNL     1      45.406   3.598   8.915  0.00  0.00    +0.000 A 
ATOM     11  C   UNL     1      45.515   2.214   8.999  0.00  0.00    +0.000 A 
ATOM     12  C   UNL     1      46.253   1.536   8.034  0.00  0.00    +0.000 A 
ATOM     13  C   UNL     1      46.848   2.254   7.008  0.00  0.00    +0.000 A 
ATOM     14  C   UNL     1      46.694   3.630   6.992  0.00  0.00    +0.000 A 
ATOM     15  N   UNL     1      45.985   4.314   7.913  0.00  0.00    +0.000 NA
ENDBRANCH   9  10
ENDBRANCH   8   9
ENDBRANCH   5   8
ENDBRANCH   1   2
BRANCH   1  16
ATOM     16  N   UNL     1      48.845   5.507  15.655  0.00  0.00    +0.000 N 
ATOM     17  C   UNL     1      49.362   6.269  16.670  0.00  0.00    +0.000 C 
ATOM     18  O   UNL     1      48.683   6.630  17.625  0.00  0.00    +0.000 OA
ATOM     19  H   UNL     1      49.467   5.201  14.917  0.00  0.00    +0.000 HD
BRANCH  17  20
ATOM     20  C   UNL     1      50.777   6.663  16.549  0.00  0.00    +0.000 A 
ATOM     21  C   UNL     1      51.686   6.258  17.517  0.00  0.00    +0.000 A 
ATOM     22  S   UNL     1      53.280   6.795  17.233  0.00  0.00    +0.000 S 
ATOM     23  C   UNL     1      52.826   7.559  15.783  0.00  0.00    +0.000 A 
ATOM     24  N   UNL     1      53.745   8.194  15.010  0.00  0.00    +0.000 NA
ATOM     25  C   UNL     1      53.276   8.694  13.912  0.00  0.00    +0.000 A 
ATOM     26  N   UNL     1      51.957   8.635  13.510  0.00  0.00    +0.000 N 
ATOM     27  C   UNL     1      50.988   8.045  14.314  0.00  0.00    +0.000 A 
ATOM     28  O   UNL     1      49.797   8.084  14.028  0.00  0.00    +0.000 OA
ATOM     29  C   UNL     1      51.473   7.430  15.532  0.00  0.00    +0.000 A 
BRANCH  26  30
ATOM     30  C   UNL     1      51.533   9.270  12.262  0.00  0.00    +0.000 C 
BRANCH  30  31
ATOM     31  C   UNL     1      51.774   8.373  11.045  0.00  0.00    +0.000 C 
BRANCH  31  32
ATOM     32  O   UNL     1      50.946   7.216  11.114  0.00  0.00    +0.000 OA
ATOM     33  H   UNL     1      50.020   7.511  11.057  0.00  0.00    +0.000 HD
ENDBRANCH  31  32
ENDBRANCH  30  31
ENDBRANCH  26  30
ENDBRANCH  17  20
ENDBRANCH   1  16
BRANCH   1  34
ATOM     34  C   UNL     1      47.331   3.555  16.132  0.00  0.00    +0.000 C 
BRANCH  34  35
ATOM     35  N   UNL     1      46.586   3.415  17.396  0.00  0.00    +0.000 NA
ATOM     36  H   UNL     1      45.690   3.893  17.305  0.00  0.00    +0.000 HD
ATOM     37  H   UNL     1      47.084   3.909  18.138  0.00  0.00    +0.000 HD
ENDBRANCH  34  35
ENDBRANCH   1  34
TORSDOF 11
ENDMDL
MODEL 8
REMARK VINA RESULT:    -6.215      3.290      4.754
REMARK INTER + INTRA:         -11.382
REMARK INTER:                 -10.126
REMARK INTRA:                  -1.256
REMARK UNBOUND:                -1.534
REMARK  Name = 
REMARK  11 active torsions:
REMARK  status: ('A' for Active; 'I' for Inactive)
REMARK    1  A    between atoms: N_1  and  C_2
REMARK    2  A    between atoms: C_2  and  C_3
REMARK    3  A    between atoms: C_3  and  N_4
REMARK    4  A    between atoms: C_3  and  C_20
REMARK    5  A    between atoms: C_5  and  C_7
REMARK    6  A    between atoms: N_13  and  C_14
REMARK    7  A    between atoms: C_14  and  C_15
REMARK    8  A    between atoms: C_15  and  O_16
REMARK    9  A    between atoms: C_23  and  O_24
REMARK   10  A    between atoms: O_24  and  C_25
REMARK   11  A    between atoms: C_25  and  C_26
REMARK                            x       y       z     vdW  Elec       q    Type
REMARK                         _______ _______ _______ _____ _____    ______ ____
ROOT
ATOM      1  C   UNL     1      48.271   4.434  16.819  0.00  0.00    +0.000 C 
ENDROOT
BRANCH   1   2
ATOM      2  C   UNL     1      47.797   4.976  15.469  0.00  0.00    +0.000 A 
ATOM      3  C   UNL     1      46.980   4.199  14.635  0.00  0.00    +0.000 A 
ATOM      4  C   UNL     1      46.652   4.640  13.348  0.00  0.00    +0.000 A 
ATOM      5  C   UNL     1      47.097   5.882  12.895  0.00  0.00    +0.000 A 
ATOM      6  C   UNL     1      47.927   6.651  13.703  0.00  0.00    +0.000 A 
ATOM      7  C   UNL     1      48.285   6.191  14.966  0.00  0.00    +0.000 A 
BRANCH   5   8
ATOM      8  O   UNL     1      46.692   6.251  11.641  0.00  0.00    +0.000 OA
BRANCH   8   9
ATOM      9  C   UNL     1      45.299   6.019  11.384  0.00  0.00    +0.000 C 
BRANCH   9  10
ATOM     10  C   UNL     1      45.087   4.958  10.334  0.00  0.00    +0.000 A 
ATOM     11  C   UNL     1      45.691   5.048   9.084  0.00  0.00    +0.000 A 
ATOM     12  C   UNL     1      45.552   3.992   8.190  0.00  0.00    +0.000 A 
ATOM     13  C   UNL     1      44.829   2.872   8.572  0.00  0.00    +0.000 A 
ATOM     14  C   UNL     1      44.259   2.855   9.833  0.00  0.00    +0.000 A 
ATOM     15  N   UNL     1      44.376   3.864  10.721  0.00  0.00    +0.000 NA
ENDBRANCH   9  10
ENDBRANCH   8   9
ENDBRANCH   5   8
ENDBRANCH   1   2
BRANCH   1  16
ATOM     16  N   UNL     1      49.732   4.499  16.914  0.00  0.00    +0.000 N 
ATOM     17  C   UNL     1      50.408   5.180  17.892  0.00  0.00    +0.000 C 
ATOM     18  O   UNL     1      49.827   5.821  18.761  0.00  0.00    +0.000 OA
ATOM     19  H   UNL     1      50.265   3.950  16.251  0.00  0.00    +0.000 HD
BRANCH  17  20
ATOM     20  C   UNL     1      51.880   5.132  17.837  0.00  0.00    +0.000 A 
ATOM     21  C   UNL     1      52.605   6.315  17.835  0.00  0.00    +0.000 A 
ATOM     22  S   UNL     1      54.294   6.089  17.768  0.00  0.00    +0.000 S 
ATOM     23  C   UNL     1      54.125   4.397  17.780  0.00  0.00    +0.000 A 
ATOM     24  N   UNL     1      55.215   3.585  17.773  0.00  0.00    +0.000 NA
ATOM     25  C   UNL     1      54.949   2.320  17.829  0.00  0.00    +0.000 A 
ATOM     26  N   UNL     1      53.682   1.775  17.877  0.00  0.00    +0.000 N 
ATOM     27  C   UNL     1      52.551   2.582  17.822  0.00  0.00    +0.000 A 
ATOM     28  O   UNL     1      51.422   2.112  17.748  0.00  0.00    +0.000 OA
ATOM     29  C   UNL     1      52.799   4.009  17.806  0.00  0.00    +0.000 A 
BRANCH  26  30
ATOM     30  C   UNL     1      53.500   0.323  17.902  0.00  0.00    +0.000 C 
BRANCH  30  31
ATOM     31  C   UNL     1      54.573  -0.409  17.093  0.00  0.00    +0.000 C 
BRANCH  31  32
ATOM     32  O   UNL     1      54.068  -0.761  15.808  0.00  0.00    +0.000 OA
ATOM     33  H   UNL     1      53.239  -1.253  15.942  0.00  0.00    +0.000 HD
ENDBRANCH  31  32
ENDBRANCH  30  31
ENDBRANCH  26  30
ENDBRANCH  17  20
ENDBRANCH   1  16
BRANCH   1  34
ATOM     34  C   UNL     1      47.724   2.984  17.004  0.00  0.00    +0.000 C 
BRANCH  34  35
ATOM     35  N   UNL     1      46.522   2.885  17.849  0.00  0.00    +0.000 NA
ATOM     36  H   UNL     1      46.634   2.103  18.492  0.00  0.00    +0.000 HD
ATOM     37  H   UNL     1      45.718   2.645  17.266  0.00  0.00    +0.000 HD
ENDBRANCH  34  35
ENDBRANCH   1  34
TORSDOF 11
ENDMDL
MODEL 9
REMARK VINA RESULT:    -5.953      3.206      8.961
REMARK INTER + INTRA:         -10.967
REMARK INTER:                  -9.795
REMARK INTRA:                  -1.172
REMARK UNBOUND:                -1.534
REMARK  Name = 
REMARK  11 active torsions:
REMARK  status: ('A' for Active; 'I' for Inactive)
REMARK    1  A    between atoms: N_1  and  C_2
REMARK    2  A    between atoms: C_2  and  C_3
REMARK    3  A    between atoms: C_3  and  N_4
REMARK    4  A    between atoms: C_3  and  C_20
REMARK    5  A    between atoms: C_5  and  C_7
REMARK    6  A    between atoms: N_13  and  C_14
REMARK    7  A    between atoms: C_14  and  C_15
REMARK    8  A    between atoms: C_15  and  O_16
REMARK    9  A    between atoms: C_23  and  O_24
REMARK   10  A    between atoms: O_24  and  C_25
REMARK   11  A    between atoms: C_25  and  C_26
REMARK                            x       y       z     vdW  Elec       q    Type
REMARK                         _______ _______ _______ _____ _____    ______ ____
ROOT
ATOM      1  C   UNL     1      46.989   7.942  12.694  0.00  0.00    +0.000 C 
ENDROOT
BRANCH   1   2
ATOM      2  C   UNL     1      47.714   7.813  14.036  0.00  0.00    +0.000 A 
ATOM      3  C   UNL     1      48.205   8.950  14.695  0.00  0.00    +0.000 A 
ATOM      4  C   UNL     1      48.978   8.822  15.854  0.00  0.00    +0.000 A 
ATOM      5  C   UNL     1      49.231   7.562  16.396  0.00  0.00    +0.000 A 
ATOM      6  C   UNL     1      48.771   6.426  15.739  0.00  0.00    +0.000 A 
ATOM      7  C   UNL     1      48.038   6.555  14.564  0.00  0.00    +0.000 A 
BRANCH   5   8
ATOM      8  O   UNL     1      49.959   7.535  17.555  0.00  0.00    +0.000 OA
BRANCH   8   9
ATOM      9  C   UNL     1      51.380   7.541  17.352  0.00  0.00    +0.000 C 
BRANCH   9  10
ATOM     10  C   UNL     1      51.989   6.180  17.576  0.00  0.00    +0.000 A 
ATOM     11  C   UNL     1      53.284   5.891  17.159  0.00  0.00    +0.000 A 
ATOM     12  C   UNL     1      53.837   4.657  17.485  0.00  0.00    +0.000 A 
ATOM     13  C   UNL     1      53.092   3.755  18.228  0.00  0.00    +0.000 A 
ATOM     14  C   UNL     1      51.810   4.116  18.608  0.00  0.00    +0.000 A 
ATOM     15  N   UNL     1      51.247   5.304  18.306  0.00  0.00    +0.000 NA
ENDBRANCH   9  10
ENDBRANCH   8   9
ENDBRANCH   5   8
ENDBRANCH   1   2
BRANCH   1  16
ATOM     16  N   UNL     1      46.370   6.668  12.321  0.00  0.00    +0.000 N 
ATOM     17  C   UNL     1      45.180   6.561  11.650  0.00  0.00    +0.000 C 
ATOM     18  O   UNL     1      44.520   7.544  11.331  0.00  0.00    +0.000 OA
ATOM     19  H   UNL     1      46.892   5.823  12.516  0.00  0.00    +0.000 HD
BRANCH  17  20
ATOM     20  C   UNL     1      44.709   5.197  11.349  0.00  0.00    +0.000 A 
ATOM     21  C   UNL     1      43.869   4.550  12.244  0.00  0.00    +0.000 A 
ATOM     22  S   UNL     1      43.414   2.981  11.751  0.00  0.00    +0.000 S 
ATOM     23  C   UNL     1      44.292   3.120  10.302  0.00  0.00    +0.000 A 
ATOM     24  N   UNL     1      44.296   2.115   9.388  0.00  0.00    +0.000 NA
ATOM     25  C   UNL     1      44.966   2.366   8.310  0.00  0.00    +0.000 A 
ATOM     26  N   UNL     1      45.657   3.533   8.056  0.00  0.00    +0.000 N 
ATOM     27  C   UNL     1      45.720   4.550   9.002  0.00  0.00    +0.000 A 
ATOM     28  O   UNL     1      46.421   5.542   8.842  0.00  0.00    +0.000 OA
ATOM     29  C   UNL     1      44.946   4.334  10.207  0.00  0.00    +0.000 A 
BRANCH  26  30
ATOM     30  C   UNL     1      46.413   3.692   6.813  0.00  0.00    +0.000 C 
BRANCH  30  31
ATOM     31  C   UNL     1      47.218   2.439   6.460  0.00  0.00    +0.000 C 
BRANCH  31  32
ATOM     32  O   UNL     1      48.608   2.742   6.414  0.00  0.00    +0.000 OA
ATOM     33  H   UNL     1      49.029   2.108   5.807  0.00  0.00    +0.000 HD
ENDBRANCH  31  32
ENDBRANCH  30  31
ENDBRANCH  26  30
ENDBRANCH  17  20
ENDBRANCH   1  16
BRANCH   1  34
ATOM     34  C   UNL     1      48.000   8.453  11.620  0.00  0.00    +0.000 C 
BRANCH  34  35
ATOM     35  N   UNL     1      49.209   7.624  11.471  0.00  0.00    +0.000 NA
ATOM     36  H   UNL     1      49.302   7.348  10.495  0.00  0.00    +0.000 HD
ATOM     37  H   UNL     1      49.087   6.752  11.990  0.00  0.00    +0.000 HD
ENDBRANCH  34  35
ENDBRANCH   1  34
TORSDOF 11
ENDMDL
