MODEL 1
REMARK VINA RESULT:    -6.510      0.000      0.000
REMARK INTER + INTRA:         -10.833
REMARK INTER:                  -9.745
REMARK INTRA:                  -1.088
REMARK UNBOUND:                -1.088
REMARK  Name = 
REMARK  13 active torsions:
REMARK  status: ('A' for Active; 'I' for Inactive)
REMARK    1  A    between atoms: C_1  and  N_2
REMARK    2  A    between atoms: C_4  and  C_5
REMARK    3  A    between atoms: C_5  and  C_6
REMARK    4  A    between atoms: C_9  and  O_10
REMARK    5  A    between atoms: O_10  and  C_11
REMARK    6  A    between atoms: C_11  and  C_12
REMARK    7  A    between atoms: C_12  and  N_13
REMARK    8  A    between atoms: C_12  and  C_14
REMARK    9  A    between atoms: C_14  and  O_15
REMARK   10  A    between atoms: O_15  and  C_16
REMARK   11  A    between atoms: C_16  and  C_17
REMARK   12  A    between atoms: C_16  and  C_18
REMARK   13  A    between atoms: C_16  and  C_19
REMARK                            x       y       z     vdW  Elec       q    Type
REMARK                         _______ _______ _______ _____ _____    ______ ____
ROOT
ATOM      1  C   UNL     1      46.042   7.374  11.967  0.00  0.00    +0.000 A 
ATOM      2  C   UNL     1      47.224   6.638  11.908  0.00  0.00    +0.000 A 
ATOM      3  C   UNL     1      48.263   6.949  12.788  0.00  0.00    +0.000 A 
ATOM      4  C   UNL     1      48.105   7.975  13.711  0.00  0.00    +0.000 A 
ATOM      5  C   UNL     1      46.884   8.639  13.718  0.00  0.00    +0.000 A 
ATOM      6  N   UNL     1      45.864   8.377  12.865  0.00  0.00    +0.000 NA
ENDROOT
BRANCH   1   7
ATOM      7  C   UNL     1      44.920   7.117  10.989  0.00  0.00    +0.000 C 
BRANCH   7  11
ATOM      8  C   UNL     1      43.461   2.447  12.126  0.00  0.00    +0.000 C 
ATOM      9  N   UNL     1      44.053   3.563  11.424  0.00  0.00    +0.000 N 
ATOM     10  C   UNL     1      44.035   4.861  11.862  0.00  0.00    +0.000 A 
ATOM     11  C   UNL     1      44.710   5.644  10.940  0.00  0.00    +0.000 A 
ATOM     12  C   UNL     1      45.128   4.771   9.899  0.00  0.00    +0.000 A 
ATOM     13  N   UNL     1      45.808   5.074   8.765  0.00  0.00    +0.000 NA
ATOM     14  C   UNL     1      46.061   4.022   7.959  0.00  0.00    +0.000 A 
ATOM     15  C   UNL     1      45.683   2.709   8.200  0.00  0.00    +0.000 A 
ATOM     16  C   UNL     1      44.982   2.405   9.364  0.00  0.00    +0.000 A 
ATOM     17  C   UNL     1      44.710   3.479  10.218  0.00  0.00    +0.000 A 
ENDBRANCH   7  11
ENDBRANCH   1   7
BRANCH   4  18
ATOM     18  O   UNL     1      49.180   8.229  14.515  0.00  0.00    +0.000 OA
BRANCH  18  19
ATOM     19  C   UNL     1      49.692   7.106  15.245  0.00  0.00    +0.000 C 
BRANCH  19  20
ATOM     20  C   UNL     1      49.443   7.317  16.752  0.00  0.00    +0.000 C 
BRANCH  20  21
ATOM     21  N   UNL     1      48.310   8.239  16.995  0.00  0.00    +0.000 NA
ATOM     22  H   UNL     1      48.303   8.519  17.975  0.00  0.00    +0.000 HD
ATOM     23  H   UNL     1      47.446   7.704  16.866  0.00  0.00    +0.000 HD
ENDBRANCH  20  21
BRANCH  20  24
ATOM     24  C   UNL     1      49.181   5.970  17.449  0.00  0.00    +0.000 C 
BRANCH  24  25
ATOM     25  O   UNL     1      49.159   4.903  16.497  0.00  0.00    +0.000 OA
BRANCH  25  26
ATOM     26  C   UNL     1      47.979   4.077  16.494  0.00  0.00    +0.000 C 
ATOM     27  C   UNL     1      48.342   2.591  16.616  0.00  0.00    +0.000 C 
ATOM     28  C   UNL     1      47.174   4.482  17.739  0.00  0.00    +0.000 C 
ATOM     29  C   UNL     1      47.110   4.331  15.255  0.00  0.00    +0.000 C 
ENDBRANCH  25  26
ENDBRANCH  24  25
ENDBRANCH  20  24
ENDBRANCH  19  20
ENDBRANCH  18  19
ENDBRANCH   4  18
TORSDOF 9
ENDMDL
MODEL 2
REMARK VINA RESULT:    -6.123      2.622      7.893
REMARK INTER + INTRA:         -10.253
REMARK INTER:                  -9.243
REMARK INTRA:                  -1.010
REMARK UNBOUND:                -1.088
REMARK  Name = 
REMARK  13 active torsions:
REMARK  status: ('A' for Active; 'I' for Inactive)
REMARK    1  A    between atoms: C_1  and  N_2
REMARK    2  A    between atoms: C_4  and  C_5
REMARK    3  A    between atoms: C_5  and  C_6
REMARK    4  A    between atoms: C_9  and  O_10
REMARK    5  A    between atoms: O_10  and  C_11
REMARK    6  A    between atoms: C_11  and  C_12
REMARK    7  A    between atoms: C_12  and  N_13
REMARK    8  A    between atoms: C_12  and  C_14
REMARK    9  A    between atoms: C_14  and  O_15
REMARK   10  A    between atoms: O_15  and  C_16
REMARK   11  A    between atoms: C_16  and  C_17
REMARK   12  A    between atoms: C_16  and  C_18
REMARK   13  A    between atoms: C_16  and  C_19
REMARK                            x       y       z     vdW  Elec       q    Type
REMARK                         _______ _______ _______ _____ _____    ______ ____
ROOT
ATOM      1  C   UNL     1      47.414   6.319  12.949  0.00  0.00    +0.000 A 
ATOM      2  C   UNL     1      46.854   6.817  11.775  0.00  0.00    +0.000 A 
ATOM      3  C   UNL     1      45.558   6.430  11.423  0.00  0.00    +0.000 A 
ATOM      4  C   UNL     1      44.847   5.566  12.246  0.00  0.00    +0.000 A 
ATOM      5  C   UNL     1      45.473   5.139  13.411  0.00  0.00    +0.000 A 
ATOM      6  N   UNL     1      46.734   5.478  13.771  0.00  0.00    +0.000 NA
ENDROOT
BRANCH   1   7
ATOM      7  C   UNL     1      48.836   6.657  13.333  0.00  0.00    +0.000 C 
BRANCH   7  11
ATOM      8  C   UNL     1      48.213  10.057  16.977  0.00  0.00    +0.000 C 
ATOM      9  N   UNL     1      48.496   8.810  16.302  0.00  0.00    +0.000 N 
ATOM     10  C   UNL     1      48.438   8.625  14.946  0.00  0.00    +0.000 A 
ATOM     11  C   UNL     1      48.786   7.313  14.668  0.00  0.00    +0.000 A 
ATOM     12  C   UNL     1      49.039   6.689  15.920  0.00  0.00    +0.000 A 
ATOM     13  N   UNL     1      49.393   5.402  16.166  0.00  0.00    +0.000 NA
ATOM     14  C   UNL     1      49.563   5.103  17.470  0.00  0.00    +0.000 A 
ATOM     15  C   UNL     1      49.400   5.983  18.531  0.00  0.00    +0.000 A 
ATOM     16  C   UNL     1      49.032   7.300  18.272  0.00  0.00    +0.000 A 
ATOM     17  C   UNL     1      48.853   7.637  16.926  0.00  0.00    +0.000 A 
ENDBRANCH   7  11
ENDBRANCH   1   7
BRANCH   4  18
ATOM     18  O   UNL     1      43.597   5.219  11.813  0.00  0.00    +0.000 OA
BRANCH  18  19
ATOM     19  C   UNL     1      43.547   4.467  10.592  0.00  0.00    +0.000 C 
BRANCH  19  20
ATOM     20  C   UNL     1      44.052   3.034  10.852  0.00  0.00    +0.000 C 
BRANCH  20  21
ATOM     21  N   UNL     1      43.075   2.244  11.637  0.00  0.00    +0.000 NA
ATOM     22  H   UNL     1      42.622   1.562  11.030  0.00  0.00    +0.000 HD
ATOM     23  H   UNL     1      42.326   2.881  11.924  0.00  0.00    +0.000 HD
ENDBRANCH  20  21
BRANCH  20  24
ATOM     24  C   UNL     1      44.354   2.319   9.522  0.00  0.00    +0.000 C 
BRANCH  24  25
ATOM     25  O   UNL     1      45.740   2.436   9.187  0.00  0.00    +0.000 OA
BRANCH  25  26
ATOM     26  C   UNL     1      46.044   3.160   7.981  0.00  0.00    +0.000 C 
ATOM     27  C   UNL     1      47.195   2.498   7.212  0.00  0.00    +0.000 C 
ATOM     28  C   UNL     1      44.778   3.086   7.111  0.00  0.00    +0.000 C 
ATOM     29  C   UNL     1      46.348   4.637   8.263  0.00  0.00    +0.000 C 
ENDBRANCH  25  26
ENDBRANCH  24  25
ENDBRANCH  20  24
ENDBRANCH  19  20
ENDBRANCH  18  19
ENDBRANCH   4  18
TORSDOF 9
ENDMDL
MODEL 3
REMARK VINA RESULT:    -5.727      2.514      7.692
REMARK INTER + INTRA:          -9.661
REMARK INTER:                  -8.537
REMARK INTRA:                  -1.124
REMARK UNBOUND:                -1.088
REMARK  Name = 
REMARK  13 active torsions:
REMARK  status: ('A' for Active; 'I' for Inactive)
REMARK    1  A    between atoms: C_1  and  N_2
REMARK    2  A    between atoms: C_4  and  C_5
REMARK    3  A    between atoms: C_5  and  C_6
REMARK    4  A    between atoms: C_9  and  O_10
REMARK    5  A    between atoms: O_10  and  C_11
REMARK    6  A    between atoms: C_11  and  C_12
REMARK    7  A    between atoms: C_12  and  N_13
REMARK    8  A    between atoms: C_12  and  C_14
REMARK    9  A    between atoms: C_14  and  O_15
REMARK   10  A    between atoms: O_15  and  C_16
REMARK   11  A    between atoms: C_16  and  C_17
REMARK   12  A    between atoms: C_16  and  C_18
REMARK   13  A    between atoms: C_16  and  C_19
REMARK                            x       y       z     vdW  Elec       q    Type
REMARK                         _______ _______ _______ _____ _____    ______ ____
ROOT
ATOM      1  C   UNL     1      48.314   7.576  14.212  0.00  0.00    +0.000 A 
ATOM      2  C   UNL     1      48.027   6.261  13.853  0.00  0.00    +0.000 A 
ATOM      3  C   UNL     1      46.840   5.986  13.170  0.00  0.00    +0.000 A 
ATOM      4  C   UNL     1      45.968   7.021  12.854  0.00  0.00    +0.000 A 
ATOM      5  C   UNL     1      46.346   8.305  13.228  0.00  0.00    +0.000 A 
ATOM      6  N   UNL     1      47.479   8.603  13.908  0.00  0.00    +0.000 NA
ENDROOT
BRANCH   1   7
ATOM      7  C   UNL     1      49.553   7.908  15.012  0.00  0.00    +0.000 C 
BRANCH   7  11
ATOM      8  C   UNL     1      47.863   8.562  19.696  0.00  0.00    +0.000 C 
ATOM      9  N   UNL     1      48.460   7.953  18.529  0.00  0.00    +0.000 N 
ATOM     10  C   UNL     1      48.595   8.565  17.311  0.00  0.00    +0.000 A 
ATOM     11  C   UNL     1      49.222   7.683  16.445  0.00  0.00    +0.000 A 
ATOM     12  C   UNL     1      49.447   6.487  17.181  0.00  0.00    +0.000 A 
ATOM     13  N   UNL     1      50.015   5.330  16.757  0.00  0.00    +0.000 NA
ATOM     14  C   UNL     1      50.089   4.361  17.694  0.00  0.00    +0.000 A 
ATOM     15  C   UNL     1      49.637   4.464  19.001  0.00  0.00    +0.000 A 
ATOM     16  C   UNL     1      49.051   5.653  19.428  0.00  0.00    +0.000 A 
ATOM     17  C   UNL     1      48.965   6.674  18.476  0.00  0.00    +0.000 A 
ENDBRANCH   7  11
ENDBRANCH   1   7
BRANCH   4  18
ATOM     18  O   UNL     1      44.818   6.660  12.210  0.00  0.00    +0.000 OA
BRANCH  18  19
ATOM     19  C   UNL     1      43.914   5.839  12.961  0.00  0.00    +0.000 C 
BRANCH  19  20
ATOM     20  C   UNL     1      42.744   5.405  12.057  0.00  0.00    +0.000 C 
BRANCH  20  21
ATOM     21  N   UNL     1      42.580   6.316  10.900  0.00  0.00    +0.000 NA
ATOM     22  H   UNL     1      41.633   6.231  10.531  0.00  0.00    +0.000 HD
ATOM     23  H   UNL     1      43.188   5.973  10.151  0.00  0.00    +0.000 HD
ENDBRANCH  20  21
BRANCH  20  24
ATOM     24  C   UNL     1      42.951   3.962  11.560  0.00  0.00    +0.000 C 
BRANCH  24  25
ATOM     25  O   UNL     1      43.364   3.953  10.191  0.00  0.00    +0.000 OA
BRANCH  25  26
ATOM     26  C   UNL     1      44.728   3.564   9.940  0.00  0.00    +0.000 C 
ATOM     27  C   UNL     1      45.430   3.138  11.236  0.00  0.00    +0.000 C 
ATOM     28  C   UNL     1      44.657   2.344   9.007  0.00  0.00    +0.000 C 
ATOM     29  C   UNL     1      45.514   4.670   9.225  0.00  0.00    +0.000 C 
ENDBRANCH  25  26
ENDBRANCH  24  25
ENDBRANCH  20  24
ENDBRANCH  19  20
ENDBRANCH  18  19
ENDBRANCH   4  18
TORSDOF 9
ENDMDL
MODEL 4
REMARK VINA RESULT:    -5.507      2.375      7.368
REMARK INTER + INTRA:          -9.331
REMARK INTER:                  -8.478
REMARK INTRA:                  -0.853
REMARK UNBOUND:                -1.088
REMARK  Name = 
REMARK  13 active torsions:
REMARK  status: ('A' for Active; 'I' for Inactive)
REMARK    1  A    between atoms: C_1  and  N_2
REMARK    2  A    between atoms: C_4  and  C_5
REMARK    3  A    between atoms: C_5  and  C_6
REMARK    4  A    between atoms: C_9  and  O_10
REMARK    5  A    between atoms: O_10  and  C_11
REMARK    6  A    between atoms: C_11  and  C_12
REMARK    7  A    between atoms: C_12  and  N_13
REMARK    8  A    between atoms: C_12  and  C_14
REMARK    9  A    between atoms: C_14  and  O_15
REMARK   10  A    between atoms: O_15  and  C_16
REMARK   11  A    between atoms: C_16  and  C_17
REMARK   12  A    between atoms: C_16  and  C_18
REMARK   13  A    between atoms: C_16  and  C_19
REMARK                            x       y       z     vdW  Elec       q    Type
REMARK                         _______ _______ _______ _____ _____    ______ ____
ROOT
ATOM      1  C   UNL     1      48.920   7.442  14.292  0.00  0.00    +0.000 A 
ATOM      2  C   UNL     1      48.090   8.549  14.458  0.00  0.00    +0.000 A 
ATOM      3  C   UNL     1      46.990   8.706  13.610  0.00  0.00    +0.000 A 
ATOM      4  C   UNL     1      46.736   7.761  12.625  0.00  0.00    +0.000 A 
ATOM      5  C   UNL     1      47.600   6.675  12.547  0.00  0.00    +0.000 A 
ATOM      6  N   UNL     1      48.686   6.503  13.339  0.00  0.00    +0.000 NA
ENDROOT
BRANCH   1   7
ATOM      7  C   UNL     1      50.159   7.269  15.141  0.00  0.00    +0.000 C 
BRANCH   7  11
ATOM      8  C   UNL     1      48.976   7.818  19.991  0.00  0.00    +0.000 C 
ATOM      9  N   UNL     1      49.154   7.226  18.685  0.00  0.00    +0.000 N 
ATOM     10  C   UNL     1      49.668   7.879  17.595  0.00  0.00    +0.000 A 
ATOM     11  C   UNL     1      49.701   6.992  16.530  0.00  0.00    +0.000 A 
ATOM     12  C   UNL     1      49.161   5.767  17.008  0.00  0.00    +0.000 A 
ATOM     13  N   UNL     1      48.970   4.608  16.330  0.00  0.00    +0.000 NA
ATOM     14  C   UNL     1      48.431   3.609  17.060  0.00  0.00    +0.000 A 
ATOM     15  C   UNL     1      48.071   3.688  18.397  0.00  0.00    +0.000 A 
ATOM     16  C   UNL     1      48.266   4.881  19.086  0.00  0.00    +0.000 A 
ATOM     17  C   UNL     1      48.826   5.932  18.351  0.00  0.00    +0.000 A 
ENDBRANCH   7  11
ENDBRANCH   1   7
BRANCH   4  18
ATOM     18  O   UNL     1      45.655   8.006  11.824  0.00  0.00    +0.000 OA
BRANCH  18  19
ATOM     19  C   UNL     1      45.052   6.854  11.221  0.00  0.00    +0.000 C 
BRANCH  19  20
ATOM     20  C   UNL     1      43.600   6.716  11.720  0.00  0.00    +0.000 C 
BRANCH  20  21
ATOM     21  N   UNL     1      42.683   7.623  10.990  0.00  0.00    +0.000 NA
ATOM     22  H   UNL     1      41.722   7.304  11.112  0.00  0.00    +0.000 HD
ATOM     23  H   UNL     1      42.874   7.512   9.990  0.00  0.00    +0.000 HD
ENDBRANCH  20  21
BRANCH  20  24
ATOM     24  C   UNL     1      43.117   5.261  11.579  0.00  0.00    +0.000 C 
BRANCH  24  25
ATOM     25  O   UNL     1      43.877   4.568  10.585  0.00  0.00    +0.000 OA
BRANCH  25  26
ATOM     26  C   UNL     1      44.391   3.277  10.960  0.00  0.00    +0.000 C 
ATOM     27  C   UNL     1      45.488   3.405  12.026  0.00  0.00    +0.000 C 
ATOM     28  C   UNL     1      43.208   2.512  11.575  0.00  0.00    +0.000 C 
ATOM     29  C   UNL     1      44.894   2.488   9.745  0.00  0.00    +0.000 C 
ENDBRANCH  25  26
ENDBRANCH  24  25
ENDBRANCH  20  24
ENDBRANCH  19  20
ENDBRANCH  18  19
ENDBRANCH   4  18
TORSDOF 9
ENDMDL
MODEL 5
REMARK VINA RESULT:    -5.494      1.558      2.701
REMARK INTER + INTRA:          -9.311
REMARK INTER:                  -8.414
REMARK INTRA:                  -0.897
REMARK UNBOUND:                -1.088
REMARK  Name = 
REMARK  13 active torsions:
REMARK  status: ('A' for Active; 'I' for Inactive)
REMARK    1  A    between atoms: C_1  and  N_2
REMARK    2  A    between atoms: C_4  and  C_5
REMARK    3  A    between atoms: C_5  and  C_6
REMARK    4  A    between atoms: C_9  and  O_10
REMARK    5  A    between atoms: O_10  and  C_11
REMARK    6  A    between atoms: C_11  and  C_12
REMARK    7  A    between atoms: C_12  and  N_13
REMARK    8  A    between atoms: C_12  and  C_14
REMARK    9  A    between atoms: C_14  and  O_15
REMARK   10  A    between atoms: O_15  and  C_16
REMARK   11  A    between atoms: C_16  and  C_17
REMARK   12  A    between atoms: C_16  and  C_18
REMARK   13  A    between atoms: C_16  and  C_19
REMARK                            x       y       z     vdW  Elec       q    Type
REMARK                         _______ _______ _______ _____ _____    ______ ____
ROOT
ATOM      1  C   UNL     1      46.862   7.578  12.305  0.00  0.00    +0.000 A 
ATOM      2  C   UNL     1      47.711   8.675  12.175  0.00  0.00    +0.000 A 
ATOM      3  C   UNL     1      48.959   8.647  12.804  0.00  0.00    +0.000 A 
ATOM      4  C   UNL     1      49.338   7.531  13.538  0.00  0.00    +0.000 A 
ATOM      5  C   UNL     1      48.440   6.471  13.593  0.00  0.00    +0.000 A 
ATOM      6  N   UNL     1      47.216   6.475  13.013  0.00  0.00    +0.000 NA
ENDROOT
BRANCH   1   7
ATOM      7  C   UNL     1      45.477   7.595  11.700  0.00  0.00    +0.000 C 
BRANCH   7  11
ATOM      8  C   UNL     1      45.761   3.939   8.267  0.00  0.00    +0.000 C 
ATOM      9  N   UNL     1      45.428   4.659   9.475  0.00  0.00    +0.000 N 
ATOM     10  C   UNL     1      45.811   5.946   9.749  0.00  0.00    +0.000 A 
ATOM     11  C   UNL     1      45.297   6.301  10.986  0.00  0.00    +0.000 A 
ATOM     12  C   UNL     1      44.597   5.163  11.474  0.00  0.00    +0.000 A 
ATOM     13  N   UNL     1      43.941   5.018  12.652  0.00  0.00    +0.000 NA
ATOM     14  C   UNL     1      43.370   3.808  12.835  0.00  0.00    +0.000 A 
ATOM     15  C   UNL     1      43.413   2.750  11.940  0.00  0.00    +0.000 A 
ATOM     16  C   UNL     1      44.092   2.905  10.734  0.00  0.00    +0.000 A 
ATOM     17  C   UNL     1      44.690   4.151  10.519  0.00  0.00    +0.000 A 
ENDBRANCH   7  11
ENDBRANCH   1   7
BRANCH   4  18
ATOM     18  O   UNL     1      50.563   7.598  14.141  0.00  0.00    +0.000 OA
BRANCH  18  19
ATOM     19  C   UNL     1      50.552   7.901  15.543  0.00  0.00    +0.000 C 
BRANCH  19  20
ATOM     20  C   UNL     1      51.087   6.690  16.333  0.00  0.00    +0.000 C 
BRANCH  20  21
ATOM     21  N   UNL     1      52.231   7.063  17.197  0.00  0.00    +0.000 NA
ATOM     22  H   UNL     1      52.101   6.662  18.125  0.00  0.00    +0.000 HD
ATOM     23  H   UNL     1      52.190   8.076  17.339  0.00  0.00    +0.000 HD
ENDBRANCH  20  21
BRANCH  20  24
ATOM     24  C   UNL     1      49.968   6.066  17.187  0.00  0.00    +0.000 C 
BRANCH  24  25
ATOM     25  O   UNL     1      49.483   4.862  16.585  0.00  0.00    +0.000 OA
BRANCH  25  26
ATOM     26  C   UNL     1      49.367   3.719  17.453  0.00  0.00    +0.000 C 
ATOM     27  C   UNL     1      48.453   2.650  16.841  0.00  0.00    +0.000 C 
ATOM     28  C   UNL     1      50.783   3.132  17.573  0.00  0.00    +0.000 C 
ATOM     29  C   UNL     1      48.890   4.114  18.856  0.00  0.00    +0.000 C 
ENDBRANCH  25  26
ENDBRANCH  24  25
ENDBRANCH  20  24
ENDBRANCH  19  20
ENDBRANCH  18  19
ENDBRANCH   4  18
TORSDOF 9
ENDMDL
MODEL 6
REMARK VINA RESULT:    -5.446      2.848      7.737
REMARK INTER + INTRA:          -9.240
REMARK INTER:                  -8.147
REMARK INTRA:                  -1.093
REMARK UNBOUND:                -1.088
REMARK  Name = 
REMARK  13 active torsions:
REMARK  status: ('A' for Active; 'I' for Inactive)
REMARK    1  A    between atoms: C_1  and  N_2
REMARK    2  A    between atoms: C_4  and  C_5
REMARK    3  A    between atoms: C_5  and  C_6
REMARK    4  A    between atoms: C_9  and  O_10
REMARK    5  A    between atoms: O_10  and  C_11
REMARK    6  A    between atoms: C_11  and  C_12
REMARK    7  A    between atoms: C_12  and  N_13
REMARK    8  A    between atoms: C_12  and  C_14
REMARK    9  A    between atoms: C_14  and  O_15
REMARK   10  A    between atoms: O_15  and  C_16
REMARK   11  A    between atoms: C_16  and  C_17
REMARK   12  A    between atoms: C_16  and  C_18
REMARK   13  A    between atoms: C_16  and  C_19
REMARK                            x       y       z     vdW  Elec       q    Type
REMARK                         _______ _______ _______ _____ _____    ______ ____
ROOT
ATOM      1  C   UNL     1      48.157   5.350  16.496  0.00  0.00    +0.000 A 
ATOM      2  C   UNL     1      47.343   4.574  15.674  0.00  0.00    +0.000 A 
ATOM      3  C   UNL     1      47.194   4.932  14.332  0.00  0.00    +0.000 A 
ATOM      4  C   UNL     1      47.858   6.047  13.835  0.00  0.00    +0.000 A 
ATOM      5  C   UNL     1      48.669   6.748  14.720  0.00  0.00    +0.000 A 
ATOM      6  N   UNL     1      48.820   6.440  16.030  0.00  0.00    +0.000 NA
ENDROOT
BRANCH   1   7
ATOM      7  C   UNL     1      48.292   5.039  17.969  0.00  0.00    +0.000 C 
BRANCH   7  11
ATOM      8  C   UNL     1      53.035   5.571  19.534  0.00  0.00    +0.000 C 
ATOM      9  N   UNL     1      51.845   5.005  18.938  0.00  0.00    +0.000 N 
ATOM     10  C   UNL     1      50.625   5.626  18.889  0.00  0.00    +0.000 A 
ATOM     11  C   UNL     1      49.735   4.790  18.233  0.00  0.00    +0.000 A 
ATOM     12  C   UNL     1      50.459   3.613  17.900  0.00  0.00    +0.000 A 
ATOM     13  N   UNL     1      50.012   2.498  17.267  0.00  0.00    +0.000 NA
ATOM     14  C   UNL     1      50.943   1.537  17.093  0.00  0.00    +0.000 A 
ATOM     15  C   UNL     1      52.266   1.607  17.505  0.00  0.00    +0.000 A 
ATOM     16  C   UNL     1      52.716   2.752  18.157  0.00  0.00    +0.000 A 
ATOM     17  C   UNL     1      51.771   3.765  18.347  0.00  0.00    +0.000 A 
ENDBRANCH   7  11
ENDBRANCH   1   7
BRANCH   4  18
ATOM     18  O   UNL     1      47.635   6.340  12.519  0.00  0.00    +0.000 OA
BRANCH  18  19
ATOM     19  C   UNL     1      47.368   7.718  12.225  0.00  0.00    +0.000 C 
BRANCH  19  20
ATOM     20  C   UNL     1      45.975   8.097  12.766  0.00  0.00    +0.000 C 
BRANCH  20  21
ATOM     21  N   UNL     1      45.715   9.550  12.636  0.00  0.00    +0.000 NA
ATOM     22  H   UNL     1      45.114   9.857  13.400  0.00  0.00    +0.000 HD
ATOM     23  H   UNL     1      45.157   9.687  11.789  0.00  0.00    +0.000 HD
ENDBRANCH  20  21
BRANCH  20  24
ATOM     24  C   UNL     1      44.878   7.302  12.034  0.00  0.00    +0.000 C 
BRANCH  24  25
ATOM     25  O   UNL     1      44.410   6.221  12.845  0.00  0.00    +0.000 OA
BRANCH  25  26
ATOM     26  C   UNL     1      43.906   5.070  12.142  0.00  0.00    +0.000 C 
ATOM     27  C   UNL     1      43.448   3.980  13.120  0.00  0.00    +0.000 C 
ATOM     28  C   UNL     1      42.680   5.557  11.353  0.00  0.00    +0.000 C 
ATOM     29  C   UNL     1      44.932   4.518  11.143  0.00  0.00    +0.000 C 
ENDBRANCH  25  26
ENDBRANCH  24  25
ENDBRANCH  20  24
ENDBRANCH  19  20
ENDBRANCH  18  19
ENDBRANCH   4  18
TORSDOF 9
ENDMDL
MODEL 7
REMARK VINA RESULT:    -5.421      2.326      3.790
REMARK INTER + INTRA:          -9.203
REMARK INTER:                  -8.380
REMARK INTRA:                  -0.823
REMARK UNBOUND:                -1.088
REMARK  Name = 
REMARK  13 active torsions:
REMARK  status: ('A' for Active; 'I' for Inactive)
REMARK    1  A    between atoms: C_1  and  N_2
REMARK    2  A    between atoms: C_4  and  C_5
REMARK    3  A    between atoms: C_5  and  C_6
REMARK    4  A    between atoms: C_9  and  O_10
REMARK    5  A    between atoms: O_10  and  C_11
REMARK    6  A    between atoms: C_11  and  C_12
REMARK    7  A    between atoms: C_12  and  N_13
REMARK    8  A    between atoms: C_12  and  C_14
REMARK    9  A    between atoms: C_14  and  O_15
REMARK   10  A    between atoms: O_15  and  C_16
REMARK   11  A    between atoms: C_16  and  C_17
REMARK   12  A    between atoms: C_16  and  C_18
REMARK   13  A    between atoms: C_16  and  C_19
REMARK                            x       y       z     vdW  Elec       q    Type
REMARK                         _______ _______ _______ _____ _____    ______ ____
ROOT
ATOM      1  C   UNL     1      44.813   4.156  10.725  0.00  0.00    +0.000 A 
ATOM      2  C   UNL     1      44.651   3.387  11.876  0.00  0.00    +0.000 A 
ATOM      3  C   UNL     1      45.338   3.748  13.037  0.00  0.00    +0.000 A 
ATOM      4  C   UNL     1      46.165   4.865  13.033  0.00  0.00    +0.000 A 
ATOM      5  C   UNL     1      46.248   5.589  11.850  0.00  0.00    +0.000 A 
ATOM      6  N   UNL     1      45.611   5.255  10.701  0.00  0.00    +0.000 NA
ENDROOT
BRANCH   1   7
ATOM      7  C   UNL     1      44.143   3.762   9.429  0.00  0.00    +0.000 C 
BRANCH   7  11
ATOM      8  C   UNL     1      46.401  -0.485   7.983  0.00  0.00    +0.000 C 
ATOM      9  N   UNL     1      46.049   0.914   8.079  0.00  0.00    +0.000 N 
ATOM     10  C   UNL     1      45.095   1.423   8.920  0.00  0.00    +0.000 A 
ATOM     11  C   UNL     1      45.047   2.798   8.745  0.00  0.00    +0.000 A 
ATOM     12  C   UNL     1      46.002   3.110   7.739  0.00  0.00    +0.000 A 
ATOM     13  N   UNL     1      46.306   4.322   7.212  0.00  0.00    +0.000 NA
ATOM     14  C   UNL     1      47.264   4.300   6.261  0.00  0.00    +0.000 A 
ATOM     15  C   UNL     1      47.925   3.169   5.804  0.00  0.00    +0.000 A 
ATOM     16  C   UNL     1      47.604   1.928   6.347  0.00  0.00    +0.000 A 
ATOM     17  C   UNL     1      46.615   1.924   7.336  0.00  0.00    +0.000 A 
ENDBRANCH   7  11
ENDBRANCH   1   7
BRANCH   4  18
ATOM     18  O   UNL     1      46.819   5.130  14.203  0.00  0.00    +0.000 OA
BRANCH  18  19
ATOM     19  C   UNL     1      47.173   3.986  14.993  0.00  0.00    +0.000 C 
BRANCH  19  20
ATOM     20  C   UNL     1      47.056   4.340  16.488  0.00  0.00    +0.000 C 
BRANCH  20  21
ATOM     21  N   UNL     1      46.786   3.140  17.314  0.00  0.00    +0.000 NA
ATOM     22  H   UNL     1      47.375   2.370  16.998  0.00  0.00    +0.000 HD
ATOM     23  H   UNL     1      45.827   2.839  17.114  0.00  0.00    +0.000 HD
ENDBRANCH  20  21
BRANCH  20  24
ATOM     24  C   UNL     1      48.338   5.035  16.981  0.00  0.00    +0.000 C 
BRANCH  24  25
ATOM     25  O   UNL     1      49.499   4.303  16.576  0.00  0.00    +0.000 OA
BRANCH  25  26
ATOM     26  C   UNL     1      50.498   4.084  17.589  0.00  0.00    +0.000 C 
ATOM     27  C   UNL     1      51.672   5.059  17.429  0.00  0.00    +0.000 C 
ATOM     28  C   UNL     1      49.811   4.373  18.933  0.00  0.00    +0.000 C 
ATOM     29  C   UNL     1      50.988   2.630  17.602  0.00  0.00    +0.000 C 
ENDBRANCH  25  26
ENDBRANCH  24  25
ENDBRANCH  20  24
ENDBRANCH  19  20
ENDBRANCH  18  19
ENDBRANCH   4  18
TORSDOF 9
ENDMDL
MODEL 8
REMARK VINA RESULT:    -5.159      2.414      4.275
REMARK INTER + INTRA:          -8.810
REMARK INTER:                  -7.643
REMARK INTRA:                  -1.167
REMARK UNBOUND:                -1.088
REMARK  Name = 
REMARK  13 active torsions:
REMARK  status: ('A' for Active; 'I' for Inactive)
REMARK    1  A    between atoms: C_1  and  N_2
REMARK    2  A    between atoms: C_4  and  C_5
REMARK    3  A    between atoms: C_5  and  C_6
REMARK    4  A    between atoms: C_9  and  O_10
REMARK    5  A    between atoms: O_10  and  C_11
REMARK    6  A    between atoms: C_11  and  C_12
REMARK    7  A    between atoms: C_12  and  N_13
REMARK    8  A    between atoms: C_12  and  C_14
REMARK    9  A    between atoms: C_14  and  O_15
REMARK   10  A    between atoms: O_15  and  C_16
REMARK   11  A    between atoms: C_16  and  C_17
REMARK   12  A    between atoms: C_16  and  C_18
REMARK   13  A    between atoms: C_16  and  C_19
REMARK                            x       y       z     vdW  Elec       q    Type
REMARK                         _______ _______ _______ _____ _____    ______ ____
ROOT
ATOM      1  C   UNL     1      48.556   6.664  14.248  0.00  0.00    +0.000 A 
ATOM      2  C   UNL     1      48.906   7.828  14.931  0.00  0.00    +0.000 A 
ATOM      3  C   UNL     1      48.900   7.824  16.328  0.00  0.00    +0.000 A 
ATOM      4  C   UNL     1      48.554   6.667  17.015  0.00  0.00    +0.000 A 
ATOM      5  C   UNL     1      48.244   5.546  16.254  0.00  0.00    +0.000 A 
ATOM      6  N   UNL     1      48.221   5.522  14.900  0.00  0.00    +0.000 NA
ENDROOT
BRANCH   1   7
ATOM      7  C   UNL     1      48.483   6.644  12.739  0.00  0.00    +0.000 C 
BRANCH   7  11
ATOM      8  C   UNL     1      44.472   9.372  11.436  0.00  0.00    +0.000 C 
ATOM      9  N   UNL     1      45.309   8.241  11.766  0.00  0.00    +0.000 N 
ATOM     10  C   UNL     1      46.636   8.322  12.099  0.00  0.00    +0.000 A 
ATOM     11  C   UNL     1      47.099   7.042  12.363  0.00  0.00    +0.000 A 
ATOM     12  C   UNL     1      46.000   6.164  12.155  0.00  0.00    +0.000 A 
ATOM     13  N   UNL     1      45.966   4.813  12.270  0.00  0.00    +0.000 NA
ATOM     14  C   UNL     1      44.767   4.254  12.004  0.00  0.00    +0.000 A 
ATOM     15  C   UNL     1      43.620   4.938  11.630  0.00  0.00    +0.000 A 
ATOM     16  C   UNL     1      43.663   6.325  11.510  0.00  0.00    +0.000 A 
ATOM     17  C   UNL     1      44.895   6.929  11.783  0.00  0.00    +0.000 A 
ENDBRANCH   7  11
ENDBRANCH   1   7
BRANCH   4  18
ATOM     18  O   UNL     1      48.548   6.759  18.379  0.00  0.00    +0.000 OA
BRANCH  18  19
ATOM     19  C   UNL     1      47.928   5.669  19.074  0.00  0.00    +0.000 C 
BRANCH  19  20
ATOM     20  C   UNL     1      48.891   5.134  20.152  0.00  0.00    +0.000 C 
BRANCH  20  21
ATOM     21  N   UNL     1      48.645   3.703  20.445  0.00  0.00    +0.000 NA
ATOM     22  H   UNL     1      49.186   3.425  21.263  0.00  0.00    +0.000 HD
ATOM     23  H   UNL     1      49.038   3.160  19.670  0.00  0.00    +0.000 HD
ENDBRANCH  20  21
BRANCH  20  24
ATOM     24  C   UNL     1      50.354   5.334  19.715  0.00  0.00    +0.000 C 
BRANCH  24  25
ATOM     25  O   UNL     1      51.003   4.073  19.527  0.00  0.00    +0.000 OA
BRANCH  25  26
ATOM     26  C   UNL     1      51.476   3.792  18.197  0.00  0.00    +0.000 C 
ATOM     27  C   UNL     1      51.774   5.087  17.429  0.00  0.00    +0.000 C 
ATOM     28  C   UNL     1      52.794   3.019  18.368  0.00  0.00    +0.000 C 
ATOM     29  C   UNL     1      50.496   2.904  17.419  0.00  0.00    +0.000 C 
ENDBRANCH  25  26
ENDBRANCH  24  25
ENDBRANCH  20  24
ENDBRANCH  19  20
ENDBRANCH  18  19
ENDBRANCH   4  18
TORSDOF 9
ENDMDL
MODEL 9
REMARK VINA RESULT:    -5.149      3.389      7.429
REMARK INTER + INTRA:          -8.795
REMARK INTER:                  -7.729
REMARK INTRA:                  -1.065
REMARK UNBOUND:                -1.088
REMARK  Name = 
REMARK  13 active torsions:
REMARK  status: ('A' for Active; 'I' for Inactive)
REMARK    1  A    between atoms: C_1  and  N_2
REMARK    2  A    between atoms: C_4  and  C_5
REMARK    3  A    between atoms: C_5  and  C_6
REMARK    4  A    between atoms: C_9  and  O_10
REMARK    5  A    between atoms: O_10  and  C_11
REMARK    6  A    between atoms: C_11  and  C_12
REMARK    7  A    between atoms: C_12  and  N_13
REMARK    8  A    between atoms: C_12  and  C_14
REMARK    9  A    between atoms: C_14  and  O_15
REMARK   10  A    between atoms: O_15  and  C_16
REMARK   11  A    between atoms: C_16  and  C_17
REMARK   12  A    between atoms: C_16  and  C_18
REMARK   13  A    between atoms: C_16  and  C_19
REMARK                            x       y       z     vdW  Elec       q    Type
REMARK                         _______ _______ _______ _____ _____    ______ ____
ROOT
ATOM      1  C   UNL     1      47.146   4.465  14.656  0.00  0.00    +0.000 A 
ATOM      2  C   UNL     1      45.896   4.422  14.041  0.00  0.00    +0.000 A 
ATOM      3  C   UNL     1      45.517   5.471  13.200  0.00  0.00    +0.000 A 
ATOM      4  C   UNL     1      46.386   6.533  12.982  0.00  0.00    +0.000 A 
ATOM      5  C   UNL     1      47.622   6.481  13.615  0.00  0.00    +0.000 A 
ATOM      6  N   UNL     1      48.013   5.490  14.453  0.00  0.00    +0.000 NA
ENDROOT
BRANCH   1   7
ATOM      7  C   UNL     1      47.568   3.387  15.627  0.00  0.00    +0.000 C 
BRANCH   7  11
ATOM      8  C   UNL     1      47.404   5.991  19.919  0.00  0.00    +0.000 C 
ATOM      9  N   UNL     1      47.904   5.209  18.811  0.00  0.00    +0.000 N 
ATOM     10  C   UNL     1      47.144   4.767  17.760  0.00  0.00    +0.000 A 
ATOM     11  C   UNL     1      47.965   4.067  16.890  0.00  0.00    +0.000 A 
ATOM     12  C   UNL     1      49.265   4.078  17.465  0.00  0.00    +0.000 A 
ATOM     13  N   UNL     1      50.402   3.508  16.993  0.00  0.00    +0.000 NA
ATOM     14  C   UNL     1      51.490   3.690  17.770  0.00  0.00    +0.000 A 
ATOM     15  C   UNL     1      51.521   4.387  18.969  0.00  0.00    +0.000 A 
ATOM     16  C   UNL     1      50.350   4.967  19.450  0.00  0.00    +0.000 A 
ATOM     17  C   UNL     1      49.207   4.794  18.661  0.00  0.00    +0.000 A 
ENDBRANCH   7  11
ENDBRANCH   1   7
BRANCH   4  18
ATOM     18  O   UNL     1      45.924   7.528  12.167  0.00  0.00    +0.000 OA
BRANCH  18  19
ATOM     19  C   UNL     1      45.594   8.763  12.816  0.00  0.00    +0.000 C 
BRANCH  19  20
ATOM     20  C   UNL     1      46.105   9.942  11.965  0.00  0.00    +0.000 C 
BRANCH  20  21
ATOM     21  N   UNL     1      45.292  11.162  12.177  0.00  0.00    +0.000 NA
ATOM     22  H   UNL     1      45.849  11.861  12.667  0.00  0.00    +0.000 HD
ATOM     23  H   UNL     1      44.539  10.920  12.828  0.00  0.00    +0.000 HD
ENDBRANCH  20  21
BRANCH  20  24
ATOM     24  C   UNL     1      47.582  10.237  12.282  0.00  0.00    +0.000 C 
BRANCH  24  25
ATOM     25  O   UNL     1      48.445   9.484  11.424  0.00  0.00    +0.000 OA
BRANCH  25  26
ATOM     26  C   UNL     1      49.786   9.267  11.900  0.00  0.00    +0.000 C 
ATOM     27  C   UNL     1      50.303   7.883  11.488  0.00  0.00    +0.000 C 
ATOM     28  C   UNL     1      50.657  10.332  11.214  0.00  0.00    +0.000 C 
ATOM     29  C   UNL     1      49.890   9.465  13.418  0.00  0.00    +0.000 C 
ENDBRANCH  25  26
ENDBRANCH  24  25
ENDBRANCH  20  24
ENDBRANCH  19  20
ENDBRANCH  18  19
ENDBRANCH   4  18
TORSDOF 9
ENDMDL
