MODEL 1
REMARK VINA RESULT:    -8.612      0.000      0.000
REMARK INTER + INTRA:         -12.525
REMARK INTER:                 -11.633
REMARK INTRA:                  -0.891
REMARK UNBOUND:                -0.891
REMARK  Name = 
REMARK  6 active torsions:
REMARK  status: ('A' for Active; 'I' for Inactive)
REMARK    1  A    between atoms: C_2  and  C_25
REMARK    2  A    between atoms: N_3  and  C_4
REMARK    3  A    between atoms: C_4  and  C_5
REMARK    4  A    between atoms: C_8  and  C_9
REMARK    5  A    between atoms: C_9  and  N_10
REMARK    6  A    between atoms: C_11  and  C_13
REMARK                            x       y       z     vdW  Elec       q    Type
REMARK                         _______ _______ _______ _____ _____    ______ ____
ROOT
ATOM      1  C   UNL     1      44.858   6.180  11.208  0.00  0.00    +0.000 A 
ATOM      2  C   UNL     1      44.515   7.503  11.478  0.00  0.00    +0.000 A 
ATOM      3  C   UNL     1      45.337   8.262  12.310  0.00  0.00    +0.000 A 
ATOM      4  C   UNL     1      46.474   7.683  12.877  0.00  0.00    +0.000 A 
ATOM      5  C   UNL     1      46.744   6.360  12.544  0.00  0.00    +0.000 A 
ATOM      6  N   UNL     1      45.968   5.600  11.733  0.00  0.00    +0.000 NA
ENDROOT
BRANCH   1   7
ATOM      7  C   UNL     1      43.985   5.336  10.305  0.00  0.00    +0.000 C 
BRANCH   7  10
ATOM      8  O   UNL     1      44.456   2.541  10.249  0.00  0.00    +0.000 OA
ATOM      9  C   UNL     1      44.918   3.249   9.358  0.00  0.00    +0.000 C 
ATOM     10  N   UNL     1      44.736   4.610   9.303  0.00  0.00    +0.000 N 
ATOM     11  H   UNL     1      45.226   5.120   8.574  0.00  0.00    +0.000 HD
BRANCH   9  12
ATOM     12  C   UNL     1      45.717   2.658   8.237  0.00  0.00    +0.000 A 
ATOM     13  C   UNL     1      45.987   3.430   7.111  0.00  0.00    +0.000 A 
ATOM     14  C   UNL     1      46.750   2.872   6.093  0.00  0.00    +0.000 A 
ATOM     15  C   UNL     1      47.216   1.568   6.231  0.00  0.00    +0.000 A 
ATOM     16  C   UNL     1      46.899   0.870   7.388  0.00  0.00    +0.000 A 
ATOM     17  N   UNL     1      46.160   1.378   8.401  0.00  0.00    +0.000 NA
ENDBRANCH   9  12
ENDBRANCH   7  10
ENDBRANCH   1   7
BRANCH   4  18
ATOM     18  C   UNL     1      47.378   8.458  13.788  0.00  0.00    +0.000 C 
BRANCH  18  19
ATOM     19  N   UNL     1      47.744   7.695  14.954  0.00  0.00    +0.000 N 
ATOM     20  C   UNL     1      48.940   7.022  15.010  0.00  0.00    +0.000 C 
ATOM     21  O   UNL     1      49.760   7.084  14.097  0.00  0.00    +0.000 OA
ATOM     22  H   UNL     1      46.999   7.435  15.595  0.00  0.00    +0.000 HD
BRANCH  20  23
ATOM     23  C   UNL     1      49.222   6.275  16.242  0.00  0.00    +0.000 A 
ATOM     24  C   UNL     1      50.259   6.684  17.071  0.00  0.00    +0.000 A 
ATOM     25  S   UNL     1      50.418   5.743  18.484  0.00  0.00    +0.000 S 
ATOM     26  C   UNL     1      49.141   4.722  18.013  0.00  0.00    +0.000 A 
ATOM     27  N   UNL     1      48.769   3.666  18.786  0.00  0.00    +0.000 NA
ATOM     28  C   UNL     1      47.811   2.955  18.291  0.00  0.00    +0.000 A 
ATOM     29  N   UNL     1      47.188   3.208  17.097  0.00  0.00    +0.000 N 
ATOM     30  C   UNL     1      47.507   4.281  16.300  0.00  0.00    +0.000 A 
ATOM     31  O   UNL     1      46.898   4.507  15.259  0.00  0.00    +0.000 OA
ATOM     32  C   UNL     1      48.589   5.104  16.803  0.00  0.00    +0.000 A 
ATOM     33  H   UNL     1      46.438   2.616  16.770  0.00  0.00    +0.000 HD
ENDBRANCH  20  23
ENDBRANCH  18  19
ENDBRANCH   4  18
TORSDOF 6
ENDMDL
MODEL 2
REMARK VINA RESULT:    -7.782      1.924      2.122
REMARK INTER + INTRA:         -11.403
REMARK INTER:                 -10.542
REMARK INTRA:                  -0.861
REMARK UNBOUND:                -0.891
REMARK  Name = 
REMARK  6 active torsions:
REMARK  status: ('A' for Active; 'I' for Inactive)
REMARK    1  A    between atoms: C_2  and  C_25
REMARK    2  A    between atoms: N_3  and  C_4
REMARK    3  A    between atoms: C_4  and  C_5
REMARK    4  A    between atoms: C_8  and  C_9
REMARK    5  A    between atoms: C_9  and  N_10
REMARK    6  A    between atoms: C_11  and  C_13
REMARK                            x       y       z     vdW  Elec       q    Type
REMARK                         _______ _______ _______ _____ _____    ______ ____
ROOT
ATOM      1  C   UNL     1      45.777   5.501  12.391  0.00  0.00    +0.000 A 
ATOM      2  C   UNL     1      46.043   6.851  12.173  0.00  0.00    +0.000 A 
ATOM      3  C   UNL     1      46.949   7.508  13.004  0.00  0.00    +0.000 A 
ATOM      4  C   UNL     1      47.557   6.815  14.052  0.00  0.00    +0.000 A 
ATOM      5  C   UNL     1      47.240   5.468  14.189  0.00  0.00    +0.000 A 
ATOM      6  N   UNL     1      46.369   4.801  13.393  0.00  0.00    +0.000 NA
ENDROOT
BRANCH   1   7
ATOM      7  C   UNL     1      44.801   4.763  11.501  0.00  0.00    +0.000 C 
BRANCH   7  10
ATOM      8  O   UNL     1      43.957   2.447  10.101  0.00  0.00    +0.000 OA
ATOM      9  C   UNL     1      44.944   3.064   9.708  0.00  0.00    +0.000 C 
ATOM     10  N   UNL     1      45.421   4.197  10.322  0.00  0.00    +0.000 N 
ATOM     11  H   UNL     1      46.291   4.589   9.973  0.00  0.00    +0.000 HD
BRANCH   9  12
ATOM     12  C   UNL     1      45.702   2.617   8.496  0.00  0.00    +0.000 A 
ATOM     13  C   UNL     1      45.947   3.527   7.472  0.00  0.00    +0.000 A 
ATOM     14  C   UNL     1      46.673   3.100   6.367  0.00  0.00    +0.000 A 
ATOM     15  C   UNL     1      47.127   1.786   6.319  0.00  0.00    +0.000 A 
ATOM     16  C   UNL     1      46.836   0.945   7.385  0.00  0.00    +0.000 A 
ATOM     17  N   UNL     1      46.134   1.324   8.478  0.00  0.00    +0.000 NA
ENDBRANCH   9  12
ENDBRANCH   7  10
ENDBRANCH   1   7
BRANCH   4  18
ATOM     18  C   UNL     1      48.527   7.486  14.979  0.00  0.00    +0.000 C 
BRANCH  18  19
ATOM     19  N   UNL     1      49.516   6.565  15.477  0.00  0.00    +0.000 N 
ATOM     20  C   UNL     1      49.757   6.450  16.825  0.00  0.00    +0.000 C 
ATOM     21  O   UNL     1      49.111   7.085  17.654  0.00  0.00    +0.000 OA
ATOM     22  H   UNL     1      50.211   6.225  14.819  0.00  0.00    +0.000 HD
BRANCH  20  23
ATOM     23  C   UNL     1      50.782   5.481  17.233  0.00  0.00    +0.000 A 
ATOM     24  C   UNL     1      52.027   5.934  17.653  0.00  0.00    +0.000 A 
ATOM     25  S   UNL     1      53.081   4.688  18.141  0.00  0.00    +0.000 S 
ATOM     26  C   UNL     1      51.932   3.492  17.758  0.00  0.00    +0.000 A 
ATOM     27  N   UNL     1      52.216   2.172  17.921  0.00  0.00    +0.000 NA
ATOM     28  C   UNL     1      51.267   1.374  17.557  0.00  0.00    +0.000 A 
ATOM     29  N   UNL     1      50.059   1.777  17.053  0.00  0.00    +0.000 N 
ATOM     30  C   UNL     1      49.715   3.100  16.902  0.00  0.00    +0.000 A 
ATOM     31  O   UNL     1      48.608   3.429  16.490  0.00  0.00    +0.000 OA
ATOM     32  C   UNL     1      50.753   4.038  17.282  0.00  0.00    +0.000 A 
ATOM     33  H   UNL     1      49.355   1.101  16.794  0.00  0.00    +0.000 HD
ENDBRANCH  20  23
ENDBRANCH  18  19
ENDBRANCH   4  18
TORSDOF 6
ENDMDL
MODEL 3
REMARK VINA RESULT:    -7.709      1.940      2.412
REMARK INTER + INTRA:         -11.304
REMARK INTER:                 -10.528
REMARK INTRA:                  -0.776
REMARK UNBOUND:                -0.891
REMARK  Name = 
REMARK  6 active torsions:
REMARK  status: ('A' for Active; 'I' for Inactive)
REMARK    1  A    between atoms: C_2  and  C_25
REMARK    2  A    between atoms: N_3  and  C_4
REMARK    3  A    between atoms: C_4  and  C_5
REMARK    4  A    between atoms: C_8  and  C_9
REMARK    5  A    between atoms: C_9  and  N_10
REMARK    6  A    between atoms: C_11  and  C_13
REMARK                            x       y       z     vdW  Elec       q    Type
REMARK                         _______ _______ _______ _____ _____    ______ ____
ROOT
ATOM      1  C   UNL     1      45.326   6.030  11.551  0.00  0.00    +0.000 A 
ATOM      2  C   UNL     1      46.183   5.355  12.417  0.00  0.00    +0.000 A 
ATOM      3  C   UNL     1      47.000   6.089  13.274  0.00  0.00    +0.000 A 
ATOM      4  C   UNL     1      46.967   7.484  13.239  0.00  0.00    +0.000 A 
ATOM      5  C   UNL     1      46.074   8.074  12.350  0.00  0.00    +0.000 A 
ATOM      6  N   UNL     1      45.262   7.386  11.510  0.00  0.00    +0.000 NA
ENDROOT
BRANCH   1   7
ATOM      7  C   UNL     1      44.425   5.257  10.613  0.00  0.00    +0.000 C 
BRANCH   7  10
ATOM      8  O   UNL     1      44.005   2.562   9.841  0.00  0.00    +0.000 OA
ATOM      9  C   UNL     1      44.882   3.220   9.286  0.00  0.00    +0.000 C 
ATOM     10  N   UNL     1      45.151   4.532   9.593  0.00  0.00    +0.000 N 
ATOM     11  H   UNL     1      45.949   4.965   9.139  0.00  0.00    +0.000 HD
BRANCH   9  12
ATOM     12  C   UNL     1      45.725   2.623   8.201  0.00  0.00    +0.000 A 
ATOM     13  C   UNL     1      46.046   3.392   7.087  0.00  0.00    +0.000 A 
ATOM     14  C   UNL     1      46.849   2.828   6.104  0.00  0.00    +0.000 A 
ATOM     15  C   UNL     1      47.303   1.522   6.263  0.00  0.00    +0.000 A 
ATOM     16  C   UNL     1      46.933   0.828   7.406  0.00  0.00    +0.000 A 
ATOM     17  N   UNL     1      46.155   1.341   8.386  0.00  0.00    +0.000 NA
ENDBRANCH   9  12
ENDBRANCH   7  10
ENDBRANCH   1   7
BRANCH   4  18
ATOM     18  C   UNL     1      47.840   8.313  14.133  0.00  0.00    +0.000 C 
BRANCH  18  19
ATOM     19  N   UNL     1      47.957   7.738  15.449  0.00  0.00    +0.000 N 
ATOM     20  C   UNL     1      49.078   7.031  15.812  0.00  0.00    +0.000 C 
ATOM     21  O   UNL     1      50.036   6.905  15.054  0.00  0.00    +0.000 OA
ATOM     22  H   UNL     1      47.103   7.621  15.985  0.00  0.00    +0.000 HD
BRANCH  20  23
ATOM     23  C   UNL     1      49.103   6.487  17.175  0.00  0.00    +0.000 A 
ATOM     24  C   UNL     1      49.612   5.213  17.397  0.00  0.00    +0.000 A 
ATOM     25  S   UNL     1      49.619   4.754  19.038  0.00  0.00    +0.000 S 
ATOM     26  C   UNL     1      48.892   6.219  19.507  0.00  0.00    +0.000 A 
ATOM     27  N   UNL     1      48.593   6.464  20.811  0.00  0.00    +0.000 NA
ATOM     28  C   UNL     1      48.012   7.599  21.019  0.00  0.00    +0.000 A 
ATOM     29  N   UNL     1      47.710   8.513  20.044  0.00  0.00    +0.000 N 
ATOM     30  C   UNL     1      48.024   8.323  18.718  0.00  0.00    +0.000 A 
ATOM     31  O   UNL     1      47.783   9.180  17.875  0.00  0.00    +0.000 OA
ATOM     32  C   UNL     1      48.665   7.055  18.428  0.00  0.00    +0.000 A 
ATOM     33  H   UNL     1      47.262   9.387  20.275  0.00  0.00    +0.000 HD
ENDBRANCH  20  23
ENDBRANCH  18  19
ENDBRANCH   4  18
TORSDOF 6
ENDMDL
MODEL 4
REMARK VINA RESULT:    -7.339      2.032      2.601
REMARK INTER + INTRA:         -10.804
REMARK INTER:                 -10.071
REMARK INTRA:                  -0.733
REMARK UNBOUND:                -0.891
REMARK  Name = 
REMARK  6 active torsions:
REMARK  status: ('A' for Active; 'I' for Inactive)
REMARK    1  A    between atoms: C_2  and  C_25
REMARK    2  A    between atoms: N_3  and  C_4
REMARK    3  A    between atoms: C_4  and  C_5
REMARK    4  A    between atoms: C_8  and  C_9
REMARK    5  A    between atoms: C_9  and  N_10
REMARK    6  A    between atoms: C_11  and  C_13
REMARK                            x       y       z     vdW  Elec       q    Type
REMARK                         _______ _______ _______ _____ _____    ______ ____
ROOT
ATOM      1  C   UNL     1      44.836   6.244  11.434  0.00  0.00    +0.000 A 
ATOM      2  C   UNL     1      45.880   5.754  12.214  0.00  0.00    +0.000 A 
ATOM      3  C   UNL     1      46.622   6.642  12.992  0.00  0.00    +0.000 A 
ATOM      4  C   UNL     1      46.326   8.005  12.961  0.00  0.00    +0.000 A 
ATOM      5  C   UNL     1      45.260   8.404  12.161  0.00  0.00    +0.000 A 
ATOM      6  N   UNL     1      44.517   7.564  11.401  0.00  0.00    +0.000 NA
ENDROOT
BRANCH   1   7
ATOM      7  C   UNL     1      44.011   5.301  10.585  0.00  0.00    +0.000 C 
BRANCH   7  10
ATOM      8  O   UNL     1      44.020   2.507  10.112  0.00  0.00    +0.000 OA
ATOM      9  C   UNL     1      44.737   3.236   9.431  0.00  0.00    +0.000 C 
ATOM     10  N   UNL     1      44.793   4.600   9.589  0.00  0.00    +0.000 N 
ATOM     11  H   UNL     1      45.477   5.108   9.036  0.00  0.00    +0.000 HD
BRANCH   9  12
ATOM     12  C   UNL     1      45.607   2.673   8.350  0.00  0.00    +0.000 A 
ATOM     13  C   UNL     1      45.972   3.483   7.278  0.00  0.00    +0.000 A 
ATOM     14  C   UNL     1      46.799   2.950   6.298  0.00  0.00    +0.000 A 
ATOM     15  C   UNL     1      47.234   1.634   6.418  0.00  0.00    +0.000 A 
ATOM     16  C   UNL     1      46.820   0.898   7.520  0.00  0.00    +0.000 A 
ATOM     17  N   UNL     1      46.017   1.381   8.495  0.00  0.00    +0.000 NA
ENDBRANCH   9  12
ENDBRANCH   7  10
ENDBRANCH   1   7
BRANCH   4  18
ATOM     18  C   UNL     1      47.108   8.997  13.770  0.00  0.00    +0.000 C 
BRANCH  18  19
ATOM     19  N   UNL     1      48.461   8.556  13.995  0.00  0.00    +0.000 N 
ATOM     20  C   UNL     1      48.978   8.486  15.266  0.00  0.00    +0.000 C 
ATOM     21  O   UNL     1      48.298   8.746  16.255  0.00  0.00    +0.000 OA
ATOM     22  H   UNL     1      49.096   8.576  13.203  0.00  0.00    +0.000 HD
BRANCH  20  23
ATOM     23  C   UNL     1      50.365   8.022  15.391  0.00  0.00    +0.000 A 
ATOM     24  C   UNL     1      51.373   8.674  14.691  0.00  0.00    +0.000 A 
ATOM     25  S   UNL     1      52.930   8.046  14.987  0.00  0.00    +0.000 S 
ATOM     26  C   UNL     1      52.308   6.846  16.021  0.00  0.00    +0.000 A 
ATOM     27  N   UNL     1      53.130   5.935  16.607  0.00  0.00    +0.000 NA
ATOM     28  C   UNL     1      52.521   5.060  17.337  0.00  0.00    +0.000 A 
ATOM     29  N   UNL     1      51.166   5.019  17.539  0.00  0.00    +0.000 N 
ATOM     30  C   UNL     1      50.301   5.938  16.995  0.00  0.00    +0.000 A 
ATOM     31  O   UNL     1      49.098   5.902  17.232  0.00  0.00    +0.000 OA
ATOM     32  C   UNL     1      50.933   6.934  16.152  0.00  0.00    +0.000 A 
ATOM     33  H   UNL     1      50.753   4.312  18.129  0.00  0.00    +0.000 HD
ENDBRANCH  20  23
ENDBRANCH  18  19
ENDBRANCH   4  18
TORSDOF 6
ENDMDL
MODEL 5
REMARK VINA RESULT:    -7.258      4.776      9.871
REMARK INTER + INTRA:         -10.696
REMARK INTER:                  -9.895
REMARK INTRA:                  -0.801
REMARK UNBOUND:                -0.891
REMARK  Name = 
REMARK  6 active torsions:
REMARK  status: ('A' for Active; 'I' for Inactive)
REMARK    1  A    between atoms: C_2  and  C_25
REMARK    2  A    between atoms: N_3  and  C_4
REMARK    3  A    between atoms: C_4  and  C_5
REMARK    4  A    between atoms: C_8  and  C_9
REMARK    5  A    between atoms: C_9  and  N_10
REMARK    6  A    between atoms: C_11  and  C_13
REMARK                            x       y       z     vdW  Elec       q    Type
REMARK                         _______ _______ _______ _____ _____    ______ ____
ROOT
ATOM      1  C   UNL     1      51.296   3.233  17.830  0.00  0.00    +0.000 A 
ATOM      2  C   UNL     1      50.707   2.122  17.232  0.00  0.00    +0.000 A 
ATOM      3  C   UNL     1      49.350   2.159  16.915  0.00  0.00    +0.000 A 
ATOM      4  C   UNL     1      48.598   3.295  17.221  0.00  0.00    +0.000 A 
ATOM      5  C   UNL     1      49.271   4.361  17.808  0.00  0.00    +0.000 A 
ATOM      6  N   UNL     1      50.590   4.356  18.121  0.00  0.00    +0.000 NA
ENDROOT
BRANCH   1   7
ATOM      7  C   UNL     1      52.768   3.220  18.179  0.00  0.00    +0.000 C 
BRANCH   7  10
ATOM      8  O   UNL     1      54.754   1.566  17.015  0.00  0.00    +0.000 OA
ATOM      9  C   UNL     1      54.194   1.202  18.046  0.00  0.00    +0.000 C 
ATOM     10  N   UNL     1      53.224   1.941  18.680  0.00  0.00    +0.000 N 
ATOM     11  H   UNL     1      52.760   1.519  19.479  0.00  0.00    +0.000 HD
BRANCH   9  12
ATOM     12  C   UNL     1      54.550  -0.096  18.703  0.00  0.00    +0.000 A 
ATOM     13  C   UNL     1      54.481  -1.274  17.965  0.00  0.00    +0.000 A 
ATOM     14  C   UNL     1      54.839  -2.465  18.584  0.00  0.00    +0.000 A 
ATOM     15  C   UNL     1      55.252  -2.442  19.913  0.00  0.00    +0.000 A 
ATOM     16  C   UNL     1      55.291  -1.222  20.573  0.00  0.00    +0.000 A 
ATOM     17  N   UNL     1      54.952  -0.042  20.005  0.00  0.00    +0.000 NA
ENDBRANCH   9  12
ENDBRANCH   7  10
ENDBRANCH   1   7
BRANCH   4  18
ATOM     18  C   UNL     1      47.132   3.373  16.911  0.00  0.00    +0.000 C 
BRANCH  18  19
ATOM     19  N   UNL     1      46.846   4.388  15.930  0.00  0.00    +0.000 N 
ATOM     20  C   UNL     1      46.971   4.127  14.587  0.00  0.00    +0.000 C 
ATOM     21  O   UNL     1      47.280   3.013  14.172  0.00  0.00    +0.000 OA
ATOM     22  H   UNL     1      46.832   5.353  16.248  0.00  0.00    +0.000 HD
BRANCH  20  23
ATOM     23  C   UNL     1      46.654   5.226  13.667  0.00  0.00    +0.000 A 
ATOM     24  C   UNL     1      47.610   6.200  13.406  0.00  0.00    +0.000 A 
ATOM     25  S   UNL     1      47.102   7.373  12.278  0.00  0.00    +0.000 S 
ATOM     26  C   UNL     1      45.567   6.652  12.138  0.00  0.00    +0.000 A 
ATOM     27  N   UNL     1      44.614   7.189  11.329  0.00  0.00    +0.000 NA
ATOM     28  C   UNL     1      43.485   6.561  11.347  0.00  0.00    +0.000 A 
ATOM     29  N   UNL     1      43.226   5.442  12.094  0.00  0.00    +0.000 N 
ATOM     30  C   UNL     1      44.167   4.846  12.899  0.00  0.00    +0.000 A 
ATOM     31  O   UNL     1      43.918   3.818  13.520  0.00  0.00    +0.000 OA
ATOM     32  C   UNL     1      45.449   5.522  12.927  0.00  0.00    +0.000 A 
ATOM     33  H   UNL     1      42.322   4.993  12.056  0.00  0.00    +0.000 HD
ENDBRANCH  20  23
ENDBRANCH  18  19
ENDBRANCH   4  18
TORSDOF 6
ENDMDL
MODEL 6
REMARK VINA RESULT:    -7.039      3.088      8.523
REMARK INTER + INTRA:         -10.400
REMARK INTER:                  -9.525
REMARK INTRA:                  -0.874
REMARK UNBOUND:                -0.891
REMARK  Name = 
REMARK  6 active torsions:
REMARK  status: ('A' for Active; 'I' for Inactive)
REMARK    1  A    between atoms: C_2  and  C_25
REMARK    2  A    between atoms: N_3  and  C_4
REMARK    3  A    between atoms: C_4  and  C_5
REMARK    4  A    between atoms: C_8  and  C_9
REMARK    5  A    between atoms: C_9  and  N_10
REMARK    6  A    between atoms: C_11  and  C_13
REMARK                            x       y       z     vdW  Elec       q    Type
REMARK                         _______ _______ _______ _____ _____    ______ ____
ROOT
ATOM      1  C   UNL     1      49.392   7.688  15.661  0.00  0.00    +0.000 A 
ATOM      2  C   UNL     1      48.387   8.642  15.527  0.00  0.00    +0.000 A 
ATOM      3  C   UNL     1      47.663   8.704  14.337  0.00  0.00    +0.000 A 
ATOM      4  C   UNL     1      47.969   7.830  13.293  0.00  0.00    +0.000 A 
ATOM      5  C   UNL     1      48.981   6.902  13.519  0.00  0.00    +0.000 A 
ATOM      6  N   UNL     1      49.697   6.814  14.667  0.00  0.00    +0.000 NA
ENDROOT
BRANCH   1   7
ATOM      7  C   UNL     1      50.189   7.596  16.944  0.00  0.00    +0.000 C 
BRANCH   7  10
ATOM      8  O   UNL     1      49.008   5.142  17.730  0.00  0.00    +0.000 OA
ATOM      9  C   UNL     1      50.213   5.184  17.494  0.00  0.00    +0.000 C 
ATOM     10  N   UNL     1      50.868   6.327  17.104  0.00  0.00    +0.000 N 
ATOM     11  H   UNL     1      51.878   6.282  17.014  0.00  0.00    +0.000 HD
BRANCH   9  12
ATOM     12  C   UNL     1      51.066   3.957  17.606  0.00  0.00    +0.000 A 
ATOM     13  C   UNL     1      50.499   2.709  17.361  0.00  0.00    +0.000 A 
ATOM     14  C   UNL     1      51.312   1.586  17.446  0.00  0.00    +0.000 A 
ATOM     15  C   UNL     1      52.656   1.743  17.772  0.00  0.00    +0.000 A 
ATOM     16  C   UNL     1      53.136   3.024  18.000  0.00  0.00    +0.000 A 
ATOM     17  N   UNL     1      52.378   4.142  17.926  0.00  0.00    +0.000 NA
ENDBRANCH   9  12
ENDBRANCH   7  10
ENDBRANCH   1   7
BRANCH   4  18
ATOM     18  C   UNL     1      47.226   7.871  11.991  0.00  0.00    +0.000 C 
BRANCH  18  19
ATOM     19  N   UNL     1      46.617   6.602  11.682  0.00  0.00    +0.000 N 
ATOM     20  C   UNL     1      45.256   6.434  11.766  0.00  0.00    +0.000 C 
ATOM     21  O   UNL     1      44.507   7.362  12.056  0.00  0.00    +0.000 OA
ATOM     22  H   UNL     1      47.218   5.783  11.683  0.00  0.00    +0.000 HD
BRANCH  20  23
ATOM     23  C   UNL     1      44.732   5.105  11.428  0.00  0.00    +0.000 A 
ATOM     24  C   UNL     1      43.976   4.407  12.362  0.00  0.00    +0.000 A 
ATOM     25  S   UNL     1      43.400   2.907  11.794  0.00  0.00    +0.000 S 
ATOM     26  C   UNL     1      44.186   3.110  10.298  0.00  0.00    +0.000 A 
ATOM     27  N   UNL     1      44.116   2.151   9.337  0.00  0.00    +0.000 NA
ATOM     28  C   UNL     1      44.788   2.419   8.267  0.00  0.00    +0.000 A 
ATOM     29  N   UNL     1      45.516   3.563   8.069  0.00  0.00    +0.000 N 
ATOM     30  C   UNL     1      45.588   4.574   8.998  0.00  0.00    +0.000 A 
ATOM     31  O   UNL     1      46.211   5.606   8.773  0.00  0.00    +0.000 OA
ATOM     32  C   UNL     1      44.863   4.315  10.226  0.00  0.00    +0.000 A 
ATOM     33  H   UNL     1      46.014   3.716   7.204  0.00  0.00    +0.000 HD
ENDBRANCH  20  23
ENDBRANCH  18  19
ENDBRANCH   4  18
TORSDOF 6
ENDMDL
MODEL 7
REMARK VINA RESULT:    -6.884      3.176      4.525
REMARK INTER + INTRA:         -10.189
REMARK INTER:                  -9.379
REMARK INTRA:                  -0.811
REMARK UNBOUND:                -0.891
REMARK  Name = 
REMARK  6 active torsions:
REMARK  status: ('A' for Active; 'I' for Inactive)
REMARK    1  A    between atoms: C_2  and  C_25
REMARK    2  A    between atoms: N_3  and  C_4
REMARK    3  A    between atoms: C_4  and  C_5
REMARK    4  A    between atoms: C_8  and  C_9
REMARK    5  A    between atoms: C_9  and  N_10
REMARK    6  A    between atoms: C_11  and  C_13
REMARK                            x       y       z     vdW  Elec       q    Type
REMARK                         _______ _______ _______ _____ _____    ______ ____
ROOT
ATOM      1  C   UNL     1      45.090   6.371  11.392  0.00  0.00    +0.000 A 
ATOM      2  C   UNL     1      46.372   5.941  11.728  0.00  0.00    +0.000 A 
ATOM      3  C   UNL     1      47.151   6.725  12.577  0.00  0.00    +0.000 A 
ATOM      4  C   UNL     1      46.649   7.936  13.059  0.00  0.00    +0.000 A 
ATOM      5  C   UNL     1      45.355   8.281  12.679  0.00  0.00    +0.000 A 
ATOM      6  N   UNL     1      44.573   7.535  11.861  0.00  0.00    +0.000 NA
ENDROOT
BRANCH   1   7
ATOM      7  C   UNL     1      44.222   5.536  10.476  0.00  0.00    +0.000 C 
BRANCH   7  10
ATOM      8  O   UNL     1      43.852   2.791   9.873  0.00  0.00    +0.000 OA
ATOM      9  C   UNL     1      44.736   3.421   9.299  0.00  0.00    +0.000 C 
ATOM     10  N   UNL     1      44.983   4.754   9.526  0.00  0.00    +0.000 N 
ATOM     11  H   UNL     1      45.789   5.166   9.064  0.00  0.00    +0.000 HD
BRANCH   9  12
ATOM     12  C   UNL     1      45.614   2.764   8.278  0.00  0.00    +0.000 A 
ATOM     13  C   UNL     1      45.992   3.478   7.144  0.00  0.00    +0.000 A 
ATOM     14  C   UNL     1      46.827   2.860   6.222  0.00  0.00    +0.000 A 
ATOM     15  C   UNL     1      47.255   1.557   6.459  0.00  0.00    +0.000 A 
ATOM     16  C   UNL     1      46.828   0.920   7.616  0.00  0.00    +0.000 A 
ATOM     17  N   UNL     1      46.017   1.488   8.538  0.00  0.00    +0.000 NA
ENDBRANCH   9  12
ENDBRANCH   7  10
ENDBRANCH   1   7
BRANCH   4  18
ATOM     18  C   UNL     1      47.458   8.818  13.962  0.00  0.00    +0.000 C 
BRANCH  18  19
ATOM     19  N   UNL     1      48.846   8.846  13.579  0.00  0.00    +0.000 N 
ATOM     20  C   UNL     1      49.806   8.252  14.362  0.00  0.00    +0.000 C 
ATOM     21  O   UNL     1      49.517   7.635  15.383  0.00  0.00    +0.000 OA
ATOM     22  H   UNL     1      49.127   9.541  12.893  0.00  0.00    +0.000 HD
BRANCH  20  23
ATOM     23  C   UNL     1      51.192   8.333  13.884  0.00  0.00    +0.000 A 
ATOM     24  C   UNL     1      52.231   8.418  14.803  0.00  0.00    +0.000 A 
ATOM     25  S   UNL     1      53.778   8.451  14.087  0.00  0.00    +0.000 S 
ATOM     26  C   UNL     1      53.113   8.407  12.521  0.00  0.00    +0.000 A 
ATOM     27  N   UNL     1      53.913   8.436  11.421  0.00  0.00    +0.000 NA
ATOM     28  C   UNL     1      53.275   8.434  10.298  0.00  0.00    +0.000 A 
ATOM     29  N   UNL     1      51.911   8.397  10.176  0.00  0.00    +0.000 N 
ATOM     30  C   UNL     1      51.064   8.333  11.257  0.00  0.00    +0.000 A 
ATOM     31  O   UNL     1      49.849   8.255  11.113  0.00  0.00    +0.000 OA
ATOM     32  C   UNL     1      51.731   8.349  12.544  0.00  0.00    +0.000 A 
ATOM     33  H   UNL     1      51.473   8.389   9.266  0.00  0.00    +0.000 HD
ENDBRANCH  20  23
ENDBRANCH  18  19
ENDBRANCH   4  18
TORSDOF 6
ENDMDL
MODEL 8
REMARK VINA RESULT:    -6.848      3.545      8.432
REMARK INTER + INTRA:         -10.142
REMARK INTER:                  -9.283
REMARK INTRA:                  -0.859
REMARK UNBOUND:                -0.891
REMARK  Name = 
REMARK  6 active torsions:
REMARK  status: ('A' for Active; 'I' for Inactive)
REMARK    1  A    between atoms: C_2  and  C_25
REMARK    2  A    between atoms: N_3  and  C_4
REMARK    3  A    between atoms: C_4  and  C_5
REMARK    4  A    between atoms: C_8  and  C_9
REMARK    5  A    between atoms: C_9  and  N_10
REMARK    6  A    between atoms: C_11  and  C_13
REMARK                            x       y       z     vdW  Elec       q    Type
REMARK                         _______ _______ _______ _____ _____    ______ ____
ROOT
ATOM      1  C   UNL     1      49.977   7.109  15.777  0.00  0.00    +0.000 A 
ATOM      2  C   UNL     1      48.750   6.546  15.435  0.00  0.00    +0.000 A 
ATOM      3  C   UNL     1      48.207   6.812  14.179  0.00  0.00    +0.000 A 
ATOM      4  C   UNL     1      48.886   7.650  13.293  0.00  0.00    +0.000 A 
ATOM      5  C   UNL     1      50.110   8.159  13.715  0.00  0.00    +0.000 A 
ATOM      6  N   UNL     1      50.665   7.914  14.927  0.00  0.00    +0.000 NA
ENDROOT
BRANCH   1   7
ATOM      7  C   UNL     1      50.591   6.833  17.133  0.00  0.00    +0.000 C 
BRANCH   7  10
ATOM      8  O   UNL     1      49.814   4.624  18.731  0.00  0.00    +0.000 OA
ATOM      9  C   UNL     1      50.809   4.532  18.016  0.00  0.00    +0.000 C 
ATOM     10  N   UNL     1      51.256   5.550  17.208  0.00  0.00    +0.000 N 
ATOM     11  H   UNL     1      52.134   5.408  16.718  0.00  0.00    +0.000 HD
BRANCH   9  12
ATOM     12  C   UNL     1      51.612   3.269  17.969  0.00  0.00    +0.000 A 
ATOM     13  C   UNL     1      52.906   3.264  18.483  0.00  0.00    +0.000 A 
ATOM     14  C   UNL     1      53.626   2.077  18.452  0.00  0.00    +0.000 A 
ATOM     15  C   UNL     1      53.035   0.938  17.912  0.00  0.00    +0.000 A 
ATOM     16  C   UNL     1      51.740   1.033  17.421  0.00  0.00    +0.000 A 
ATOM     17  N   UNL     1      51.007   2.170  17.435  0.00  0.00    +0.000 NA
ENDBRANCH   9  12
ENDBRANCH   7  10
ENDBRANCH   1   7
BRANCH   4  18
ATOM     18  C   UNL     1      48.332   7.974  11.938  0.00  0.00    +0.000 C 
BRANCH  18  19
ATOM     19  N   UNL     1      47.611   6.862  11.375  0.00  0.00    +0.000 N 
ATOM     20  C   UNL     1      46.237   6.858  11.338  0.00  0.00    +0.000 C 
ATOM     21  O   UNL     1      45.577   7.815  11.733  0.00  0.00    +0.000 OA
ATOM     22  H   UNL     1      48.111   5.983  11.275  0.00  0.00    +0.000 HD
BRANCH  20  23
ATOM     23  C   UNL     1      45.595   5.679  10.742  0.00  0.00    +0.000 A 
ATOM     24  C   UNL     1      45.697   5.459   9.374  0.00  0.00    +0.000 A 
ATOM     25  S   UNL     1      44.943   4.023   8.853  0.00  0.00    +0.000 S 
ATOM     26  C   UNL     1      44.406   3.669  10.429  0.00  0.00    +0.000 A 
ATOM     27  N   UNL     1      43.661   2.559  10.680  0.00  0.00    +0.000 NA
ATOM     28  C   UNL     1      43.291   2.434  11.911  0.00  0.00    +0.000 A 
ATOM     29  N   UNL     1      43.606   3.313  12.914  0.00  0.00    +0.000 N 
ATOM     30  C   UNL     1      44.384   4.428  12.714  0.00  0.00    +0.000 A 
ATOM     31  O   UNL     1      44.687   5.171  13.642  0.00  0.00    +0.000 OA
ATOM     32  C   UNL     1      44.813   4.625  11.343  0.00  0.00    +0.000 A 
ATOM     33  H   UNL     1      43.292   3.152  13.860  0.00  0.00    +0.000 HD
ENDBRANCH  20  23
ENDBRANCH  18  19
ENDBRANCH   4  18
TORSDOF 6
ENDMDL
MODEL 9
REMARK VINA RESULT:    -6.714      4.767      7.423
REMARK INTER + INTRA:          -9.960
REMARK INTER:                  -9.085
REMARK INTRA:                  -0.875
REMARK UNBOUND:                -0.891
REMARK  Name = 
REMARK  6 active torsions:
REMARK  status: ('A' for Active; 'I' for Inactive)
REMARK    1  A    between atoms: C_2  and  C_25
REMARK    2  A    between atoms: N_3  and  C_4
REMARK    3  A    between atoms: C_4  and  C_5
REMARK    4  A    between atoms: C_8  and  C_9
REMARK    5  A    between atoms: C_9  and  N_10
REMARK    6  A    between atoms: C_11  and  C_13
REMARK                            x       y       z     vdW  Elec       q    Type
REMARK                         _______ _______ _______ _____ _____    ______ ____
ROOT
ATOM      1  C   UNL     1      50.507   8.458  12.588  0.00  0.00    +0.000 A 
ATOM      2  C   UNL     1      49.623   9.108  11.730  0.00  0.00    +0.000 A 
ATOM      3  C   UNL     1      48.253   9.017  11.969  0.00  0.00    +0.000 A 
ATOM      4  C   UNL     1      47.786   8.263  13.047  0.00  0.00    +0.000 A 
ATOM      5  C   UNL     1      48.740   7.657  13.857  0.00  0.00    +0.000 A 
ATOM      6  N   UNL     1      50.078   7.733  13.653  0.00  0.00    +0.000 NA
ENDROOT
BRANCH   1   7
ATOM      7  C   UNL     1      52.000   8.545  12.353  0.00  0.00    +0.000 C 
BRANCH   7  10
ATOM      8  O   UNL     1      52.425   9.039   9.595  0.00  0.00    +0.000 OA
ATOM      9  C   UNL     1      52.652   7.921  10.050  0.00  0.00    +0.000 C 
ATOM     10  N   UNL     1      52.478   7.594  11.373  0.00  0.00    +0.000 N 
ATOM     11  H   UNL     1      52.613   6.622  11.637  0.00  0.00    +0.000 HD
BRANCH   9  12
ATOM     12  C   UNL     1      53.160   6.818   9.172  0.00  0.00    +0.000 A 
ATOM     13  C   UNL     1      52.646   6.680   7.885  0.00  0.00    +0.000 A 
ATOM     14  C   UNL     1      53.147   5.667   7.079  0.00  0.00    +0.000 A 
ATOM     15  C   UNL     1      54.138   4.828   7.578  0.00  0.00    +0.000 A 
ATOM     16  C   UNL     1      54.591   5.036   8.873  0.00  0.00    +0.000 A 
ATOM     17  N   UNL     1      54.131   6.012   9.689  0.00  0.00    +0.000 NA
ENDBRANCH   9  12
ENDBRANCH   7  10
ENDBRANCH   1   7
BRANCH   4  18
ATOM     18  C   UNL     1      46.320   8.126  13.333  0.00  0.00    +0.000 C 
BRANCH  18  19
ATOM     19  N   UNL     1      45.828   6.815  12.992  0.00  0.00    +0.000 N 
ATOM     20  C   UNL     1      45.051   6.621  11.876  0.00  0.00    +0.000 C 
ATOM     21  O   UNL     1      44.789   7.539  11.103  0.00  0.00    +0.000 OA
ATOM     22  H   UNL     1      45.824   6.113  13.726  0.00  0.00    +0.000 HD
BRANCH  20  23
ATOM     23  C   UNL     1      44.602   5.249  11.614  0.00  0.00    +0.000 A 
ATOM     24  C   UNL     1      43.871   4.569  12.580  0.00  0.00    +0.000 A 
ATOM     25  S   UNL     1      43.381   3.009  12.098  0.00  0.00    +0.000 S 
ATOM     26  C   UNL     1      44.174   3.164  10.600  0.00  0.00    +0.000 A 
ATOM     27  N   UNL     1      44.167   2.147   9.698  0.00  0.00    +0.000 NA
ATOM     28  C   UNL     1      44.838   2.387   8.620  0.00  0.00    +0.000 A 
ATOM     29  N   UNL     1      45.508   3.553   8.361  0.00  0.00    +0.000 N 
ATOM     30  C   UNL     1      45.515   4.620   9.228  0.00  0.00    +0.000 A 
ATOM     31  O   UNL     1      46.086   5.669   8.947  0.00  0.00    +0.000 OA
ATOM     32  C   UNL     1      44.789   4.396  10.463  0.00  0.00    +0.000 A 
ATOM     33  H   UNL     1      46.008   3.681   7.493  0.00  0.00    +0.000 HD
ENDBRANCH  20  23
ENDBRANCH  18  19
ENDBRANCH   4  18
TORSDOF 6
ENDMDL
