MODEL 1
REMARK VINA RESULT:    -8.122      0.000      0.000
REMARK INTER + INTRA:         -12.296
REMARK INTER:                 -11.446
REMARK INTRA:                  -0.850
REMARK UNBOUND:                -0.850
REMARK  Name = 
REMARK  8 active torsions:
REMARK  status: ('A' for Active; 'I' for Inactive)
REMARK    1  A    between atoms: C_1  and  O_2
REMARK    2  A    between atoms: O_2  and  C_3
REMARK    3  A    between atoms: C_3  and  C_4
REMARK    4  A    between atoms: C_4  and  N_5
REMARK    5  A    between atoms: C_4  and  C_18
REMARK    6  A    between atoms: C_6  and  C_8
REMARK    7  A    between atoms: C_21  and  O_22
REMARK    8  A    between atoms: O_22  and  C_23
REMARK                            x       y       z     vdW  Elec       q    Type
REMARK                         _______ _______ _______ _____ _____    ______ ____
ROOT
ATOM      1  C   UNL     1      46.466   6.808  12.785  0.00  0.00    +0.000 C 
ENDROOT
BRANCH   1   2
ATOM      2  C   UNL     1      45.891   5.807  11.793  0.00  0.00    +0.000 A 
ATOM      3  C   UNL     1      45.336   4.607  12.253  0.00  0.00    +0.000 A 
ATOM      4  C   UNL     1      44.874   3.648  11.348  0.00  0.00    +0.000 A 
ATOM      5  C   UNL     1      44.914   3.894   9.974  0.00  0.00    +0.000 A 
ATOM      6  C   UNL     1      45.455   5.090   9.505  0.00  0.00    +0.000 A 
ATOM      7  C   UNL     1      45.932   6.042  10.406  0.00  0.00    +0.000 A 
BRANCH   5   8
ATOM      8  O   UNL     1      44.532   2.989   9.011  0.00  0.00    +0.000 OA
BRANCH   8   9
ATOM      9  C   UNL     1      45.504   2.461   8.173  0.00  0.00    +0.000 A 
ATOM     10  C   UNL     1      45.854   3.235   7.076  0.00  0.00    +0.000 A 
ATOM     11  C   UNL     1      46.832   2.749   6.212  0.00  0.00    +0.000 A 
ATOM     12  C   UNL     1      47.415   1.513   6.472  0.00  0.00    +0.000 A 
ATOM     13  C   UNL     1      46.981   0.801   7.577  0.00  0.00    +0.000 A 
ATOM     14  N   UNL     1      46.026   1.240   8.422  0.00  0.00    +0.000 NA
ENDBRANCH   8   9
ENDBRANCH   5   8
ENDBRANCH   1   2
BRANCH   1  15
ATOM     15  N   UNL     1      46.667   6.168  14.075  0.00  0.00    +0.000 N 
ATOM     16  C   UNL     1      47.908   5.911  14.595  0.00  0.00    +0.000 C 
ATOM     17  O   UNL     1      48.946   6.295  14.071  0.00  0.00    +0.000 OA
ATOM     18  H   UNL     1      45.860   5.705  14.474  0.00  0.00    +0.000 HD
BRANCH  16  19
ATOM     19  C   UNL     1      47.922   5.175  15.869  0.00  0.00    +0.000 A 
ATOM     20  C   UNL     1      47.485   3.859  15.912  0.00  0.00    +0.000 A 
ATOM     21  S   UNL     1      47.555   3.166  17.470  0.00  0.00    +0.000 S 
ATOM     22  C   UNL     1      48.127   4.618  18.150  0.00  0.00    +0.000 A 
ATOM     23  N   UNL     1      48.353   4.725  19.488  0.00  0.00    +0.000 NA
ATOM     24  C   UNL     1      48.736   5.896  19.872  0.00  0.00    +0.000 A 
ATOM     25  N   UNL     1      48.937   6.965  19.039  0.00  0.00    +0.000 N 
ATOM     26  C   UNL     1      48.821   6.873  17.673  0.00  0.00    +0.000 A 
ATOM     27  O   UNL     1      49.182   7.793  16.947  0.00  0.00    +0.000 OA
ATOM     28  C   UNL     1      48.311   5.601  17.194  0.00  0.00    +0.000 A 
ATOM     29  H   UNL     1      49.286   7.841  19.396  0.00  0.00    +0.000 HD
ENDBRANCH  16  19
ENDBRANCH   1  15
BRANCH   1  30
ATOM     30  C   UNL     1      45.518   8.025  12.897  0.00  0.00    +0.000 C 
BRANCH  30  32
ATOM     31  C   UNL     1      47.406   9.312  12.337  0.00  0.00    +0.000 C 
ATOM     32  O   UNL     1      46.008   9.139  12.142  0.00  0.00    +0.000 OA
ENDBRANCH  30  32
ENDBRANCH   1  30
TORSDOF 7
ENDMDL
MODEL 2
REMARK VINA RESULT:    -7.910      1.598      2.120
REMARK INTER + INTRA:         -11.997
REMARK INTER:                 -11.375
REMARK INTRA:                  -0.622
REMARK UNBOUND:                -0.850
REMARK  Name = 
REMARK  8 active torsions:
REMARK  status: ('A' for Active; 'I' for Inactive)
REMARK    1  A    between atoms: C_1  and  O_2
REMARK    2  A    between atoms: O_2  and  C_3
REMARK    3  A    between atoms: C_3  and  C_4
REMARK    4  A    between atoms: C_4  and  N_5
REMARK    5  A    between atoms: C_4  and  C_18
REMARK    6  A    between atoms: C_6  and  C_8
REMARK    7  A    between atoms: C_21  and  O_22
REMARK    8  A    between atoms: O_22  and  C_23
REMARK                            x       y       z     vdW  Elec       q    Type
REMARK                         _______ _______ _______ _____ _____    ______ ____
ROOT
ATOM      1  C   UNL     1      46.365   7.908  12.624  0.00  0.00    +0.000 C 
ENDROOT
BRANCH   1   2
ATOM      2  C   UNL     1      45.775   6.735  11.855  0.00  0.00    +0.000 A 
ATOM      3  C   UNL     1      44.738   5.982  12.417  0.00  0.00    +0.000 A 
ATOM      4  C   UNL     1      44.239   4.858  11.753  0.00  0.00    +0.000 A 
ATOM      5  C   UNL     1      44.735   4.499  10.497  0.00  0.00    +0.000 A 
ATOM      6  C   UNL     1      45.759   5.249   9.923  0.00  0.00    +0.000 A 
ATOM      7  C   UNL     1      46.270   6.362  10.592  0.00  0.00    +0.000 A 
BRANCH   5   8
ATOM      8  O   UNL     1      44.342   3.382   9.798  0.00  0.00    +0.000 OA
BRANCH   8   9
ATOM      9  C   UNL     1      45.191   2.877   8.823  0.00  0.00    +0.000 A 
ATOM     10  C   UNL     1      45.437   3.701   7.735  0.00  0.00    +0.000 A 
ATOM     11  C   UNL     1      46.290   3.238   6.738  0.00  0.00    +0.000 A 
ATOM     12  C   UNL     1      46.857   1.974   6.860  0.00  0.00    +0.000 A 
ATOM     13  C   UNL     1      46.531   1.212   7.971  0.00  0.00    +0.000 A 
ATOM     14  N   UNL     1      45.696   1.629   8.944  0.00  0.00    +0.000 NA
ENDBRANCH   8   9
ENDBRANCH   5   8
ENDBRANCH   1   2
BRANCH   1  15
ATOM     15  N   UNL     1      46.950   7.441  13.869  0.00  0.00    +0.000 N 
ATOM     16  C   UNL     1      48.216   6.923  13.953  0.00  0.00    +0.000 C 
ATOM     17  O   UNL     1      48.997   6.911  13.009  0.00  0.00    +0.000 OA
ATOM     18  H   UNL     1      46.306   7.293  14.637  0.00  0.00    +0.000 HD
BRANCH  16  19
ATOM     19  C   UNL     1      48.608   6.415  15.276  0.00  0.00    +0.000 A 
ATOM     20  C   UNL     1      49.592   7.068  16.004  0.00  0.00    +0.000 A 
ATOM     21  S   UNL     1      49.931   6.333  17.507  0.00  0.00    +0.000 S 
ATOM     22  C   UNL     1      48.808   5.089  17.215  0.00  0.00    +0.000 A 
ATOM     23  N   UNL     1      48.635   4.076  18.107  0.00  0.00    +0.000 NA
ATOM     24  C   UNL     1      47.790   3.175  17.735  0.00  0.00    +0.000 A 
ATOM     25  N   UNL     1      47.080   3.206  16.562  0.00  0.00    +0.000 N 
ATOM     26  C   UNL     1      47.147   4.259  15.682  0.00  0.00    +0.000 A 
ATOM     27  O   UNL     1      46.369   4.340  14.738  0.00  0.00    +0.000 OA
ATOM     28  C   UNL     1      48.146   5.259  16.012  0.00  0.00    +0.000 A 
ATOM     29  H   UNL     1      46.397   2.495  16.352  0.00  0.00    +0.000 HD
ENDBRANCH  16  19
ENDBRANCH   1  15
BRANCH   1  30
ATOM     30  C   UNL     1      45.265   8.966  12.875  0.00  0.00    +0.000 C 
BRANCH  30  32
ATOM     31  C   UNL     1      46.729  10.462  11.801  0.00  0.00    +0.000 C 
ATOM     32  O   UNL     1      45.373  10.060  11.957  0.00  0.00    +0.000 OA
ENDBRANCH  30  32
ENDBRANCH   1  30
TORSDOF 7
ENDMDL
MODEL 3
REMARK VINA RESULT:    -7.875      2.851      4.113
REMARK INTER + INTRA:         -11.948
REMARK INTER:                 -10.740
REMARK INTRA:                  -1.208
REMARK UNBOUND:                -0.850
REMARK  Name = 
REMARK  8 active torsions:
REMARK  status: ('A' for Active; 'I' for Inactive)
REMARK    1  A    between atoms: C_1  and  O_2
REMARK    2  A    between atoms: O_2  and  C_3
REMARK    3  A    between atoms: C_3  and  C_4
REMARK    4  A    between atoms: C_4  and  N_5
REMARK    5  A    between atoms: C_4  and  C_18
REMARK    6  A    between atoms: C_6  and  C_8
REMARK    7  A    between atoms: C_21  and  O_22
REMARK    8  A    between atoms: O_22  and  C_23
REMARK                            x       y       z     vdW  Elec       q    Type
REMARK                         _______ _______ _______ _____ _____    ______ ____
ROOT
ATOM      1  C   UNL     1      46.277   5.574  13.651  0.00  0.00    +0.000 C 
ENDROOT
BRANCH   1   2
ATOM      2  C   UNL     1      45.764   4.956  12.359  0.00  0.00    +0.000 A 
ATOM      3  C   UNL     1      45.311   3.632  12.349  0.00  0.00    +0.000 A 
ATOM      4  C   UNL     1      44.908   3.030  11.154  0.00  0.00    +0.000 A 
ATOM      5  C   UNL     1      44.904   3.758   9.961  0.00  0.00    +0.000 A 
ATOM      6  C   UNL     1      45.342   5.080   9.962  0.00  0.00    +0.000 A 
ATOM      7  C   UNL     1      45.761   5.677  11.151  0.00  0.00    +0.000 A 
BRANCH   5   8
ATOM      8  O   UNL     1      44.575   3.233   8.733  0.00  0.00    +0.000 OA
BRANCH   8   9
ATOM      9  C   UNL     1      45.572   2.626   7.982  0.00  0.00    +0.000 A 
ATOM     10  C   UNL     1      46.008   3.323   6.864  0.00  0.00    +0.000 A 
ATOM     11  C   UNL     1      47.013   2.756   6.086  0.00  0.00    +0.000 A 
ATOM     12  C   UNL     1      47.538   1.520   6.448  0.00  0.00    +0.000 A 
ATOM     13  C   UNL     1      47.020   0.888   7.566  0.00  0.00    +0.000 A 
ATOM     14  N   UNL     1      46.037   1.406   8.329  0.00  0.00    +0.000 NA
ENDBRANCH   8   9
ENDBRANCH   5   8
ENDBRANCH   1   2
BRANCH   1  15
ATOM     15  N   UNL     1      47.500   6.317  13.394  0.00  0.00    +0.000 N 
ATOM     16  C   UNL     1      47.540   7.684  13.311  0.00  0.00    +0.000 C 
ATOM     17  O   UNL     1      46.574   8.397  13.553  0.00  0.00    +0.000 OA
ATOM     18  H   UNL     1      48.283   5.779  13.045  0.00  0.00    +0.000 HD
BRANCH  16  19
ATOM     19  C   UNL     1      48.845   8.260  12.953  0.00  0.00    +0.000 A 
ATOM     20  C   UNL     1      48.977   9.010  11.793  0.00  0.00    +0.000 A 
ATOM     21  S   UNL     1      50.561   9.586  11.528  0.00  0.00    +0.000 S 
ATOM     22  C   UNL     1      51.137   8.812  12.930  0.00  0.00    +0.000 A 
ATOM     23  N   UNL     1      52.454   8.865  13.269  0.00  0.00    +0.000 NA
ATOM     24  C   UNL     1      52.759   8.193  14.327  0.00  0.00    +0.000 A 
ATOM     25  N   UNL     1      51.865   7.490  15.093  0.00  0.00    +0.000 N 
ATOM     26  C   UNL     1      50.514   7.494  14.845  0.00  0.00    +0.000 A 
ATOM     27  O   UNL     1      49.725   7.008  15.650  0.00  0.00    +0.000 OA
ATOM     28  C   UNL     1      50.126   8.166  13.618  0.00  0.00    +0.000 A 
ATOM     29  H   UNL     1      52.159   7.025  15.938  0.00  0.00    +0.000 HD
ENDBRANCH  16  19
ENDBRANCH   1  15
BRANCH   1  30
ATOM     30  C   UNL     1      46.500   4.461  14.702  0.00  0.00    +0.000 C 
BRANCH  30  32
ATOM     31  C   UNL     1      47.801   4.298  16.656  0.00  0.00    +0.000 C 
ATOM     32  O   UNL     1      47.822   4.518  15.250  0.00  0.00    +0.000 OA
ENDBRANCH  30  32
ENDBRANCH   1  30
TORSDOF 7
ENDMDL
MODEL 4
REMARK VINA RESULT:    -7.406      2.661      3.990
REMARK INTER + INTRA:         -11.286
REMARK INTER:                 -10.954
REMARK INTRA:                  -0.333
REMARK UNBOUND:                -0.850
REMARK  Name = 
REMARK  8 active torsions:
REMARK  status: ('A' for Active; 'I' for Inactive)
REMARK    1  A    between atoms: C_1  and  O_2
REMARK    2  A    between atoms: O_2  and  C_3
REMARK    3  A    between atoms: C_3  and  C_4
REMARK    4  A    between atoms: C_4  and  N_5
REMARK    5  A    between atoms: C_4  and  C_18
REMARK    6  A    between atoms: C_6  and  C_8
REMARK    7  A    between atoms: C_21  and  O_22
REMARK    8  A    between atoms: O_22  and  C_23
REMARK                            x       y       z     vdW  Elec       q    Type
REMARK                         _______ _______ _______ _____ _____    ______ ____
ROOT
ATOM      1  C   UNL     1      45.950   5.177  13.720  0.00  0.00    +0.000 C 
ENDROOT
BRANCH   1   2
ATOM      2  C   UNL     1      45.520   4.680  12.348  0.00  0.00    +0.000 A 
ATOM      3  C   UNL     1      45.055   3.369  12.194  0.00  0.00    +0.000 A 
ATOM      4  C   UNL     1      44.728   2.878  10.928  0.00  0.00    +0.000 A 
ATOM      5  C   UNL     1      44.812   3.704   9.804  0.00  0.00    +0.000 A 
ATOM      6  C   UNL     1      45.263   5.015   9.948  0.00  0.00    +0.000 A 
ATOM      7  C   UNL     1      45.606   5.502  11.209  0.00  0.00    +0.000 A 
BRANCH   5   8
ATOM      8  O   UNL     1      44.562   3.292   8.517  0.00  0.00    +0.000 OA
BRANCH   8   9
ATOM      9  C   UNL     1      45.630   2.882   7.731  0.00  0.00    +0.000 A 
ATOM     10  C   UNL     1      46.215   1.671   8.072  0.00  0.00    +0.000 A 
ATOM     11  C   UNL     1      47.284   1.216   7.305  0.00  0.00    +0.000 A 
ATOM     12  C   UNL     1      47.731   1.987   6.238  0.00  0.00    +0.000 A 
ATOM     13  C   UNL     1      47.101   3.196   5.991  0.00  0.00    +0.000 A 
ATOM     14  N   UNL     1      46.074   3.668   6.725  0.00  0.00    +0.000 NA
ENDBRANCH   8   9
ENDBRANCH   5   8
ENDBRANCH   1   2
BRANCH   1  15
ATOM     15  N   UNL     1      46.483   6.526  13.615  0.00  0.00    +0.000 N 
ATOM     16  C   UNL     1      47.804   6.790  13.368  0.00  0.00    +0.000 C 
ATOM     17  O   UNL     1      48.624   5.918  13.109  0.00  0.00    +0.000 OA
ATOM     18  H   UNL     1      45.888   7.268  13.962  0.00  0.00    +0.000 HD
BRANCH  16  19
ATOM     19  C   UNL     1      48.181   8.212  13.386  0.00  0.00    +0.000 A 
ATOM     20  C   UNL     1      48.100   8.965  12.224  0.00  0.00    +0.000 A 
ATOM     21  S   UNL     1      48.589  10.587  12.424  0.00  0.00    +0.000 S 
ATOM     22  C   UNL     1      48.974  10.327  14.061  0.00  0.00    +0.000 A 
ATOM     23  N   UNL     1      49.503  11.322  14.824  0.00  0.00    +0.000 NA
ATOM     24  C   UNL     1      49.792  10.972  16.032  0.00  0.00    +0.000 A 
ATOM     25  N   UNL     1      49.579   9.723  16.556  0.00  0.00    +0.000 N 
ATOM     26  C   UNL     1      48.954   8.721  15.854  0.00  0.00    +0.000 A 
ATOM     27  O   UNL     1      48.617   7.680  16.409  0.00  0.00    +0.000 OA
ATOM     28  C   UNL     1      48.684   9.035  14.463  0.00  0.00    +0.000 A 
ATOM     29  H   UNL     1      49.781   9.527  17.524  0.00  0.00    +0.000 HD
ENDBRANCH  16  19
ENDBRANCH   1  15
BRANCH   1  30
ATOM     30  C   UNL     1      46.990   4.201  14.319  0.00  0.00    +0.000 C 
BRANCH  30  32
ATOM     31  C   UNL     1      47.839   4.218  16.514  0.00  0.00    +0.000 C 
ATOM     32  O   UNL     1      46.712   3.923  15.697  0.00  0.00    +0.000 OA
ENDBRANCH  30  32
ENDBRANCH   1  30
TORSDOF 7
ENDMDL
MODEL 5
REMARK VINA RESULT:    -7.183      1.651      2.102
REMARK INTER + INTRA:         -10.972
REMARK INTER:                  -9.594
REMARK INTRA:                  -1.378
REMARK UNBOUND:                -0.850
REMARK  Name = 
REMARK  8 active torsions:
REMARK  status: ('A' for Active; 'I' for Inactive)
REMARK    1  A    between atoms: C_1  and  O_2
REMARK    2  A    between atoms: O_2  and  C_3
REMARK    3  A    between atoms: C_3  and  C_4
REMARK    4  A    between atoms: C_4  and  N_5
REMARK    5  A    between atoms: C_4  and  C_18
REMARK    6  A    between atoms: C_6  and  C_8
REMARK    7  A    between atoms: C_21  and  O_22
REMARK    8  A    between atoms: O_22  and  C_23
REMARK                            x       y       z     vdW  Elec       q    Type
REMARK                         _______ _______ _______ _____ _____    ______ ____
ROOT
ATOM      1  C   UNL     1      47.916   7.590  13.915  0.00  0.00    +0.000 C 
ENDROOT
BRANCH   1   2
ATOM      2  C   UNL     1      46.923   6.818  13.059  0.00  0.00    +0.000 A 
ATOM      3  C   UNL     1      46.787   5.434  13.223  0.00  0.00    +0.000 A 
ATOM      4  C   UNL     1      45.933   4.704  12.392  0.00  0.00    +0.000 A 
ATOM      5  C   UNL     1      45.166   5.351  11.420  0.00  0.00    +0.000 A 
ATOM      6  C   UNL     1      45.285   6.729  11.256  0.00  0.00    +0.000 A 
ATOM      7  C   UNL     1      46.150   7.458  12.073  0.00  0.00    +0.000 A 
BRANCH   5   8
ATOM      8  O   UNL     1      44.343   4.707  10.526  0.00  0.00    +0.000 OA
BRANCH   8   9
ATOM      9  C   UNL     1      44.914   3.853   9.594  0.00  0.00    +0.000 A 
ATOM     10  C   UNL     1      45.583   4.455   8.538  0.00  0.00    +0.000 A 
ATOM     11  C   UNL     1      46.179   3.636   7.583  0.00  0.00    +0.000 A 
ATOM     12  C   UNL     1      46.080   2.255   7.715  0.00  0.00    +0.000 A 
ATOM     13  C   UNL     1      45.368   1.746   8.789  0.00  0.00    +0.000 A 
ATOM     14  N   UNL     1      44.768   2.515   9.719  0.00  0.00    +0.000 NA
ENDBRANCH   8   9
ENDBRANCH   5   8
ENDBRANCH   1   2
BRANCH   1  15
ATOM     15  N   UNL     1      47.949   7.037  15.259  0.00  0.00    +0.000 N 
ATOM     16  C   UNL     1      49.093   6.567  15.847  0.00  0.00    +0.000 C 
ATOM     17  O   UNL     1      50.201   6.674  15.333  0.00  0.00    +0.000 OA
ATOM     18  H   UNL     1      47.052   6.793  15.662  0.00  0.00    +0.000 HD
BRANCH  16  19
ATOM     19  C   UNL     1      48.921   5.959  17.175  0.00  0.00    +0.000 A 
ATOM     20  C   UNL     1      49.199   4.612  17.360  0.00  0.00    +0.000 A 
ATOM     21  S   UNL     1      48.930   4.073  18.957  0.00  0.00    +0.000 S 
ATOM     22  C   UNL     1      48.386   5.610  19.444  0.00  0.00    +0.000 A 
ATOM     23  N   UNL     1      47.946   5.828  20.712  0.00  0.00    +0.000 NA
ATOM     24  C   UNL     1      47.516   7.026  20.929  0.00  0.00    +0.000 A 
ATOM     25  N   UNL     1      47.508   8.034  20.000  0.00  0.00    +0.000 N 
ATOM     26  C   UNL     1      48.037   7.886  18.741  0.00  0.00    +0.000 A 
ATOM     27  O   UNL     1      48.179   8.853  18.000  0.00  0.00    +0.000 OA
ATOM     28  C   UNL     1      48.458   6.534  18.417  0.00  0.00    +0.000 A 
ATOM     29  H   UNL     1      47.205   8.963  20.247  0.00  0.00    +0.000 HD
ENDBRANCH  16  19
ENDBRANCH   1  15
BRANCH   1  30
ATOM     30  C   UNL     1      47.532   9.088  13.927  0.00  0.00    +0.000 C 
BRANCH  30  32
ATOM     31  C   UNL     1      49.424  10.241  14.718  0.00  0.00    +0.000 C 
ATOM     32  O   UNL     1      48.646   9.916  13.572  0.00  0.00    +0.000 OA
ENDBRANCH  30  32
ENDBRANCH   1  30
TORSDOF 7
ENDMDL
MODEL 6
REMARK VINA RESULT:    -7.110      3.209      8.061
REMARK INTER + INTRA:         -10.870
REMARK INTER:                  -9.574
REMARK INTRA:                  -1.295
REMARK UNBOUND:                -0.850
REMARK  Name = 
REMARK  8 active torsions:
REMARK  status: ('A' for Active; 'I' for Inactive)
REMARK    1  A    between atoms: C_1  and  O_2
REMARK    2  A    between atoms: O_2  and  C_3
REMARK    3  A    between atoms: C_3  and  C_4
REMARK    4  A    between atoms: C_4  and  N_5
REMARK    5  A    between atoms: C_4  and  C_18
REMARK    6  A    between atoms: C_6  and  C_8
REMARK    7  A    between atoms: C_21  and  O_22
REMARK    8  A    between atoms: O_22  and  C_23
REMARK                            x       y       z     vdW  Elec       q    Type
REMARK                         _______ _______ _______ _____ _____    ______ ____
ROOT
ATOM      1  C   UNL     1      48.302   7.382  13.444  0.00  0.00    +0.000 C 
ENDROOT
BRANCH   1   2
ATOM      2  C   UNL     1      48.660   6.675  14.743  0.00  0.00    +0.000 A 
ATOM      3  C   UNL     1      49.835   7.015  15.423  0.00  0.00    +0.000 A 
ATOM      4  C   UNL     1      50.212   6.320  16.576  0.00  0.00    +0.000 A 
ATOM      5  C   UNL     1      49.396   5.311  17.093  0.00  0.00    +0.000 A 
ATOM      6  C   UNL     1      48.218   4.972  16.430  0.00  0.00    +0.000 A 
ATOM      7  C   UNL     1      47.849   5.652  15.270  0.00  0.00    +0.000 A 
BRANCH   5   8
ATOM      8  O   UNL     1      49.713   4.542  18.188  0.00  0.00    +0.000 OA
BRANCH   8   9
ATOM      9  C   UNL     1      50.722   3.597  18.066  0.00  0.00    +0.000 A 
ATOM     10  C   UNL     1      50.372   2.398  17.462  0.00  0.00    +0.000 A 
ATOM     11  C   UNL     1      51.355   1.424  17.310  0.00  0.00    +0.000 A 
ATOM     12  C   UNL     1      52.642   1.681  17.771  0.00  0.00    +0.000 A 
ATOM     13  C   UNL     1      52.891   2.897  18.385  0.00  0.00    +0.000 A 
ATOM     14  N   UNL     1      51.955   3.852  18.558  0.00  0.00    +0.000 NA
ENDBRANCH   8   9
ENDBRANCH   5   8
ENDBRANCH   1   2
BRANCH   1  15
ATOM     15  N   UNL     1      47.587   6.472  12.565  0.00  0.00    +0.000 N 
ATOM     16  C   UNL     1      46.475   6.839  11.854  0.00  0.00    +0.000 C 
ATOM     17  O   UNL     1      46.055   7.990  11.815  0.00  0.00    +0.000 OA
ATOM     18  H   UNL     1      47.799   5.488  12.674  0.00  0.00    +0.000 HD
BRANCH  16  19
ATOM     19  C   UNL     1      45.828   5.763  11.087  0.00  0.00    +0.000 A 
ATOM     20  C   UNL     1      45.911   5.754   9.702  0.00  0.00    +0.000 A 
ATOM     21  S   UNL     1      45.091   4.445   8.978  0.00  0.00    +0.000 S 
ATOM     22  C   UNL     1      44.554   3.873  10.488  0.00  0.00    +0.000 A 
ATOM     23  N   UNL     1      43.746   2.782  10.578  0.00  0.00    +0.000 NA
ATOM     24  C   UNL     1      43.376   2.490  11.779  0.00  0.00    +0.000 A 
ATOM     25  N   UNL     1      43.759   3.174  12.903  0.00  0.00    +0.000 N 
ATOM     26  C   UNL     1      44.654   4.215  12.868  0.00  0.00    +0.000 A 
ATOM     27  O   UNL     1      45.113   4.685  13.904  0.00  0.00    +0.000 OA
ATOM     28  C   UNL     1      45.037   4.639  11.534  0.00  0.00    +0.000 A 
ATOM     29  H   UNL     1      43.474   2.864  13.820  0.00  0.00    +0.000 HD
ENDBRANCH  16  19
ENDBRANCH   1  15
BRANCH   1  30
ATOM     30  C   UNL     1      49.590   7.921  12.779  0.00  0.00    +0.000 C 
BRANCH  30  32
ATOM     31  C   UNL     1      49.055   9.817  11.493  0.00  0.00    +0.000 C 
ATOM     32  O   UNL     1      49.590   9.352  12.726  0.00  0.00    +0.000 OA
ENDBRANCH  30  32
ENDBRANCH   1  30
TORSDOF 7
ENDMDL
MODEL 7
REMARK VINA RESULT:    -6.917      2.807      4.383
REMARK INTER + INTRA:         -10.597
REMARK INTER:                  -9.431
REMARK INTRA:                  -1.166
REMARK UNBOUND:                -0.850
REMARK  Name = 
REMARK  8 active torsions:
REMARK  status: ('A' for Active; 'I' for Inactive)
REMARK    1  A    between atoms: C_1  and  O_2
REMARK    2  A    between atoms: O_2  and  C_3
REMARK    3  A    between atoms: C_3  and  C_4
REMARK    4  A    between atoms: C_4  and  N_5
REMARK    5  A    between atoms: C_4  and  C_18
REMARK    6  A    between atoms: C_6  and  C_8
REMARK    7  A    between atoms: C_21  and  O_22
REMARK    8  A    between atoms: O_22  and  C_23
REMARK                            x       y       z     vdW  Elec       q    Type
REMARK                         _______ _______ _______ _____ _____    ______ ____
ROOT
ATOM      1  C   UNL     1      46.983   5.103  15.008  0.00  0.00    +0.000 C 
ENDROOT
BRANCH   1   2
ATOM      2  C   UNL     1      46.273   4.899  13.678  0.00  0.00    +0.000 A 
ATOM      3  C   UNL     1      45.489   3.758  13.472  0.00  0.00    +0.000 A 
ATOM      4  C   UNL     1      44.894   3.523  12.230  0.00  0.00    +0.000 A 
ATOM      5  C   UNL     1      45.032   4.448  11.192  0.00  0.00    +0.000 A 
ATOM      6  C   UNL     1      45.801   5.592  11.390  0.00  0.00    +0.000 A 
ATOM      7  C   UNL     1      46.410   5.821  12.624  0.00  0.00    +0.000 A 
BRANCH   5   8
ATOM      8  O   UNL     1      44.527   4.273   9.925  0.00  0.00    +0.000 OA
BRANCH   8   9
ATOM      9  C   UNL     1      45.263   3.528   9.014  0.00  0.00    +0.000 A 
ATOM     10  C   UNL     1      45.863   4.236   7.983  0.00  0.00    +0.000 A 
ATOM     11  C   UNL     1      46.618   3.530   7.051  0.00  0.00    +0.000 A 
ATOM     12  C   UNL     1      46.740   2.150   7.180  0.00  0.00    +0.000 A 
ATOM     13  C   UNL     1      46.082   1.527   8.228  0.00  0.00    +0.000 A 
ATOM     14  N   UNL     1      45.332   2.184   9.135  0.00  0.00    +0.000 NA
ENDBRANCH   8   9
ENDBRANCH   5   8
ENDBRANCH   1   2
BRANCH   1  15
ATOM     15  N   UNL     1      48.057   6.070  14.855  0.00  0.00    +0.000 N 
ATOM     16  C   UNL     1      48.704   6.644  15.917  0.00  0.00    +0.000 C 
ATOM     17  O   UNL     1      48.508   6.310  17.079  0.00  0.00    +0.000 OA
ATOM     18  H   UNL     1      48.155   6.485  13.936  0.00  0.00    +0.000 HD
BRANCH  16  19
ATOM     19  C   UNL     1      49.701   7.670  15.574  0.00  0.00    +0.000 A 
ATOM     20  C   UNL     1      51.014   7.529  16.000  0.00  0.00    +0.000 A 
ATOM     21  S   UNL     1      52.028   8.817  15.526  0.00  0.00    +0.000 S 
ATOM     22  C   UNL     1      50.735   9.632  14.778  0.00  0.00    +0.000 A 
ATOM     23  N   UNL     1      50.915  10.853  14.204  0.00  0.00    +0.000 NA
ATOM     24  C   UNL     1      49.840  11.377  13.719  0.00  0.00    +0.000 A 
ATOM     25  N   UNL     1      48.605  10.783  13.733  0.00  0.00    +0.000 N 
ATOM     26  C   UNL     1      48.400   9.511  14.209  0.00  0.00    +0.000 A 
ATOM     27  O   UNL     1      47.326   8.942  14.042  0.00  0.00    +0.000 OA
ATOM     28  C   UNL     1      49.558   8.908  14.843  0.00  0.00    +0.000 A 
ATOM     29  H   UNL     1      47.813  11.225  13.292  0.00  0.00    +0.000 HD
ENDBRANCH  16  19
ENDBRANCH   1  15
BRANCH   1  30
ATOM     30  C   UNL     1      47.513   3.744  15.524  0.00  0.00    +0.000 C 
BRANCH  30  32
ATOM     31  C   UNL     1      47.764   2.993  17.740  0.00  0.00    +0.000 C 
ATOM     32  O   UNL     1      46.835   3.339  16.720  0.00  0.00    +0.000 OA
ENDBRANCH  30  32
ENDBRANCH   1  30
TORSDOF 7
ENDMDL
MODEL 8
REMARK VINA RESULT:    -6.880      2.062      2.972
REMARK INTER + INTRA:         -10.545
REMARK INTER:                  -9.418
REMARK INTRA:                  -1.127
REMARK UNBOUND:                -0.850
REMARK  Name = 
REMARK  8 active torsions:
REMARK  status: ('A' for Active; 'I' for Inactive)
REMARK    1  A    between atoms: C_1  and  O_2
REMARK    2  A    between atoms: O_2  and  C_3
REMARK    3  A    between atoms: C_3  and  C_4
REMARK    4  A    between atoms: C_4  and  N_5
REMARK    5  A    between atoms: C_4  and  C_18
REMARK    6  A    between atoms: C_6  and  C_8
REMARK    7  A    between atoms: C_21  and  O_22
REMARK    8  A    between atoms: O_22  and  C_23
REMARK                            x       y       z     vdW  Elec       q    Type
REMARK                         _______ _______ _______ _____ _____    ______ ____
ROOT
ATOM      1  C   UNL     1      48.354   8.073  13.764  0.00  0.00    +0.000 C 
ENDROOT
BRANCH   1   2
ATOM      2  C   UNL     1      47.295   7.273  13.021  0.00  0.00    +0.000 A 
ATOM      3  C   UNL     1      46.397   7.925  12.168  0.00  0.00    +0.000 A 
ATOM      4  C   UNL     1      45.373   7.212  11.539  0.00  0.00    +0.000 A 
ATOM      5  C   UNL     1      45.262   5.830  11.713  0.00  0.00    +0.000 A 
ATOM      6  C   UNL     1      46.158   5.169  12.550  0.00  0.00    +0.000 A 
ATOM      7  C   UNL     1      47.171   5.882  13.193  0.00  0.00    +0.000 A 
BRANCH   5   8
ATOM      8  O   UNL     1      44.258   5.059  11.177  0.00  0.00    +0.000 OA
BRANCH   8   9
ATOM      9  C   UNL     1      44.582   4.138  10.191  0.00  0.00    +0.000 A 
ATOM     10  C   UNL     1      45.261   4.633   9.087  0.00  0.00    +0.000 A 
ATOM     11  C   UNL     1      45.615   3.743   8.077  0.00  0.00    +0.000 A 
ATOM     12  C   UNL     1      45.275   2.400   8.204  0.00  0.00    +0.000 A 
ATOM     13  C   UNL     1      44.573   2.004   9.331  0.00  0.00    +0.000 A 
ATOM     14  N   UNL     1      44.205   2.847  10.316  0.00  0.00    +0.000 NA
ENDBRANCH   8   9
ENDBRANCH   5   8
ENDBRANCH   1   2
BRANCH   1  15
ATOM     15  N   UNL     1      48.203   7.884  15.198  0.00  0.00    +0.000 N 
ATOM     16  C   UNL     1      49.094   7.172  15.956  0.00  0.00    +0.000 C 
ATOM     17  O   UNL     1      50.146   6.729  15.512  0.00  0.00    +0.000 OA
ATOM     18  H   UNL     1      47.291   8.100  15.582  0.00  0.00    +0.000 HD
BRANCH  16  19
ATOM     19  C   UNL     1      48.733   7.007  17.373  0.00  0.00    +0.000 A 
ATOM     20  C   UNL     1      48.334   8.108  18.118  0.00  0.00    +0.000 A 
ATOM     21  S   UNL     1      47.969   7.736  19.743  0.00  0.00    +0.000 S 
ATOM     22  C   UNL     1      48.378   6.100  19.519  0.00  0.00    +0.000 A 
ATOM     23  N   UNL     1      48.333   5.217  20.554  0.00  0.00    +0.000 NA
ATOM     24  C   UNL     1      48.717   4.023  20.253  0.00  0.00    +0.000 A 
ATOM     25  N   UNL     1      49.120   3.621  19.006  0.00  0.00    +0.000 N 
ATOM     26  C   UNL     1      49.082   4.451  17.912  0.00  0.00    +0.000 A 
ATOM     27  O   UNL     1      49.275   4.013  16.783  0.00  0.00    +0.000 OA
ATOM     28  C   UNL     1      48.738   5.830  18.211  0.00  0.00    +0.000 A 
ATOM     29  H   UNL     1      49.361   2.659  18.825  0.00  0.00    +0.000 HD
ENDBRANCH  16  19
ENDBRANCH   1  15
BRANCH   1  30
ATOM     30  C   UNL     1      48.243   9.565  13.373  0.00  0.00    +0.000 C 
BRANCH  30  32
ATOM     31  C   UNL     1      50.449   9.073  12.720  0.00  0.00    +0.000 C 
ATOM     32  O   UNL     1      49.364   9.984  12.586  0.00  0.00    +0.000 OA
ENDBRANCH  30  32
ENDBRANCH   1  30
TORSDOF 7
ENDMDL
MODEL 9
REMARK VINA RESULT:    -6.724      2.844      8.381
REMARK INTER + INTRA:         -10.325
REMARK INTER:                  -9.262
REMARK INTRA:                  -1.063
REMARK UNBOUND:                -0.850
REMARK  Name = 
REMARK  8 active torsions:
REMARK  status: ('A' for Active; 'I' for Inactive)
REMARK    1  A    between atoms: C_1  and  O_2
REMARK    2  A    between atoms: O_2  and  C_3
REMARK    3  A    between atoms: C_3  and  C_4
REMARK    4  A    between atoms: C_4  and  N_5
REMARK    5  A    between atoms: C_4  and  C_18
REMARK    6  A    between atoms: C_6  and  C_8
REMARK    7  A    between atoms: C_21  and  O_22
REMARK    8  A    between atoms: O_22  and  C_23
REMARK                            x       y       z     vdW  Elec       q    Type
REMARK                         _______ _______ _______ _____ _____    ______ ____
ROOT
ATOM      1  C   UNL     1      47.698   6.889  13.493  0.00  0.00    +0.000 C 
ENDROOT
BRANCH   1   2
ATOM      2  C   UNL     1      48.260   6.326  14.790  0.00  0.00    +0.000 A 
ATOM      3  C   UNL     1      49.441   6.851  15.326  0.00  0.00    +0.000 A 
ATOM      4  C   UNL     1      50.006   6.292  16.475  0.00  0.00    +0.000 A 
ATOM      5  C   UNL     1      49.374   5.233  17.132  0.00  0.00    +0.000 A 
ATOM      6  C   UNL     1      48.192   4.710  16.613  0.00  0.00    +0.000 A 
ATOM      7  C   UNL     1      47.635   5.256  15.457  0.00  0.00    +0.000 A 
BRANCH   5   8
ATOM      8  O   UNL     1      49.885   4.589  18.235  0.00  0.00    +0.000 OA
BRANCH   8   9
ATOM      9  C   UNL     1      50.812   3.575  18.041  0.00  0.00    +0.000 A 
ATOM     10  C   UNL     1      52.121   3.862  18.400  0.00  0.00    +0.000 A 
ATOM     11  C   UNL     1      53.084   2.871  18.231  0.00  0.00    +0.000 A 
ATOM     12  C   UNL     1      52.706   1.639  17.707  0.00  0.00    +0.000 A 
ATOM     13  C   UNL     1      51.380   1.454  17.354  0.00  0.00    +0.000 A 
ATOM     14  N   UNL     1      50.430   2.401  17.492  0.00  0.00    +0.000 NA
ENDBRANCH   8   9
ENDBRANCH   5   8
ENDBRANCH   1   2
BRANCH   1  15
ATOM     15  N   UNL     1      46.906   5.877  12.814  0.00  0.00    +0.000 N 
ATOM     16  C   UNL     1      45.638   6.105  12.350  0.00  0.00    +0.000 C 
ATOM     17  O   UNL     1      45.107   7.209  12.372  0.00  0.00    +0.000 OA
ATOM     18  H   UNL     1      47.235   4.923  12.900  0.00  0.00    +0.000 HD
BRANCH  16  19
ATOM     19  C   UNL     1      44.954   4.939  11.771  0.00  0.00    +0.000 A 
ATOM     20  C   UNL     1      44.131   4.154  12.566  0.00  0.00    +0.000 A 
ATOM     21  S   UNL     1      43.433   2.837  11.735  0.00  0.00    +0.000 S 
ATOM     22  C   UNL     1      44.245   3.243  10.295  0.00  0.00    +0.000 A 
ATOM     23  N   UNL     1      44.121   2.475   9.179  0.00  0.00    +0.000 NA
ATOM     24  C   UNL     1      44.831   2.871   8.177  0.00  0.00    +0.000 A 
ATOM     25  N   UNL     1      45.636   3.980   8.179  0.00  0.00    +0.000 N 
ATOM     26  C   UNL     1      45.711   4.840   9.248  0.00  0.00    +0.000 A 
ATOM     27  O   UNL     1      46.295   5.914   9.152  0.00  0.00    +0.000 OA
ATOM     28  C   UNL     1      44.997   4.396  10.432  0.00  0.00    +0.000 A 
ATOM     29  H   UNL     1      46.128   4.264   7.346  0.00  0.00    +0.000 HD
ENDBRANCH  16  19
ENDBRANCH   1  15
BRANCH   1  30
ATOM     30  C   UNL     1      48.858   7.394  12.604  0.00  0.00    +0.000 C 
BRANCH  30  32
ATOM     31  C   UNL     1      47.860   9.442  12.015  0.00  0.00    +0.000 C 
ATOM     32  O   UNL     1      48.970   8.822  12.653  0.00  0.00    +0.000 OA
ENDBRANCH  30  32
ENDBRANCH   1  30
TORSDOF 7
ENDMDL
