MODEL 1
REMARK VINA RESULT:    -6.598      0.000      0.000
REMARK INTER + INTRA:          -8.798
REMARK INTER:                  -8.141
REMARK INTRA:                  -0.657
REMARK UNBOUND:                -0.657
REMARK  Name = 
REMARK  4 active torsions:
REMARK  status: ('A' for Active; 'I' for Inactive)
REMARK    1  A    between atoms: C_2  and  C_12
REMARK    2  A    between atoms: N_3  and  C_4
REMARK    3  A    between atoms: C_4  and  C_5
REMARK    4  A    between atoms: C_5  and  N_6
REMARK                            x       y       z     vdW  Elec       q    Type
REMARK                         _______ _______ _______ _____ _____    ______ ____
ROOT
ATOM      1  O   UNL     1      48.703   6.269  12.902  0.00  0.00    +0.000 OA
ATOM      2  C   UNL     1      47.904   6.268  13.827  0.00  0.00    +0.000 C 
ATOM      3  N   UNL     1      46.537   6.347  13.636  0.00  0.00    +0.000 N 
ATOM      4  H   UNL     1      45.970   6.614  14.430  0.00  0.00    +0.000 HD
ENDROOT
BRANCH   2   5
ATOM      5  C   UNL     1      48.335   6.153  15.218  0.00  0.00    +0.000 A 
ATOM      6  C   UNL     1      48.934   7.179  15.929  0.00  0.00    +0.000 A 
ATOM      7  S   UNL     1      49.204   6.787  17.571  0.00  0.00    +0.000 S 
ATOM      8  C   UNL     1      48.525   5.238  17.374  0.00  0.00    +0.000 A 
ATOM      9  N   UNL     1      48.422   4.374  18.419  0.00  0.00    +0.000 NA
ATOM     10  C   UNL     1      47.860   3.249  18.123  0.00  0.00    +0.000 A 
ATOM     11  N   UNL     1      47.407   2.903  16.877  0.00  0.00    +0.000 N 
ATOM     12  C   UNL     1      47.581   3.701  15.766  0.00  0.00    +0.000 A 
ATOM     13  O   UNL     1      47.352   3.268  14.644  0.00  0.00    +0.000 OA
ATOM     14  C   UNL     1      48.127   5.011  16.070  0.00  0.00    +0.000 A 
ATOM     15  H   UNL     1      47.033   1.982  16.695  0.00  0.00    +0.000 HD
ENDBRANCH   2   5
BRANCH   3  16
ATOM     16  C   UNL     1      45.998   6.614  12.311  0.00  0.00    +0.000 C 
BRANCH  16  17
ATOM     17  C   UNL     1      45.589   5.340  11.530  0.00  0.00    +0.000 C 
BRANCH  17  18
ATOM     18  N   UNL     1      44.175   5.305  11.095  0.00  0.00    +0.000 NA
ATOM     19  C   UNL     1      43.304   4.825  12.202  0.00  0.00    +0.000 C 
ATOM     20  C   UNL     1      43.408   3.311  12.500  0.00  0.00    +0.000 C 
ATOM     21  O   UNL     1      43.238   2.511  11.322  0.00  0.00    +0.000 OA
ATOM     22  C   UNL     1      44.158   2.910  10.297  0.00  0.00    +0.000 C 
ATOM     23  C   UNL     1      43.946   4.392   9.949  0.00  0.00    +0.000 C 
ENDBRANCH  17  18
ENDBRANCH  16  17
ENDBRANCH   3  16
TORSDOF 4
ENDMDL
MODEL 2
REMARK VINA RESULT:    -6.535      2.633      6.425
REMARK INTER + INTRA:          -8.721
REMARK INTER:                  -7.990
REMARK INTRA:                  -0.730
REMARK UNBOUND:                -0.657
REMARK  Name = 
REMARK  4 active torsions:
REMARK  status: ('A' for Active; 'I' for Inactive)
REMARK    1  A    between atoms: C_2  and  C_12
REMARK    2  A    between atoms: N_3  and  C_4
REMARK    3  A    between atoms: C_4  and  C_5
REMARK    4  A    between atoms: C_5  and  N_6
REMARK                            x       y       z     vdW  Elec       q    Type
REMARK                         _______ _______ _______ _____ _____    ______ ____
ROOT
ATOM      1  O   UNL     1      47.735   6.928  11.718  0.00  0.00    +0.000 OA
ATOM      2  C   UNL     1      46.897   6.591  12.541  0.00  0.00    +0.000 C 
ATOM      3  N   UNL     1      47.156   6.550  13.899  0.00  0.00    +0.000 N 
ATOM      4  H   UNL     1      46.524   6.014  14.478  0.00  0.00    +0.000 HD
ENDROOT
BRANCH   2   5
ATOM      5  C   UNL     1      45.535   6.233  12.155  0.00  0.00    +0.000 A 
ATOM      6  C   UNL     1      44.622   7.130  11.624  0.00  0.00    +0.000 A 
ATOM      7  S   UNL     1      43.156   6.389  11.149  0.00  0.00    +0.000 S 
ATOM      8  C   UNL     1      43.705   4.852  11.636  0.00  0.00    +0.000 A 
ATOM      9  N   UNL     1      42.933   3.745  11.482  0.00  0.00    +0.000 NA
ATOM     10  C   UNL     1      43.495   2.648  11.872  0.00  0.00    +0.000 A 
ATOM     11  N   UNL     1      44.750   2.561  12.415  0.00  0.00    +0.000 N 
ATOM     12  C   UNL     1      45.529   3.665  12.686  0.00  0.00    +0.000 A 
ATOM     13  O   UNL     1      46.547   3.560  13.358  0.00  0.00    +0.000 OA
ATOM     14  C   UNL     1      44.974   4.908  12.182  0.00  0.00    +0.000 A 
ATOM     15  H   UNL     1      45.109   1.681  12.759  0.00  0.00    +0.000 HD
ENDBRANCH   2   5
BRANCH   3  16
ATOM     16  C   UNL     1      48.512   6.742  14.391  0.00  0.00    +0.000 C 
BRANCH  16  17
ATOM     17  C   UNL     1      48.671   6.494  15.911  0.00  0.00    +0.000 C 
BRANCH  17  18
ATOM     18  N   UNL     1      48.977   5.096  16.285  0.00  0.00    +0.000 NA
ATOM     19  C   UNL     1      47.740   4.391  16.715  0.00  0.00    +0.000 C 
ATOM     20  C   UNL     1      47.207   4.805  18.106  0.00  0.00    +0.000 C 
ATOM     21  O   UNL     1      48.219   4.739  19.119  0.00  0.00    +0.000 OA
ATOM     22  C   UNL     1      49.367   5.512  18.744  0.00  0.00    +0.000 C 
ATOM     23  C   UNL     1      49.936   4.996  17.413  0.00  0.00    +0.000 C 
ENDBRANCH  17  18
ENDBRANCH  16  17
ENDBRANCH   3  16
TORSDOF 4
ENDMDL
MODEL 3
REMARK VINA RESULT:    -6.252      2.444      6.288
REMARK INTER + INTRA:          -8.371
REMARK INTER:                  -7.704
REMARK INTRA:                  -0.667
REMARK UNBOUND:                -0.657
REMARK  Name = 
REMARK  4 active torsions:
REMARK  status: ('A' for Active; 'I' for Inactive)
REMARK    1  A    between atoms: C_2  and  C_12
REMARK    2  A    between atoms: N_3  and  C_4
REMARK    3  A    between atoms: C_4  and  C_5
REMARK    4  A    between atoms: C_5  and  N_6
REMARK                            x       y       z     vdW  Elec       q    Type
REMARK                         _______ _______ _______ _____ _____    ______ ____
ROOT
ATOM      1  O   UNL     1      48.965   6.244  12.885  0.00  0.00    +0.000 OA
ATOM      2  C   UNL     1      47.919   6.458  13.481  0.00  0.00    +0.000 C 
ATOM      3  N   UNL     1      47.880   6.837  14.810  0.00  0.00    +0.000 N 
ATOM      4  H   UNL     1      47.001   6.730  15.299  0.00  0.00    +0.000 HD
ENDROOT
BRANCH   2   5
ATOM      5  C   UNL     1      46.620   6.358  12.821  0.00  0.00    +0.000 A 
ATOM      6  C   UNL     1      45.972   7.427  12.225  0.00  0.00    +0.000 A 
ATOM      7  S   UNL     1      44.532   6.974  11.423  0.00  0.00    +0.000 S 
ATOM      8  C   UNL     1      44.740   5.338  11.848  0.00  0.00    +0.000 A 
ATOM      9  N   UNL     1      43.854   4.387  11.448  0.00  0.00    +0.000 NA
ATOM     10  C   UNL     1      44.159   3.189  11.824  0.00  0.00    +0.000 A 
ATOM     11  N   UNL     1      45.258   2.857  12.573  0.00  0.00    +0.000 N 
ATOM     12  C   UNL     1      46.126   3.795  13.087  0.00  0.00    +0.000 A 
ATOM     13  O   UNL     1      46.967   3.478  13.919  0.00  0.00    +0.000 OA
ATOM     14  C   UNL     1      45.872   5.145  12.617  0.00  0.00    +0.000 A 
ATOM     15  H   UNL     1      45.407   1.909  12.888  0.00  0.00    +0.000 HD
ENDBRANCH   2   5
BRANCH   3  16
ATOM     16  C   UNL     1      49.096   6.827  15.610  0.00  0.00    +0.000 C 
BRANCH  16  17
ATOM     17  C   UNL     1      49.165   5.668  16.635  0.00  0.00    +0.000 C 
BRANCH  17  18
ATOM     18  N   UNL     1      47.884   5.355  17.307  0.00  0.00    +0.000 NA
ATOM     19  C   UNL     1      47.856   5.948  18.671  0.00  0.00    +0.000 C 
ATOM     20  C   UNL     1      48.750   5.232  19.709  0.00  0.00    +0.000 C 
ATOM     21  O   UNL     1      48.508   3.820  19.753  0.00  0.00    +0.000 OA
ATOM     22  C   UNL     1      48.645   3.238  18.450  0.00  0.00    +0.000 C 
ATOM     23  C   UNL     1      47.660   3.899  17.474  0.00  0.00    +0.000 C 
ENDBRANCH  17  18
ENDBRANCH  16  17
ENDBRANCH   3  16
TORSDOF 4
ENDMDL
MODEL 4
REMARK VINA RESULT:    -6.045      2.619      7.112
REMARK INTER + INTRA:          -8.116
REMARK INTER:                  -7.713
REMARK INTRA:                  -0.403
REMARK UNBOUND:                -0.657
REMARK  Name = 
REMARK  4 active torsions:
REMARK  status: ('A' for Active; 'I' for Inactive)
REMARK    1  A    between atoms: C_2  and  C_12
REMARK    2  A    between atoms: N_3  and  C_4
REMARK    3  A    between atoms: C_4  and  C_5
REMARK    4  A    between atoms: C_5  and  N_6
REMARK                            x       y       z     vdW  Elec       q    Type
REMARK                         _______ _______ _______ _____ _____    ______ ____
ROOT
ATOM      1  O   UNL     1      47.097   3.300  13.643  0.00  0.00    +0.000 OA
ATOM      2  C   UNL     1      46.779   4.352  14.177  0.00  0.00    +0.000 C 
ATOM      3  N   UNL     1      46.989   4.602  15.521  0.00  0.00    +0.000 N 
ATOM      4  H   UNL     1      46.466   5.359  15.942  0.00  0.00    +0.000 HD
ENDROOT
BRANCH   2   5
ATOM      5  C   UNL     1      46.174   5.448  13.425  0.00  0.00    +0.000 A 
ATOM      6  C   UNL     1      46.818   6.644  13.151  0.00  0.00    +0.000 A 
ATOM      7  S   UNL     1      45.905   7.679  12.141  0.00  0.00    +0.000 S 
ATOM      8  C   UNL     1      44.629   6.555  12.043  0.00  0.00    +0.000 A 
ATOM      9  N   UNL     1      43.520   6.809  11.299  0.00  0.00    +0.000 NA
ATOM     10  C   UNL     1      42.652   5.852  11.299  0.00  0.00    +0.000 A 
ATOM     11  N   UNL     1      42.784   4.673  11.984  0.00  0.00    +0.000 N 
ATOM     12  C   UNL     1      43.839   4.412  12.832  0.00  0.00    +0.000 A 
ATOM     13  O   UNL     1      43.813   3.444  13.581  0.00  0.00    +0.000 OA
ATOM     14  C   UNL     1      44.881   5.422  12.794  0.00  0.00    +0.000 A 
ATOM     15  H   UNL     1      42.040   3.990  11.995  0.00  0.00    +0.000 HD
ENDBRANCH   2   5
BRANCH   3  16
ATOM     16  C   UNL     1      47.447   3.536  16.400  0.00  0.00    +0.000 C 
BRANCH  16  17
ATOM     17  C   UNL     1      48.421   4.009  17.507  0.00  0.00    +0.000 C 
BRANCH  17  18
ATOM     18  N   UNL     1      49.739   4.472  17.019  0.00  0.00    +0.000 NA
ATOM     19  C   UNL     1      50.819   4.029  17.942  0.00  0.00    +0.000 C 
ATOM     20  C   UNL     1      50.878   4.792  19.285  0.00  0.00    +0.000 C 
ATOM     21  O   UNL     1      50.904   6.213  19.103  0.00  0.00    +0.000 OA
ATOM     22  C   UNL     1      49.796   6.645  18.302  0.00  0.00    +0.000 C 
ATOM     23  C   UNL     1      49.836   5.950  16.932  0.00  0.00    +0.000 C 
ENDBRANCH  17  18
ENDBRANCH  16  17
ENDBRANCH   3  16
TORSDOF 4
ENDMDL
MODEL 5
REMARK VINA RESULT:    -6.023      2.215      2.996
REMARK INTER + INTRA:          -8.088
REMARK INTER:                  -7.699
REMARK INTRA:                  -0.389
REMARK UNBOUND:                -0.657
REMARK  Name = 
REMARK  4 active torsions:
REMARK  status: ('A' for Active; 'I' for Inactive)
REMARK    1  A    between atoms: C_2  and  C_12
REMARK    2  A    between atoms: N_3  and  C_4
REMARK    3  A    between atoms: C_4  and  C_5
REMARK    4  A    between atoms: C_5  and  N_6
REMARK                            x       y       z     vdW  Elec       q    Type
REMARK                         _______ _______ _______ _____ _____    ______ ____
ROOT
ATOM      1  O   UNL     1      46.999   3.353  16.673  0.00  0.00    +0.000 OA
ATOM      2  C   UNL     1      47.609   4.343  16.296  0.00  0.00    +0.000 C 
ATOM      3  N   UNL     1      47.443   4.890  15.037  0.00  0.00    +0.000 N 
ATOM      4  H   UNL     1      48.159   5.522  14.705  0.00  0.00    +0.000 HD
ENDROOT
BRANCH   2   5
ATOM      5  C   UNL     1      48.545   5.051  17.166  0.00  0.00    +0.000 A 
ATOM      6  C   UNL     1      48.322   6.322  17.668  0.00  0.00    +0.000 A 
ATOM      7  S   UNL     1      49.535   6.832  18.760  0.00  0.00    +0.000 S 
ATOM      8  C   UNL     1      50.386   5.366  18.591  0.00  0.00    +0.000 A 
ATOM      9  N   UNL     1      51.531   5.131  19.286  0.00  0.00    +0.000 NA
ATOM     10  C   UNL     1      52.047   3.965  19.076  0.00  0.00    +0.000 A 
ATOM     11  N   UNL     1      51.534   3.022  18.225  0.00  0.00    +0.000 N 
ATOM     12  C   UNL     1      50.436   3.251  17.424  0.00  0.00    +0.000 A 
ATOM     13  O   UNL     1      50.138   2.466  16.533  0.00  0.00    +0.000 OA
ATOM     14  C   UNL     1      49.772   4.514  17.693  0.00  0.00    +0.000 A 
ATOM     15  H   UNL     1      52.020   2.152  18.056  0.00  0.00    +0.000 HD
ENDBRANCH   2   5
BRANCH   3  16
ATOM     16  C   UNL     1      46.652   4.192  14.035  0.00  0.00    +0.000 C 
BRANCH  16  17
ATOM     17  C   UNL     1      45.427   4.993  13.529  0.00  0.00    +0.000 C 
BRANCH  17  18
ATOM     18  N   UNL     1      44.233   4.176  13.220  0.00  0.00    +0.000 NA
ATOM     19  C   UNL     1      44.491   3.306  12.041  0.00  0.00    +0.000 C 
ATOM     20  C   UNL     1      44.523   4.045  10.684  0.00  0.00    +0.000 C 
ATOM     21  O   UNL     1      43.362   4.862  10.481  0.00  0.00    +0.000 OA
ATOM     22  C   UNL     1      43.183   5.774  11.573  0.00  0.00    +0.000 C 
ATOM     23  C   UNL     1      43.042   4.995  12.890  0.00  0.00    +0.000 C 
ENDBRANCH  17  18
ENDBRANCH  16  17
ENDBRANCH   3  16
TORSDOF 4
ENDMDL
MODEL 6
REMARK VINA RESULT:    -5.452      3.730      7.159
REMARK INTER + INTRA:          -7.384
REMARK INTER:                  -6.744
REMARK INTRA:                  -0.641
REMARK UNBOUND:                -0.657
REMARK  Name = 
REMARK  4 active torsions:
REMARK  status: ('A' for Active; 'I' for Inactive)
REMARK    1  A    between atoms: C_2  and  C_12
REMARK    2  A    between atoms: N_3  and  C_4
REMARK    3  A    between atoms: C_4  and  C_5
REMARK    4  A    between atoms: C_5  and  N_6
REMARK                            x       y       z     vdW  Elec       q    Type
REMARK                         _______ _______ _______ _____ _____    ______ ____
ROOT
ATOM      1  O   UNL     1      44.842   7.735  11.549  0.00  0.00    +0.000 OA
ATOM      2  C   UNL     1      45.553   6.748  11.675  0.00  0.00    +0.000 C 
ATOM      3  N   UNL     1      46.917   6.831  11.886  0.00  0.00    +0.000 N 
ATOM      4  H   UNL     1      47.467   6.000  11.710  0.00  0.00    +0.000 HD
ENDROOT
BRANCH   2   5
ATOM      5  C   UNL     1      45.007   5.394  11.644  0.00  0.00    +0.000 A 
ATOM      6  C   UNL     1      44.369   4.793  12.718  0.00  0.00    +0.000 A 
ATOM      7  S   UNL     1      43.723   3.257  12.338  0.00  0.00    +0.000 S 
ATOM      8  C   UNL     1      44.276   3.356  10.730  0.00  0.00    +0.000 A 
ATOM      9  N   UNL     1      44.031   2.361   9.837  0.00  0.00    +0.000 NA
ATOM     10  C   UNL     1      44.487   2.591   8.650  0.00  0.00    +0.000 A 
ATOM     11  N   UNL     1      45.177   3.716   8.279  0.00  0.00    +0.000 N 
ATOM     12  C   UNL     1      45.537   4.703   9.170  0.00  0.00    +0.000 A 
ATOM     13  O   UNL     1      46.326   5.580   8.844  0.00  0.00    +0.000 OA
ATOM     14  C   UNL     1      44.969   4.529  10.495  0.00  0.00    +0.000 A 
ATOM     15  H   UNL     1      45.563   3.808   7.350  0.00  0.00    +0.000 HD
ENDBRANCH   2   5
BRANCH   3  16
ATOM     16  C   UNL     1      47.595   8.115  11.790  0.00  0.00    +0.000 C 
BRANCH  16  17
ATOM     17  C   UNL     1      48.995   8.138  12.453  0.00  0.00    +0.000 C 
BRANCH  17  18
ATOM     18  N   UNL     1      49.090   8.969  13.674  0.00  0.00    +0.000 NA
ATOM     19  C   UNL     1      50.496   9.022  14.157  0.00  0.00    +0.000 C 
ATOM     20  C   UNL     1      51.005   7.721  14.819  0.00  0.00    +0.000 C 
ATOM     21  O   UNL     1      50.121   7.252  15.847  0.00  0.00    +0.000 OA
ATOM     22  C   UNL     1      48.788   7.100  15.343  0.00  0.00    +0.000 C 
ATOM     23  C   UNL     1      48.277   8.442  14.796  0.00  0.00    +0.000 C 
ENDBRANCH  17  18
ENDBRANCH  16  17
ENDBRANCH   3  16
TORSDOF 4
ENDMDL
MODEL 7
REMARK VINA RESULT:    -4.897      3.771      6.954
REMARK INTER + INTRA:          -6.699
REMARK INTER:                  -6.179
REMARK INTRA:                  -0.520
REMARK UNBOUND:                -0.657
REMARK  Name = 
REMARK  4 active torsions:
REMARK  status: ('A' for Active; 'I' for Inactive)
REMARK    1  A    between atoms: C_2  and  C_12
REMARK    2  A    between atoms: N_3  and  C_4
REMARK    3  A    between atoms: C_4  and  C_5
REMARK    4  A    between atoms: C_5  and  N_6
REMARK                            x       y       z     vdW  Elec       q    Type
REMARK                         _______ _______ _______ _____ _____    ______ ____
ROOT
ATOM      1  O   UNL     1      46.596   7.895  13.572  0.00  0.00    +0.000 OA
ATOM      2  C   UNL     1      46.546   6.965  12.781  0.00  0.00    +0.000 C 
ATOM      3  N   UNL     1      47.674   6.298  12.338  0.00  0.00    +0.000 N 
ATOM      4  H   UNL     1      47.585   5.740  11.499  0.00  0.00    +0.000 HD
ENDROOT
BRANCH   2   5
ATOM      5  C   UNL     1      45.278   6.460  12.260  0.00  0.00    +0.000 A 
ATOM      6  C   UNL     1      44.359   7.240  11.577  0.00  0.00    +0.000 A 
ATOM      7  S   UNL     1      43.033   6.342  10.979  0.00  0.00    +0.000 S 
ATOM      8  C   UNL     1      43.655   4.889  11.614  0.00  0.00    +0.000 A 
ATOM      9  N   UNL     1      43.008   3.707  11.434  0.00  0.00    +0.000 NA
ATOM     10  C   UNL     1      43.615   2.688  11.948  0.00  0.00    +0.000 A 
ATOM     11  N   UNL     1      44.799   2.746  12.637  0.00  0.00    +0.000 N 
ATOM     12  C   UNL     1      45.438   3.930  12.933  0.00  0.00    +0.000 A 
ATOM     13  O   UNL     1      46.373   3.955  13.723  0.00  0.00    +0.000 OA
ATOM     14  C   UNL     1      44.838   5.091  12.298  0.00  0.00    +0.000 A 
ATOM     15  H   UNL     1      45.191   1.922  13.070  0.00  0.00    +0.000 HD
ENDBRANCH   2   5
BRANCH   3  16
ATOM     16  C   UNL     1      48.998   6.801  12.669  0.00  0.00    +0.000 C 
BRANCH  16  17
ATOM     17  C   UNL     1      49.494   7.931  11.734  0.00  0.00    +0.000 C 
BRANCH  17  18
ATOM     18  N   UNL     1      50.019   9.128  12.428  0.00  0.00    +0.000 NA
ATOM     19  C   UNL     1      50.329  10.202  11.446  0.00  0.00    +0.000 C 
ATOM     20  C   UNL     1      51.593   9.957  10.592  0.00  0.00    +0.000 C 
ATOM     21  O   UNL     1      52.739   9.642  11.394  0.00  0.00    +0.000 OA
ATOM     22  C   UNL     1      52.466   8.533  12.261  0.00  0.00    +0.000 C 
ATOM     23  C   UNL     1      51.273   8.860  13.172  0.00  0.00    +0.000 C 
ENDBRANCH  17  18
ENDBRANCH  16  17
ENDBRANCH   3  16
TORSDOF 4
ENDMDL
MODEL 8
REMARK VINA RESULT:    -4.778      3.376      6.905
REMARK INTER + INTRA:          -6.553
REMARK INTER:                  -6.757
REMARK INTRA:                   0.205
REMARK UNBOUND:                -0.657
REMARK  Name = 
REMARK  4 active torsions:
REMARK  status: ('A' for Active; 'I' for Inactive)
REMARK    1  A    between atoms: C_2  and  C_12
REMARK    2  A    between atoms: N_3  and  C_4
REMARK    3  A    between atoms: C_4  and  C_5
REMARK    4  A    between atoms: C_5  and  N_6
REMARK                            x       y       z     vdW  Elec       q    Type
REMARK                         _______ _______ _______ _____ _____    ______ ____
ROOT
ATOM      1  O   UNL     1      47.876   5.280  13.600  0.00  0.00    +0.000 OA
ATOM      2  C   UNL     1      47.420   6.051  12.768  0.00  0.00    +0.000 C 
ATOM      3  N   UNL     1      48.188   7.015  12.141  0.00  0.00    +0.000 N 
ATOM      4  H   UNL     1      47.701   7.775  11.685  0.00  0.00    +0.000 HD
ENDROOT
BRANCH   2   5
ATOM      5  C   UNL     1      46.023   5.994  12.346  0.00  0.00    +0.000 A 
ATOM      6  C   UNL     1      45.311   7.088  11.883  0.00  0.00    +0.000 A 
ATOM      7  S   UNL     1      43.740   6.683  11.341  0.00  0.00    +0.000 S 
ATOM      8  C   UNL     1      43.974   5.036  11.708  0.00  0.00    +0.000 A 
ATOM      9  N   UNL     1      43.006   4.114  11.460  0.00  0.00    +0.000 NA
ATOM     10  C   UNL     1      43.339   2.903  11.764  0.00  0.00    +0.000 A 
ATOM     11  N   UNL     1      44.542   2.533  12.306  0.00  0.00    +0.000 N 
ATOM     12  C   UNL     1      45.513   3.441  12.670  0.00  0.00    +0.000 A 
ATOM     13  O   UNL     1      46.477   3.091  13.337  0.00  0.00    +0.000 OA
ATOM     14  C   UNL     1      45.218   4.804  12.264  0.00  0.00    +0.000 A 
ATOM     15  H   UNL     1      44.718   1.577  12.581  0.00  0.00    +0.000 HD
ENDBRANCH   2   5
BRANCH   3  16
ATOM     16  C   UNL     1      49.551   7.266  12.584  0.00  0.00    +0.000 C 
BRANCH  16  17
ATOM     17  C   UNL     1      49.719   8.574  13.396  0.00  0.00    +0.000 C 
BRANCH  17  18
ATOM     18  N   UNL     1      49.533   8.428  14.856  0.00  0.00    +0.000 NA
ATOM     19  C   UNL     1      49.989   9.656  15.563  0.00  0.00    +0.000 C 
ATOM     20  C   UNL     1      51.522   9.838  15.623  0.00  0.00    +0.000 C 
ATOM     21  O   UNL     1      52.190   8.674  16.127  0.00  0.00    +0.000 OA
ATOM     22  C   UNL     1      51.828   7.511  15.369  0.00  0.00    +0.000 C 
ATOM     23  C   UNL     1      50.307   7.299  15.427  0.00  0.00    +0.000 C 
ENDBRANCH  17  18
ENDBRANCH  16  17
ENDBRANCH   3  16
TORSDOF 4
ENDMDL
MODEL 9
REMARK VINA RESULT:    -4.615      2.926      7.209
REMARK INTER + INTRA:          -6.351
REMARK INTER:                  -6.549
REMARK INTRA:                   0.198
REMARK UNBOUND:                -0.657
REMARK  Name = 
REMARK  4 active torsions:
REMARK  status: ('A' for Active; 'I' for Inactive)
REMARK    1  A    between atoms: C_2  and  C_12
REMARK    2  A    between atoms: N_3  and  C_4
REMARK    3  A    between atoms: C_4  and  C_5
REMARK    4  A    between atoms: C_5  and  N_6
REMARK                            x       y       z     vdW  Elec       q    Type
REMARK                         _______ _______ _______ _____ _____    ______ ____
ROOT
ATOM      1  O   UNL     1      46.781   4.605  14.930  0.00  0.00    +0.000 OA
ATOM      2  C   UNL     1      46.858   5.578  14.194  0.00  0.00    +0.000 C 
ATOM      3  N   UNL     1      47.883   6.502  14.279  0.00  0.00    +0.000 N 
ATOM      4  H   UNL     1      47.739   7.401  13.838  0.00  0.00    +0.000 HD
ENDROOT
BRANCH   2   5
ATOM      5  C   UNL     1      45.881   5.825  13.136  0.00  0.00    +0.000 A 
ATOM      6  C   UNL     1      45.416   7.084  12.794  0.00  0.00    +0.000 A 
ATOM      7  S   UNL     1      44.381   7.068  11.433  0.00  0.00    +0.000 S 
ATOM      8  C   UNL     1      44.531   5.379  11.266  0.00  0.00    +0.000 A 
ATOM      9  N   UNL     1      43.905   4.711  10.261  0.00  0.00    +0.000 NA
ATOM     10  C   UNL     1      44.135   3.440  10.246  0.00  0.00    +0.000 A 
ATOM     11  N   UNL     1      44.921   2.775  11.150  0.00  0.00    +0.000 N 
ATOM     12  C   UNL     1      45.492   3.389  12.244  0.00  0.00    +0.000 A 
ATOM     13  O   UNL     1      46.007   2.726  13.134  0.00  0.00    +0.000 OA
ATOM     14  C   UNL     1      45.332   4.833  12.250  0.00  0.00    +0.000 A 
ATOM     15  H   UNL     1      45.011   1.769  11.122  0.00  0.00    +0.000 HD
ENDBRANCH   2   5
BRANCH   3  16
ATOM     16  C   UNL     1      48.830   6.444  15.383  0.00  0.00    +0.000 C 
BRANCH  16  17
ATOM     17  C   UNL     1      49.000   7.785  16.138  0.00  0.00    +0.000 C 
BRANCH  17  18
ATOM     18  N   UNL     1      48.389   7.823  17.485  0.00  0.00    +0.000 NA
ATOM     19  C   UNL     1      48.932   8.964  18.269  0.00  0.00    +0.000 C 
ATOM     20  C   UNL     1      50.384   8.777  18.767  0.00  0.00    +0.000 C 
ATOM     21  O   UNL     1      50.564   7.536  19.464  0.00  0.00    +0.000 OA
ATOM     22  C   UNL     1      50.138   6.431  18.656  0.00  0.00    +0.000 C 
ATOM     23  C   UNL     1      48.659   6.598  18.276  0.00  0.00    +0.000 C 
ENDBRANCH  17  18
ENDBRANCH  16  17
ENDBRANCH   3  16
TORSDOF 4
ENDMDL
