MODEL 1
REMARK VINA RESULT:    -8.846      0.000      0.000
REMARK INTER + INTRA:         -13.024
REMARK INTER:                 -12.208
REMARK INTRA:                  -0.816
REMARK UNBOUND:                -0.816
REMARK  Name = 
REMARK  7 active torsions:
REMARK  status: ('A' for Active; 'I' for Inactive)
REMARK    1  A    between atoms: N_1  and  C_2
REMARK    2  A    between atoms: C_2  and  C_3
REMARK    3  A    between atoms: C_2  and  C_24
REMARK    4  A    between atoms: C_3  and  N_4
REMARK    5  A    between atoms: C_7  and  C_8
REMARK    6  A    between atoms: C_8  and  N_9
REMARK    7  A    between atoms: C_10  and  C_12
REMARK                            x       y       z     vdW  Elec       q    Type
REMARK                         _______ _______ _______ _____ _____    ______ ____
ROOT
ATOM      1  N   UNL     1      44.567   5.157  10.587  0.00  0.00    +0.000 NA
ATOM      2  C   UNL     1      43.780   4.845  11.784  0.00  0.00    +0.000 C 
ATOM      3  C   UNL     1      44.047   5.855  12.898  0.00  0.00    +0.000 C 
ATOM      4  C   UNL     1      45.534   5.939  13.260  0.00  0.00    +0.000 C 
ATOM      5  C   UNL     1      46.330   6.213  11.976  0.00  0.00    +0.000 C 
ATOM      6  C   UNL     1      46.008   5.207  10.863  0.00  0.00    +0.000 C 
ENDROOT
BRANCH   1   7
ATOM      7  C   UNL     1      44.271   4.228   9.473  0.00  0.00    +0.000 C 
BRANCH   7   8
ATOM      8  C   UNL     1      44.906   2.805   9.597  0.00  0.00    +0.000 C 
BRANCH   8   9
ATOM      9  C   UNL     1      45.756   2.517   8.363  0.00  0.00    +0.000 A 
ATOM     10  C   UNL     1      45.901   3.496   7.381  0.00  0.00    +0.000 A 
ATOM     11  C   UNL     1      46.683   3.220   6.264  0.00  0.00    +0.000 A 
ATOM     12  C   UNL     1      47.294   1.978   6.153  0.00  0.00    +0.000 A 
ATOM     13  C   UNL     1      47.096   1.056   7.168  0.00  0.00    +0.000 A 
ATOM     14  N   UNL     1      46.343   1.295   8.265  0.00  0.00    +0.000 NA
ENDBRANCH   8   9
BRANCH   8  15
ATOM     15  N   UNL     1      43.889   1.755   9.831  0.00  0.00    +0.000 NA
ATOM     16  H   UNL     1      43.948   1.090   9.063  0.00  0.00    +0.000 HD
ATOM     17  H   UNL     1      42.979   2.202   9.712  0.00  0.00    +0.000 HD
ENDBRANCH   8  15
ENDBRANCH   7   8
ENDBRANCH   1   7
BRANCH   4  18
ATOM     18  C   UNL     1      46.061   4.671  13.958  0.00  0.00    +0.000 C 
BRANCH  18  19
ATOM     19  N   UNL     1      47.176   4.936  14.836  0.00  0.00    +0.000 N 
ATOM     20  C   UNL     1      47.299   4.381  16.082  0.00  0.00    +0.000 C 
ATOM     21  O   UNL     1      46.462   3.611  16.546  0.00  0.00    +0.000 OA
ATOM     22  H   UNL     1      47.829   5.654  14.542  0.00  0.00    +0.000 HD
BRANCH  20  23
ATOM     23  C   UNL     1      48.529   4.709  16.812  0.00  0.00    +0.000 A 
ATOM     24  C   UNL     1      48.712   5.992  17.308  0.00  0.00    +0.000 A 
ATOM     25  S   UNL     1      50.160   6.184  18.186  0.00  0.00    +0.000 S 
ATOM     26  C   UNL     1      50.617   4.572  17.894  0.00  0.00    +0.000 A 
ATOM     27  N   UNL     1      51.788   4.079  18.377  0.00  0.00    +0.000 NA
ATOM     28  C   UNL     1      52.031   2.851  18.052  0.00  0.00    +0.000 A 
ATOM     29  N   UNL     1      51.203   2.075  17.282  0.00  0.00    +0.000 N 
ATOM     30  C   UNL     1      49.989   2.513  16.812  0.00  0.00    +0.000 A 
ATOM     31  O   UNL     1      49.240   1.762  16.197  0.00  0.00    +0.000 OA
ATOM     32  C   UNL     1      49.677   3.894  17.139  0.00  0.00    +0.000 A 
ATOM     33  H   UNL     1      51.447   1.120  17.068  0.00  0.00    +0.000 HD
ENDBRANCH  20  23
ENDBRANCH  18  19
ENDBRANCH   4  18
TORSDOF 7
ENDMDL
MODEL 2
REMARK VINA RESULT:    -8.841      1.693      2.146
REMARK INTER + INTRA:         -13.016
REMARK INTER:                 -12.070
REMARK INTRA:                  -0.946
REMARK UNBOUND:                -0.816
REMARK  Name = 
REMARK  7 active torsions:
REMARK  status: ('A' for Active; 'I' for Inactive)
REMARK    1  A    between atoms: N_1  and  C_2
REMARK    2  A    between atoms: C_2  and  C_3
REMARK    3  A    between atoms: C_2  and  C_24
REMARK    4  A    between atoms: C_3  and  N_4
REMARK    5  A    between atoms: C_7  and  C_8
REMARK    6  A    between atoms: C_8  and  N_9
REMARK    7  A    between atoms: C_10  and  C_12
REMARK                            x       y       z     vdW  Elec       q    Type
REMARK                         _______ _______ _______ _____ _____    ______ ____
ROOT
ATOM      1  N   UNL     1      44.258   4.889  10.484  0.00  0.00    +0.000 NA
ATOM      2  C   UNL     1      43.728   4.237  11.685  0.00  0.00    +0.000 C 
ATOM      3  C   UNL     1      43.771   5.177  12.888  0.00  0.00    +0.000 C 
ATOM      4  C   UNL     1      45.185   5.701  13.162  0.00  0.00    +0.000 C 
ATOM      5  C   UNL     1      45.728   6.329  11.870  0.00  0.00    +0.000 C 
ATOM      6  C   UNL     1      45.630   5.375  10.673  0.00  0.00    +0.000 C 
ENDROOT
BRANCH   1   7
ATOM      7  C   UNL     1      44.161   4.017   9.292  0.00  0.00    +0.000 C 
BRANCH   7   8
ATOM      8  C   UNL     1      44.880   2.634   9.411  0.00  0.00    +0.000 C 
BRANCH   8   9
ATOM      9  C   UNL     1      45.823   2.446   8.226  0.00  0.00    +0.000 A 
ATOM     10  C   UNL     1      45.974   3.473   7.295  0.00  0.00    +0.000 A 
ATOM     11  C   UNL     1      46.843   3.289   6.224  0.00  0.00    +0.000 A 
ATOM     12  C   UNL     1      47.530   2.088   6.106  0.00  0.00    +0.000 A 
ATOM     13  C   UNL     1      47.321   1.115   7.069  0.00  0.00    +0.000 A 
ATOM     14  N   UNL     1      46.486   1.264   8.121  0.00  0.00    +0.000 NA
ENDBRANCH   8   9
BRANCH   8  15
ATOM     15  N   UNL     1      43.921   1.513   9.543  0.00  0.00    +0.000 NA
ATOM     16  H   UNL     1      43.141   1.839  10.111  0.00  0.00    +0.000 HD
ATOM     17  H   UNL     1      44.379   0.807  10.121  0.00  0.00    +0.000 HD
ENDBRANCH   8  15
ENDBRANCH   7   8
ENDBRANCH   1   7
BRANCH   4  18
ATOM     18  C   UNL     1      46.146   4.614  13.676  0.00  0.00    +0.000 C 
BRANCH  18  19
ATOM     19  N   UNL     1      46.766   4.961  14.933  0.00  0.00    +0.000 N 
ATOM     20  C   UNL     1      47.548   4.092  15.649  0.00  0.00    +0.000 C 
ATOM     21  O   UNL     1      47.779   2.948  15.270  0.00  0.00    +0.000 OA
ATOM     22  H   UNL     1      46.508   5.853  15.340  0.00  0.00    +0.000 HD
BRANCH  20  23
ATOM     23  C   UNL     1      48.151   4.634  16.872  0.00  0.00    +0.000 A 
ATOM     24  C   UNL     1      47.844   4.065  18.100  0.00  0.00    +0.000 A 
ATOM     25  S   UNL     1      48.682   4.768  19.408  0.00  0.00    +0.000 S 
ATOM     26  C   UNL     1      49.449   5.890  18.385  0.00  0.00    +0.000 A 
ATOM     27  N   UNL     1      50.317   6.811  18.883  0.00  0.00    +0.000 NA
ATOM     28  C   UNL     1      50.802   7.625  18.004  0.00  0.00    +0.000 A 
ATOM     29  N   UNL     1      50.491   7.600  16.669  0.00  0.00    +0.000 N 
ATOM     30  C   UNL     1      49.658   6.660  16.111  0.00  0.00    +0.000 A 
ATOM     31  O   UNL     1      49.470   6.619  14.900  0.00  0.00    +0.000 OA
ATOM     32  C   UNL     1      49.076   5.729  17.063  0.00  0.00    +0.000 A 
ATOM     33  H   UNL     1      50.908   8.260  16.031  0.00  0.00    +0.000 HD
ENDBRANCH  20  23
ENDBRANCH  18  19
ENDBRANCH   4  18
TORSDOF 7
ENDMDL
MODEL 3
REMARK VINA RESULT:    -8.372      1.795      2.151
REMARK INTER + INTRA:         -12.370
REMARK INTER:                 -11.853
REMARK INTRA:                  -0.517
REMARK UNBOUND:                -0.816
REMARK  Name = 
REMARK  7 active torsions:
REMARK  status: ('A' for Active; 'I' for Inactive)
REMARK    1  A    between atoms: N_1  and  C_2
REMARK    2  A    between atoms: C_2  and  C_3
REMARK    3  A    between atoms: C_2  and  C_24
REMARK    4  A    between atoms: C_3  and  N_4
REMARK    5  A    between atoms: C_7  and  C_8
REMARK    6  A    between atoms: C_8  and  N_9
REMARK    7  A    between atoms: C_10  and  C_12
REMARK                            x       y       z     vdW  Elec       q    Type
REMARK                         _______ _______ _______ _____ _____    ______ ____
ROOT
ATOM      1  N   UNL     1      44.836   4.494  11.227  0.00  0.00    +0.000 NA
ATOM      2  C   UNL     1      45.138   4.481  12.662  0.00  0.00    +0.000 C 
ATOM      3  C   UNL     1      44.789   5.818  13.311  0.00  0.00    +0.000 C 
ATOM      4  C   UNL     1      45.509   6.993  12.639  0.00  0.00    +0.000 C 
ATOM      5  C   UNL     1      45.213   6.944  11.133  0.00  0.00    +0.000 C 
ATOM      6  C   UNL     1      45.534   5.575  10.520  0.00  0.00    +0.000 C 
ENDROOT
BRANCH   1   7
ATOM      7  C   UNL     1      45.104   3.183  10.593  0.00  0.00    +0.000 C 
BRANCH   7   8
ATOM      8  C   UNL     1      44.495   2.990   9.167  0.00  0.00    +0.000 C 
BRANCH   8   9
ATOM      9  C   UNL     1      45.594   2.568   8.196  0.00  0.00    +0.000 A 
ATOM     10  C   UNL     1      46.010   3.451   7.200  0.00  0.00    +0.000 A 
ATOM     11  C   UNL     1      47.017   3.055   6.325  0.00  0.00    +0.000 A 
ATOM     12  C   UNL     1      47.577   1.791   6.463  0.00  0.00    +0.000 A 
ATOM     13  C   UNL     1      47.104   0.970   7.474  0.00  0.00    +0.000 A 
ATOM     14  N   UNL     1      46.128   1.326   8.339  0.00  0.00    +0.000 NA
ENDBRANCH   8   9
BRANCH   8  15
ATOM     15  N   UNL     1      43.769   4.192   8.699  0.00  0.00    +0.000 NA
ATOM     16  H   UNL     1      42.902   3.880   8.264  0.00  0.00    +0.000 HD
ATOM     17  H   UNL     1      44.315   4.579   7.928  0.00  0.00    +0.000 HD
ENDBRANCH   8  15
ENDBRANCH   7   8
ENDBRANCH   1   7
BRANCH   4  18
ATOM     18  C   UNL     1      47.028   6.997  12.888  0.00  0.00    +0.000 C 
BRANCH  18  19
ATOM     19  N   UNL     1      47.378   6.598  14.232  0.00  0.00    +0.000 N 
ATOM     20  C   UNL     1      48.656   6.655  14.723  0.00  0.00    +0.000 C 
ATOM     21  O   UNL     1      49.603   7.052  14.050  0.00  0.00    +0.000 OA
ATOM     22  H   UNL     1      46.650   6.155  14.782  0.00  0.00    +0.000 HD
BRANCH  20  23
ATOM     23  C   UNL     1      48.818   6.272  16.130  0.00  0.00    +0.000 A 
ATOM     24  C   UNL     1      49.390   7.167  17.024  0.00  0.00    +0.000 A 
ATOM     25  S   UNL     1      49.441   6.593  18.628  0.00  0.00    +0.000 S 
ATOM     26  C   UNL     1      48.744   5.108  18.177  0.00  0.00    +0.000 A 
ATOM     27  N   UNL     1      48.513   4.135  19.098  0.00  0.00    +0.000 NA
ATOM     28  C   UNL     1      48.014   3.044  18.617  0.00  0.00    +0.000 A 
ATOM     29  N   UNL     1      47.729   2.841  17.291  0.00  0.00    +0.000 N 
ATOM     30  C   UNL     1      47.900   3.809  16.332  0.00  0.00    +0.000 A 
ATOM     31  O   UNL     1      47.555   3.617  15.170  0.00  0.00    +0.000 OA
ATOM     32  C   UNL     1      48.473   5.050  16.822  0.00  0.00    +0.000 A 
ATOM     33  H   UNL     1      47.334   1.967  16.978  0.00  0.00    +0.000 HD
ENDBRANCH  20  23
ENDBRANCH  18  19
ENDBRANCH   4  18
TORSDOF 7
ENDMDL
MODEL 4
REMARK VINA RESULT:    -7.844      1.914      2.861
REMARK INTER + INTRA:         -11.641
REMARK INTER:                 -10.675
REMARK INTRA:                  -0.966
REMARK UNBOUND:                -0.816
REMARK  Name = 
REMARK  7 active torsions:
REMARK  status: ('A' for Active; 'I' for Inactive)
REMARK    1  A    between atoms: N_1  and  C_2
REMARK    2  A    between atoms: C_2  and  C_3
REMARK    3  A    between atoms: C_2  and  C_24
REMARK    4  A    between atoms: C_3  and  N_4
REMARK    5  A    between atoms: C_7  and  C_8
REMARK    6  A    between atoms: C_8  and  N_9
REMARK    7  A    between atoms: C_10  and  C_12
REMARK                            x       y       z     vdW  Elec       q    Type
REMARK                         _______ _______ _______ _____ _____    ______ ____
ROOT
ATOM      1  N   UNL     1      45.128   5.518  12.792  0.00  0.00    +0.000 NA
ATOM      2  C   UNL     1      45.626   6.892  12.908  0.00  0.00    +0.000 C 
ATOM      3  C   UNL     1      47.129   6.958  12.642  0.00  0.00    +0.000 C 
ATOM      4  C   UNL     1      47.922   6.037  13.577  0.00  0.00    +0.000 C 
ATOM      5  C   UNL     1      47.340   4.621  13.469  0.00  0.00    +0.000 C 
ATOM      6  C   UNL     1      45.823   4.595  13.698  0.00  0.00    +0.000 C 
ENDROOT
BRANCH   1   7
ATOM      7  C   UNL     1      43.661   5.443  12.979  0.00  0.00    +0.000 C 
BRANCH   7   8
ATOM      8  C   UNL     1      42.822   5.311  11.667  0.00  0.00    +0.000 C 
BRANCH   8   9
ATOM      9  C   UNL     1      43.521   4.351  10.709  0.00  0.00    +0.000 A 
ATOM     10  C   UNL     1      44.126   4.847   9.555  0.00  0.00    +0.000 A 
ATOM     11  C   UNL     1      44.764   3.960   8.694  0.00  0.00    +0.000 A 
ATOM     12  C   UNL     1      44.778   2.606   9.002  0.00  0.00    +0.000 A 
ATOM     13  C   UNL     1      44.149   2.191  10.165  0.00  0.00    +0.000 A 
ATOM     14  N   UNL     1      43.522   3.028  11.021  0.00  0.00    +0.000 NA
ENDBRANCH   8   9
BRANCH   8  15
ATOM     15  N   UNL     1      42.550   6.624  11.041  0.00  0.00    +0.000 NA
ATOM     16  H   UNL     1      41.572   6.636  10.756  0.00  0.00    +0.000 HD
ATOM     17  H   UNL     1      43.071   6.639  10.162  0.00  0.00    +0.000 HD
ENDBRANCH   8  15
ENDBRANCH   7   8
ENDBRANCH   1   7
BRANCH   4  18
ATOM     18  C   UNL     1      47.918   6.510  15.042  0.00  0.00    +0.000 C 
BRANCH  18  19
ATOM     19  N   UNL     1      49.030   5.989  15.802  0.00  0.00    +0.000 N 
ATOM     20  C   UNL     1      48.889   5.047  16.787  0.00  0.00    +0.000 C 
ATOM     21  O   UNL     1      47.799   4.573  17.095  0.00  0.00    +0.000 OA
ATOM     22  H   UNL     1      49.930   6.435  15.662  0.00  0.00    +0.000 HD
BRANCH  20  23
ATOM     23  C   UNL     1      50.134   4.583  17.412  0.00  0.00    +0.000 A 
ATOM     24  C   UNL     1      50.921   5.479  18.122  0.00  0.00    +0.000 A 
ATOM     25  S   UNL     1      52.291   4.764  18.840  0.00  0.00    +0.000 S 
ATOM     26  C   UNL     1      51.908   3.241  18.188  0.00  0.00    +0.000 A 
ATOM     27  N   UNL     1      52.699   2.160  18.421  0.00  0.00    +0.000 NA
ATOM     28  C   UNL     1      52.313   1.073  17.837  0.00  0.00    +0.000 A 
ATOM     29  N   UNL     1      51.204   0.975  17.037  0.00  0.00    +0.000 N 
ATOM     30  C   UNL     1      50.348   2.025  16.811  0.00  0.00    +0.000 A 
ATOM     31  O   UNL     1      49.322   1.875  16.157  0.00  0.00    +0.000 OA
ATOM     32  C   UNL     1      50.747   3.274  17.435  0.00  0.00    +0.000 A 
ATOM     33  H   UNL     1      50.952   0.094  16.614  0.00  0.00    +0.000 HD
ENDBRANCH  20  23
ENDBRANCH  18  19
ENDBRANCH   4  18
TORSDOF 7
ENDMDL
MODEL 5
REMARK VINA RESULT:    -7.761      2.304      2.845
REMARK INTER + INTRA:         -11.527
REMARK INTER:                 -11.244
REMARK INTRA:                  -0.283
REMARK UNBOUND:                -0.816
REMARK  Name = 
REMARK  7 active torsions:
REMARK  status: ('A' for Active; 'I' for Inactive)
REMARK    1  A    between atoms: N_1  and  C_2
REMARK    2  A    between atoms: C_2  and  C_3
REMARK    3  A    between atoms: C_2  and  C_24
REMARK    4  A    between atoms: C_3  and  N_4
REMARK    5  A    between atoms: C_7  and  C_8
REMARK    6  A    between atoms: C_8  and  N_9
REMARK    7  A    between atoms: C_10  and  C_12
REMARK                            x       y       z     vdW  Elec       q    Type
REMARK                         _______ _______ _______ _____ _____    ______ ____
ROOT
ATOM      1  N   UNL     1      44.826   4.583  11.197  0.00  0.00    +0.000 NA
ATOM      2  C   UNL     1      44.930   4.549  12.659  0.00  0.00    +0.000 C 
ATOM      3  C   UNL     1      44.733   5.939  13.259  0.00  0.00    +0.000 C 
ATOM      4  C   UNL     1      45.726   6.960  12.693  0.00  0.00    +0.000 C 
ATOM      5  C   UNL     1      45.628   6.931  11.160  0.00  0.00    +0.000 C 
ATOM      6  C   UNL     1      45.787   5.514  10.592  0.00  0.00    +0.000 C 
ENDROOT
BRANCH   1   7
ATOM      7  C   UNL     1      44.947   3.233  10.601  0.00  0.00    +0.000 C 
BRANCH   7   8
ATOM      8  C   UNL     1      44.401   3.091   9.144  0.00  0.00    +0.000 C 
BRANCH   8   9
ATOM      9  C   UNL     1      45.517   2.601   8.227  0.00  0.00    +0.000 A 
ATOM     10  C   UNL     1      46.007   3.442   7.228  0.00  0.00    +0.000 A 
ATOM     11  C   UNL     1      47.030   2.985   6.402  0.00  0.00    +0.000 A 
ATOM     12  C   UNL     1      47.531   1.703   6.590  0.00  0.00    +0.000 A 
ATOM     13  C   UNL     1      46.986   0.926   7.600  0.00  0.00    +0.000 A 
ATOM     14  N   UNL     1      45.994   1.343   8.418  0.00  0.00    +0.000 NA
ENDBRANCH   8   9
BRANCH   8  15
ATOM     15  N   UNL     1      43.782   4.342   8.651  0.00  0.00    +0.000 NA
ATOM     16  H   UNL     1      43.039   4.087   8.004  0.00  0.00    +0.000 HD
ATOM     17  H   UNL     1      44.483   4.801   8.067  0.00  0.00    +0.000 HD
ENDBRANCH   8  15
ENDBRANCH   7   8
ENDBRANCH   1   7
BRANCH   4  18
ATOM     18  C   UNL     1      47.177   6.709  13.143  0.00  0.00    +0.000 C 
BRANCH  18  19
ATOM     19  N   UNL     1      47.261   6.020  14.409  0.00  0.00    +0.000 N 
ATOM     20  C   UNL     1      48.393   6.001  15.180  0.00  0.00    +0.000 C 
ATOM     21  O   UNL     1      49.427   6.575  14.847  0.00  0.00    +0.000 OA
ATOM     22  H   UNL     1      46.471   5.438  14.666  0.00  0.00    +0.000 HD
BRANCH  20  23
ATOM     23  C   UNL     1      48.280   5.306  16.468  0.00  0.00    +0.000 A 
ATOM     24  C   UNL     1      48.013   3.944  16.492  0.00  0.00    +0.000 A 
ATOM     25  S   UNL     1      47.983   3.282  18.062  0.00  0.00    +0.000 S 
ATOM     26  C   UNL     1      48.277   4.802  18.769  0.00  0.00    +0.000 A 
ATOM     27  N   UNL     1      48.365   4.941  20.118  0.00  0.00    +0.000 NA
ATOM     28  C   UNL     1      48.556   6.153  20.524  0.00  0.00    +0.000 A 
ATOM     29  N   UNL     1      48.663   7.240  19.696  0.00  0.00    +0.000 N 
ATOM     30  C   UNL     1      48.628   7.144  18.326  0.00  0.00    +0.000 A 
ATOM     31  O   UNL     1      48.810   8.128  17.618  0.00  0.00    +0.000 OA
ATOM     32  C   UNL     1      48.401   5.801  17.820  0.00  0.00    +0.000 A 
ATOM     33  H   UNL     1      48.817   8.162  20.075  0.00  0.00    +0.000 HD
ENDBRANCH  20  23
ENDBRANCH  18  19
ENDBRANCH   4  18
TORSDOF 7
ENDMDL
MODEL 6
REMARK VINA RESULT:    -7.020      3.694      4.649
REMARK INTER + INTRA:         -10.503
REMARK INTER:                  -9.540
REMARK INTRA:                  -0.963
REMARK UNBOUND:                -0.816
REMARK  Name = 
REMARK  7 active torsions:
REMARK  status: ('A' for Active; 'I' for Inactive)
REMARK    1  A    between atoms: N_1  and  C_2
REMARK    2  A    between atoms: C_2  and  C_3
REMARK    3  A    between atoms: C_2  and  C_24
REMARK    4  A    between atoms: C_3  and  N_4
REMARK    5  A    between atoms: C_7  and  C_8
REMARK    6  A    between atoms: C_8  and  N_9
REMARK    7  A    between atoms: C_10  and  C_12
REMARK                            x       y       z     vdW  Elec       q    Type
REMARK                         _______ _______ _______ _____ _____    ______ ____
ROOT
ATOM      1  N   UNL     1      44.446   4.323  10.909  0.00  0.00    +0.000 NA
ATOM      2  C   UNL     1      45.783   4.838  11.225  0.00  0.00    +0.000 C 
ATOM      3  C   UNL     1      45.848   5.360  12.658  0.00  0.00    +0.000 C 
ATOM      4  C   UNL     1      44.798   6.443  12.929  0.00  0.00    +0.000 C 
ATOM      5  C   UNL     1      43.420   5.888  12.538  0.00  0.00    +0.000 C 
ATOM      6  C   UNL     1      43.399   5.333  11.108  0.00  0.00    +0.000 C 
ENDROOT
BRANCH   1   7
ATOM      7  C   UNL     1      44.381   3.751   9.546  0.00  0.00    +0.000 C 
BRANCH   7   8
ATOM      8  C   UNL     1      44.987   2.319   9.388  0.00  0.00    +0.000 C 
BRANCH   8   9
ATOM      9  C   UNL     1      45.905   2.285   8.170  0.00  0.00    +0.000 A 
ATOM     10  C   UNL     1      45.896   3.349   7.269  0.00  0.00    +0.000 A 
ATOM     11  C   UNL     1      46.743   3.307   6.166  0.00  0.00    +0.000 A 
ATOM     12  C   UNL     1      47.570   2.205   5.988  0.00  0.00    +0.000 A 
ATOM     13  C   UNL     1      47.516   1.186   6.924  0.00  0.00    +0.000 A 
ATOM     14  N   UNL     1      46.705   1.198   8.005  0.00  0.00    +0.000 NA
ENDBRANCH   8   9
BRANCH   8  15
ATOM     15  N   UNL     1      43.942   1.271   9.328  0.00  0.00    +0.000 NA
ATOM     16  H   UNL     1      43.826   0.895  10.267  0.00  0.00    +0.000 HD
ATOM     17  H   UNL     1      44.338   0.498   8.792  0.00  0.00    +0.000 HD
ENDBRANCH   8  15
ENDBRANCH   7   8
ENDBRANCH   1   7
BRANCH   4  18
ATOM     18  C   UNL     1      45.078   7.760  12.183  0.00  0.00    +0.000 C 
BRANCH  18  19
ATOM     19  N   UNL     1      46.483   8.091  12.138  0.00  0.00    +0.000 N 
ATOM     20  C   UNL     1      46.949   9.379  12.094  0.00  0.00    +0.000 C 
ATOM     21  O   UNL     1      46.200  10.352  12.091  0.00  0.00    +0.000 OA
ATOM     22  H   UNL     1      47.132   7.321  12.022  0.00  0.00    +0.000 HD
BRANCH  20  23
ATOM     23  C   UNL     1      48.409   9.533  12.119  0.00  0.00    +0.000 A 
ATOM     24  C   UNL     1      49.021  10.414  11.239  0.00  0.00    +0.000 A 
ATOM     25  S   UNL     1      50.709  10.523  11.446  0.00  0.00    +0.000 S 
ATOM     26  C   UNL     1      50.688   9.361  12.688  0.00  0.00    +0.000 A 
ATOM     27  N   UNL     1      51.836   8.979  13.309  0.00  0.00    +0.000 NA
ATOM     28  C   UNL     1      51.683   8.063  14.208  0.00  0.00    +0.000 A 
ATOM     29  N   UNL     1      50.481   7.493  14.538  0.00  0.00    +0.000 N 
ATOM     30  C   UNL     1      49.289   7.878  13.973  0.00  0.00    +0.000 A 
ATOM     31  O   UNL     1      48.225   7.403  14.354  0.00  0.00    +0.000 OA
ATOM     32  C   UNL     1      49.410   8.897  12.945  0.00  0.00    +0.000 A 
ATOM     33  H   UNL     1      50.427   6.785  15.254  0.00  0.00    +0.000 HD
ENDBRANCH  20  23
ENDBRANCH  18  19
ENDBRANCH   4  18
TORSDOF 7
ENDMDL
MODEL 7
REMARK VINA RESULT:    -6.984      3.128      4.217
REMARK INTER + INTRA:         -10.454
REMARK INTER:                  -9.424
REMARK INTRA:                  -1.030
REMARK UNBOUND:                -0.816
REMARK  Name = 
REMARK  7 active torsions:
REMARK  status: ('A' for Active; 'I' for Inactive)
REMARK    1  A    between atoms: N_1  and  C_2
REMARK    2  A    between atoms: C_2  and  C_3
REMARK    3  A    between atoms: C_2  and  C_24
REMARK    4  A    between atoms: C_3  and  N_4
REMARK    5  A    between atoms: C_7  and  C_8
REMARK    6  A    between atoms: C_8  and  N_9
REMARK    7  A    between atoms: C_10  and  C_12
REMARK                            x       y       z     vdW  Elec       q    Type
REMARK                         _______ _______ _______ _____ _____    ______ ____
ROOT
ATOM      1  N   UNL     1      46.582   6.280  11.736  0.00  0.00    +0.000 NA
ATOM      2  C   UNL     1      47.545   7.345  11.440  0.00  0.00    +0.000 C 
ATOM      3  C   UNL     1      48.837   7.156  12.230  0.00  0.00    +0.000 C 
ATOM      4  C   UNL     1      48.587   7.087  13.741  0.00  0.00    +0.000 C 
ATOM      5  C   UNL     1      47.537   5.999  14.009  0.00  0.00    +0.000 C 
ATOM      6  C   UNL     1      46.268   6.194  13.168  0.00  0.00    +0.000 C 
ENDROOT
BRANCH   1   7
ATOM      7  C   UNL     1      45.348   6.408  10.929  0.00  0.00    +0.000 C 
BRANCH   7   8
ATOM      8  C   UNL     1      44.465   5.122  10.840  0.00  0.00    +0.000 C 
BRANCH   8   9
ATOM      9  C   UNL     1      45.005   4.208   9.744  0.00  0.00    +0.000 A 
ATOM     10  C   UNL     1      44.821   2.829   9.843  0.00  0.00    +0.000 A 
ATOM     11  C   UNL     1      45.313   2.008   8.833  0.00  0.00    +0.000 A 
ATOM     12  C   UNL     1      45.980   2.582   7.758  0.00  0.00    +0.000 A 
ATOM     13  C   UNL     1      46.128   3.959   7.736  0.00  0.00    +0.000 A 
ATOM     14  N   UNL     1      45.660   4.782   8.701  0.00  0.00    +0.000 NA
ENDBRANCH   8   9
BRANCH   8  15
ATOM     15  N   UNL     1      43.031   5.437  10.647  0.00  0.00    +0.000 NA
ATOM     16  H   UNL     1      42.900   5.700   9.672  0.00  0.00    +0.000 HD
ATOM     17  H   UNL     1      42.851   6.296  11.169  0.00  0.00    +0.000 HD
ENDBRANCH   8  15
ENDBRANCH   7   8
ENDBRANCH   1   7
BRANCH   4  18
ATOM     18  C   UNL     1      48.135   8.430  14.343  0.00  0.00    +0.000 C 
BRANCH  18  19
ATOM     19  N   UNL     1      47.930   8.365  15.771  0.00  0.00    +0.000 N 
ATOM     20  C   UNL     1      48.699   9.054  16.672  0.00  0.00    +0.000 C 
ATOM     21  O   UNL     1      49.624   9.783  16.327  0.00  0.00    +0.000 OA
ATOM     22  H   UNL     1      47.255   7.687  16.106  0.00  0.00    +0.000 HD
BRANCH  20  23
ATOM     23  C   UNL     1      48.308   8.922  18.080  0.00  0.00    +0.000 A 
ATOM     24  C   UNL     1      48.174  10.059  18.865  0.00  0.00    +0.000 A 
ATOM     25  S   UNL     1      47.648   9.733  20.454  0.00  0.00    +0.000 S 
ATOM     26  C   UNL     1      47.627   8.057  20.163  0.00  0.00    +0.000 A 
ATOM     27  N   UNL     1      47.265   7.182  21.139  0.00  0.00    +0.000 NA
ATOM     28  C   UNL     1      47.327   5.937  20.797  0.00  0.00    +0.000 A 
ATOM     29  N   UNL     1      47.724   5.491  19.563  0.00  0.00    +0.000 N 
ATOM     30  C   UNL     1      48.053   6.336  18.531  0.00  0.00    +0.000 A 
ATOM     31  O   UNL     1      48.323   5.901  17.417  0.00  0.00    +0.000 OA
ATOM     32  C   UNL     1      48.013   7.748  18.871  0.00  0.00    +0.000 A 
ATOM     33  H   UNL     1      47.746   4.504  19.356  0.00  0.00    +0.000 HD
ENDBRANCH  20  23
ENDBRANCH  18  19
ENDBRANCH   4  18
TORSDOF 7
ENDMDL
MODEL 8
REMARK VINA RESULT:    -6.960      3.429      8.715
REMARK INTER + INTRA:         -10.420
REMARK INTER:                  -9.544
REMARK INTRA:                  -0.876
REMARK UNBOUND:                -0.816
REMARK  Name = 
REMARK  7 active torsions:
REMARK  status: ('A' for Active; 'I' for Inactive)
REMARK    1  A    between atoms: N_1  and  C_2
REMARK    2  A    between atoms: C_2  and  C_3
REMARK    3  A    between atoms: C_2  and  C_24
REMARK    4  A    between atoms: C_3  and  N_4
REMARK    5  A    between atoms: C_7  and  C_8
REMARK    6  A    between atoms: C_8  and  N_9
REMARK    7  A    between atoms: C_10  and  C_12
REMARK                            x       y       z     vdW  Elec       q    Type
REMARK                         _______ _______ _______ _____ _____    ______ ____
ROOT
ATOM      1  N   UNL     1      49.256   7.898  14.791  0.00  0.00    +0.000 NA
ATOM      2  C   UNL     1      48.740   6.744  14.048  0.00  0.00    +0.000 C 
ATOM      3  C   UNL     1      48.899   6.942  12.542  0.00  0.00    +0.000 C 
ATOM      4  C   UNL     1      48.214   8.223  12.052  0.00  0.00    +0.000 C 
ATOM      5  C   UNL     1      48.738   9.401  12.887  0.00  0.00    +0.000 C 
ATOM      6  C   UNL     1      48.604   9.152  14.395  0.00  0.00    +0.000 C 
ENDROOT
BRANCH   1   7
ATOM      7  C   UNL     1      49.173   7.695  16.256  0.00  0.00    +0.000 C 
BRANCH   7   8
ATOM      8  C   UNL     1      50.098   6.575  16.833  0.00  0.00    +0.000 C 
BRANCH   8   9
ATOM      9  C   UNL     1      49.271   5.322  17.107  0.00  0.00    +0.000 A 
ATOM     10  C   UNL     1      47.930   5.447  17.470  0.00  0.00    +0.000 A 
ATOM     11  C   UNL     1      47.187   4.295  17.711  0.00  0.00    +0.000 A 
ATOM     12  C   UNL     1      47.800   3.055  17.590  0.00  0.00    +0.000 A 
ATOM     13  C   UNL     1      49.137   3.015  17.231  0.00  0.00    +0.000 A 
ATOM     14  N   UNL     1      49.885   4.115  16.990  0.00  0.00    +0.000 NA
ENDBRANCH   8   9
BRANCH   8  15
ATOM     15  N   UNL     1      50.843   7.024  18.031  0.00  0.00    +0.000 NA
ATOM     16  H   UNL     1      51.156   7.978  17.861  0.00  0.00    +0.000 HD
ATOM     17  H   UNL     1      51.703   6.475  18.060  0.00  0.00    +0.000 HD
ENDBRANCH   8  15
ENDBRANCH   7   8
ENDBRANCH   1   7
BRANCH   4  18
ATOM     18  C   UNL     1      46.678   8.156  12.123  0.00  0.00    +0.000 C 
BRANCH  18  19
ATOM     19  N   UNL     1      46.163   6.826  11.896  0.00  0.00    +0.000 N 
ATOM     20  C   UNL     1      44.866   6.576  11.533  0.00  0.00    +0.000 C 
ATOM     21  O   UNL     1      44.041   7.471  11.374  0.00  0.00    +0.000 OA
ATOM     22  H   UNL     1      46.776   6.052  12.128  0.00  0.00    +0.000 HD
BRANCH  20  23
ATOM     23  C   UNL     1      44.532   5.169  11.280  0.00  0.00    +0.000 A 
ATOM     24  C   UNL     1      43.764   4.469  12.200  0.00  0.00    +0.000 A 
ATOM     25  S   UNL     1      43.411   2.872  11.720  0.00  0.00    +0.000 S 
ATOM     26  C   UNL     1      44.314   3.043  10.288  0.00  0.00    +0.000 A 
ATOM     27  N   UNL     1      44.428   2.016   9.405  0.00  0.00    +0.000 NA
ATOM     28  C   UNL     1      45.170   2.267   8.377  0.00  0.00    +0.000 A 
ATOM     29  N   UNL     1      45.811   3.459   8.157  0.00  0.00    +0.000 N 
ATOM     30  C   UNL     1      45.688   4.541   8.994  0.00  0.00    +0.000 A 
ATOM     31  O   UNL     1      46.210   5.617   8.720  0.00  0.00    +0.000 OA
ATOM     32  C   UNL     1      44.874   4.303  10.174  0.00  0.00    +0.000 A 
ATOM     33  H   UNL     1      46.373   3.596   7.331  0.00  0.00    +0.000 HD
ENDBRANCH  20  23
ENDBRANCH  18  19
ENDBRANCH   4  18
TORSDOF 7
ENDMDL
MODEL 9
REMARK VINA RESULT:    -6.699      3.283      9.744
REMARK INTER + INTRA:         -10.061
REMARK INTER:                  -9.137
REMARK INTRA:                  -0.924
REMARK UNBOUND:                -0.816
REMARK  Name = 
REMARK  7 active torsions:
REMARK  status: ('A' for Active; 'I' for Inactive)
REMARK    1  A    between atoms: N_1  and  C_2
REMARK    2  A    between atoms: C_2  and  C_3
REMARK    3  A    between atoms: C_2  and  C_24
REMARK    4  A    between atoms: C_3  and  N_4
REMARK    5  A    between atoms: C_7  and  C_8
REMARK    6  A    between atoms: C_8  and  N_9
REMARK    7  A    between atoms: C_10  and  C_12
REMARK                            x       y       z     vdW  Elec       q    Type
REMARK                         _______ _______ _______ _____ _____    ______ ____
ROOT
ATOM      1  N   UNL     1      49.192   4.520  19.558  0.00  0.00    +0.000 NA
ATOM      2  C   UNL     1      48.544   5.725  19.031  0.00  0.00    +0.000 C 
ATOM      3  C   UNL     1      47.155   5.408  18.481  0.00  0.00    +0.000 C 
ATOM      4  C   UNL     1      47.194   4.324  17.398  0.00  0.00    +0.000 C 
ATOM      5  C   UNL     1      47.926   3.099  17.967  0.00  0.00    +0.000 C 
ATOM      6  C   UNL     1      49.299   3.458  18.550  0.00  0.00    +0.000 C 
ENDROOT
BRANCH   1   7
ATOM      7  C   UNL     1      50.513   4.819  20.157  0.00  0.00    +0.000 C 
BRANCH   7   8
ATOM      8  C   UNL     1      51.672   5.068  19.139  0.00  0.00    +0.000 C 
BRANCH   8   9
ATOM      9  C   UNL     1      52.740   3.991  19.309  0.00  0.00    +0.000 A 
ATOM     10  C   UNL     1      52.995   3.101  18.266  0.00  0.00    +0.000 A 
ATOM     11  C   UNL     1      53.975   2.128  18.434  0.00  0.00    +0.000 A 
ATOM     12  C   UNL     1      54.669   2.065  19.636  0.00  0.00    +0.000 A 
ATOM     13  C   UNL     1      54.353   2.981  20.626  0.00  0.00    +0.000 A 
ATOM     14  N   UNL     1      53.407   3.937  20.492  0.00  0.00    +0.000 NA
ENDBRANCH   8   9
BRANCH   8  15
ATOM     15  N   UNL     1      52.234   6.433  19.251  0.00  0.00    +0.000 NA
ATOM     16  H   UNL     1      51.648   6.957  19.898  0.00  0.00    +0.000 HD
ATOM     17  H   UNL     1      52.082   6.884  18.348  0.00  0.00    +0.000 HD
ENDBRANCH   8  15
ENDBRANCH   7   8
ENDBRANCH   1   7
BRANCH   4  18
ATOM     18  C   UNL     1      47.865   4.793  16.094  0.00  0.00    +0.000 C 
BRANCH  18  19
ATOM     19  N   UNL     1      46.913   5.094  15.050  0.00  0.00    +0.000 N 
ATOM     20  C   UNL     1      47.251   5.745  13.893  0.00  0.00    +0.000 C 
ATOM     21  O   UNL     1      48.396   6.122  13.658  0.00  0.00    +0.000 OA
ATOM     22  H   UNL     1      45.938   4.906  15.252  0.00  0.00    +0.000 HD
BRANCH  20  23
ATOM     23  C   UNL     1      46.171   5.910  12.913  0.00  0.00    +0.000 A 
ATOM     24  C   UNL     1      45.797   7.184  12.510  0.00  0.00    +0.000 A 
ATOM     25  S   UNL     1      44.578   7.194  11.319  0.00  0.00    +0.000 S 
ATOM     26  C   UNL     1      44.472   5.496  11.334  0.00  0.00    +0.000 A 
ATOM     27  N   UNL     1      43.593   4.843  10.529  0.00  0.00    +0.000 NA
ATOM     28  C   UNL     1      43.589   3.557  10.665  0.00  0.00    +0.000 A 
ATOM     29  N   UNL     1      44.388   2.869  11.541  0.00  0.00    +0.000 N 
ATOM     30  C   UNL     1      45.325   3.479  12.339  0.00  0.00    +0.000 A 
ATOM     31  O   UNL     1      46.078   2.821  13.049  0.00  0.00    +0.000 OA
ATOM     32  C   UNL     1      45.357   4.928  12.232  0.00  0.00    +0.000 A 
ATOM     33  H   UNL     1      44.342   1.862  11.596  0.00  0.00    +0.000 HD
ENDBRANCH  20  23
ENDBRANCH  18  19
ENDBRANCH   4  18
TORSDOF 7
ENDMDL
