MODEL 1
REMARK VINA RESULT:    -6.916      0.000      0.000
REMARK INTER + INTRA:          -9.333
REMARK INTER:                  -9.139
REMARK INTRA:                  -0.194
REMARK UNBOUND:                -0.194
REMARK  Name = 
REMARK  8 active torsions:
REMARK  status: ('A' for Active; 'I' for Inactive)
REMARK    1  A    between atoms: C_1  and  N_2
REMARK    2  A    between atoms: N_2  and  C_3
REMARK    3  A    between atoms: N_2  and  C_4
REMARK    4  A    between atoms: C_4  and  C_5
REMARK    5  A    between atoms: C_8  and  C_9
REMARK    6  A    between atoms: C_9  and  N_10
REMARK    7  A    between atoms: CA_15  and  C_16
REMARK    8  A    between atoms: C_16  and  O_17
REMARK                            x       y       z     vdW  Elec       q    Type
REMARK                         _______ _______ _______ _____ _____    ______ ____
ROOT
ATOM      1  C   UNL     1      43.097   4.493  12.033  0.00  0.00    +0.000 C 
ENDROOT
BRANCH   1   2
ATOM      2  N   UNL     1      43.807   4.097  13.235  0.00  0.00    +0.000 N 
ATOM      3  C   UNL     1      45.025   4.720  13.432  0.00  0.00    +0.000 A 
ATOM      4  N   UNL     1      45.950   3.997  14.072  0.00  0.00    +0.000 NA
ATOM      5  C   UNL     1      47.130   4.596  14.318  0.00  0.00    +0.000 A 
ATOM      6  C   UNL     1      47.425   5.879  13.935  0.00  0.00    +0.000 A 
ATOM      7  CA  UNL     1      46.426   6.545  13.256  0.00  0.00    +0.000 A 
ATOM      8  N   UNL     1      45.226   5.976  13.001  0.00  0.00    +0.000 NA
ATOM      9  H   UNL     1      43.940   3.104  13.371  0.00  0.00    +0.000 HD
BRANCH   7  10
ATOM     10  C   UNL     1      46.638   7.964  12.793  0.00  0.00    +0.000 C 
BRANCH  10  11
ATOM     11  O   UNL     1      46.204   8.893  13.782  0.00  0.00    +0.000 OA
ATOM     12  H   UNL     1      46.827   9.640  13.741  0.00  0.00    +0.000 HD
ENDBRANCH  10  11
ENDBRANCH   7  10
ENDBRANCH   1   2
BRANCH   1  16
ATOM     13  C   UNL     1      45.112   3.125   8.505  0.00  0.00    +0.000 A 
ATOM     14  C   UNL     1      45.064   4.494   8.776  0.00  0.00    +0.000 A 
ATOM     15  C   UNL     1      44.428   4.954   9.928  0.00  0.00    +0.000 A 
ATOM     16  C   UNL     1      43.827   4.029  10.784  0.00  0.00    +0.000 A 
ATOM     17  N   UNL     1      43.864   2.695  10.538  0.00  0.00    +0.000 NA
ATOM     18  C   UNL     1      44.502   2.278   9.421  0.00  0.00    +0.000 A 
BRANCH  13  19
ATOM     19  C   UNL     1      45.782   2.575   7.271  0.00  0.00    +0.000 C 
BRANCH  19  21
ATOM     20  C   UNL     1      46.874   0.416   7.495  0.00  0.00    +0.000 C 
ATOM     21  N   UNL     1      47.048   1.871   7.543  0.00  0.00    +0.000 NA
ATOM     22  C   UNL     1      48.066   2.277   6.571  0.00  0.00    +0.000 C 
ENDBRANCH  19  21
ENDBRANCH  13  19
ENDBRANCH   1  16
TORSDOF 6
ENDMDL
MODEL 2
REMARK VINA RESULT:    -6.626      2.994      6.773
REMARK INTER + INTRA:          -8.950
REMARK INTER:                  -8.637
REMARK INTRA:                  -0.313
REMARK UNBOUND:                -0.194
REMARK  Name = 
REMARK  8 active torsions:
REMARK  status: ('A' for Active; 'I' for Inactive)
REMARK    1  A    between atoms: C_1  and  N_2
REMARK    2  A    between atoms: N_2  and  C_3
REMARK    3  A    between atoms: N_2  and  C_4
REMARK    4  A    between atoms: C_4  and  C_5
REMARK    5  A    between atoms: C_8  and  C_9
REMARK    6  A    between atoms: C_9  and  N_10
REMARK    7  A    between atoms: CA_15  and  C_16
REMARK    8  A    between atoms: C_16  and  O_17
REMARK                            x       y       z     vdW  Elec       q    Type
REMARK                         _______ _______ _______ _____ _____    ______ ____
ROOT
ATOM      1  C   UNL     1      43.882   3.944  10.907  0.00  0.00    +0.000 C 
ENDROOT
BRANCH   1   2
ATOM      2  N   UNL     1      44.223   4.601   9.659  0.00  0.00    +0.000 N 
ATOM      3  C   UNL     1      45.142   3.930   8.872  0.00  0.00    +0.000 A 
ATOM      4  N   UNL     1      45.937   4.702   8.124  0.00  0.00    +0.000 NA
ATOM      5  C   UNL     1      46.810   4.074   7.314  0.00  0.00    +0.000 A 
ATOM      6  C   UNL     1      46.929   2.710   7.238  0.00  0.00    +0.000 A 
ATOM      7  CA  UNL     1      46.091   1.989   8.063  0.00  0.00    +0.000 A 
ATOM      8  N   UNL     1      45.196   2.589   8.882  0.00  0.00    +0.000 NA
ATOM      9  H   UNL     1      44.515   5.567   9.724  0.00  0.00    +0.000 HD
BRANCH   7  10
ATOM     10  C   UNL     1      46.130   0.482   8.058  0.00  0.00    +0.000 C 
BRANCH  10  11
ATOM     11  O   UNL     1      47.453   0.008   7.823  0.00  0.00    +0.000 OA
ATOM     12  H   UNL     1      47.387  -0.962   7.781  0.00  0.00    +0.000 HD
ENDBRANCH  10  11
ENDBRANCH   7  10
ENDBRANCH   1   2
BRANCH   1  16
ATOM     13  C   UNL     1      46.787   4.777  13.948  0.00  0.00    +0.000 A 
ATOM     14  C   UNL     1      46.078   5.834  13.372  0.00  0.00    +0.000 A 
ATOM     15  C   UNL     1      45.117   5.578  12.395  0.00  0.00    +0.000 A 
ATOM     16  C   UNL     1      44.898   4.261  11.991  0.00  0.00    +0.000 A 
ATOM     17  N   UNL     1      45.575   3.220  12.539  0.00  0.00    +0.000 NA
ATOM     18  C   UNL     1      46.489   3.497  13.496  0.00  0.00    +0.000 A 
BRANCH  13  19
ATOM     19  C   UNL     1      47.840   4.999  15.004  0.00  0.00    +0.000 C 
BRANCH  19  21
ATOM     20  C   UNL     1      47.866   3.130  16.557  0.00  0.00    +0.000 C 
ATOM     21  N   UNL     1      47.451   4.520  16.343  0.00  0.00    +0.000 NA
ATOM     22  C   UNL     1      48.047   5.376  17.372  0.00  0.00    +0.000 C 
ENDBRANCH  19  21
ENDBRANCH  13  19
ENDBRANCH   1  16
TORSDOF 6
ENDMDL
MODEL 3
REMARK VINA RESULT:    -6.447      2.901      3.956
REMARK INTER + INTRA:          -8.714
REMARK INTER:                  -8.999
REMARK INTRA:                   0.286
REMARK UNBOUND:                -0.194
REMARK  Name = 
REMARK  8 active torsions:
REMARK  status: ('A' for Active; 'I' for Inactive)
REMARK    1  A    between atoms: C_1  and  N_2
REMARK    2  A    between atoms: N_2  and  C_3
REMARK    3  A    between atoms: N_2  and  C_4
REMARK    4  A    between atoms: C_4  and  C_5
REMARK    5  A    between atoms: C_8  and  C_9
REMARK    6  A    between atoms: C_9  and  N_10
REMARK    7  A    between atoms: CA_15  and  C_16
REMARK    8  A    between atoms: C_16  and  O_17
REMARK                            x       y       z     vdW  Elec       q    Type
REMARK                         _______ _______ _______ _____ _____    ______ ____
ROOT
ATOM      1  C   UNL     1      46.505   4.722  14.212  0.00  0.00    +0.000 C 
ENDROOT
BRANCH   1   2
ATOM      2  N   UNL     1      47.006   3.454  14.708  0.00  0.00    +0.000 N 
ATOM      3  C   UNL     1      47.697   3.521  15.903  0.00  0.00    +0.000 A 
ATOM      4  N   UNL     1      48.670   2.618  16.063  0.00  0.00    +0.000 NA
ATOM      5  C   UNL     1      49.329   2.630  17.237  0.00  0.00    +0.000 A 
ATOM      6  C   UNL     1      49.064   3.521  18.246  0.00  0.00    +0.000 A 
ATOM      7  CA  UNL     1      48.064   4.435  17.989  0.00  0.00    +0.000 A 
ATOM      8  N   UNL     1      47.377   4.444  16.824  0.00  0.00    +0.000 NA
ATOM      9  H   UNL     1      47.555   2.904  14.061  0.00  0.00    +0.000 HD
BRANCH   7  10
ATOM     10  C   UNL     1      47.684   5.457  19.031  0.00  0.00    +0.000 C 
BRANCH  10  11
ATOM     11  O   UNL     1      46.275   5.469  19.242  0.00  0.00    +0.000 OA
ATOM     12  H   UNL     1      45.893   5.925  18.471  0.00  0.00    +0.000 HD
ENDBRANCH  10  11
ENDBRANCH   7  10
ENDBRANCH   1   2
BRANCH   1  16
ATOM     13  C   UNL     1      44.899   4.285  10.260  0.00  0.00    +0.000 A 
ATOM     14  C   UNL     1      45.528   5.482  10.614  0.00  0.00    +0.000 A 
ATOM     15  C   UNL     1      46.071   5.633  11.889  0.00  0.00    +0.000 A 
ATOM     16  C   UNL     1      45.954   4.584  12.802  0.00  0.00    +0.000 A 
ATOM     17  N   UNL     1      45.348   3.414  12.478  0.00  0.00    +0.000 NA
ATOM     18  C   UNL     1      44.845   3.291  11.229  0.00  0.00    +0.000 A 
BRANCH  13  19
ATOM     19  C   UNL     1      44.291   4.072   8.897  0.00  0.00    +0.000 C 
BRANCH  19  21
ATOM     20  C   UNL     1      46.357   3.948   7.622  0.00  0.00    +0.000 C 
ATOM     21  N   UNL     1      45.121   3.252   7.996  0.00  0.00    +0.000 NA
ATOM     22  C   UNL     1      45.449   1.978   8.640  0.00  0.00    +0.000 C 
ENDBRANCH  19  21
ENDBRANCH  13  19
ENDBRANCH   1  16
TORSDOF 6
ENDMDL
MODEL 4
REMARK VINA RESULT:    -6.432      2.548      3.478
REMARK INTER + INTRA:          -8.695
REMARK INTER:                  -8.317
REMARK INTRA:                  -0.378
REMARK UNBOUND:                -0.194
REMARK  Name = 
REMARK  8 active torsions:
REMARK  status: ('A' for Active; 'I' for Inactive)
REMARK    1  A    between atoms: C_1  and  N_2
REMARK    2  A    between atoms: N_2  and  C_3
REMARK    3  A    between atoms: N_2  and  C_4
REMARK    4  A    between atoms: C_4  and  C_5
REMARK    5  A    between atoms: C_8  and  C_9
REMARK    6  A    between atoms: C_9  and  N_10
REMARK    7  A    between atoms: CA_15  and  C_16
REMARK    8  A    between atoms: C_16  and  O_17
REMARK                            x       y       z     vdW  Elec       q    Type
REMARK                         _______ _______ _______ _____ _____    ______ ____
ROOT
ATOM      1  C   UNL     1      45.600   5.362  13.365  0.00  0.00    +0.000 C 
ENDROOT
BRANCH   1   2
ATOM      2  N   UNL     1      46.901   5.979  13.542  0.00  0.00    +0.000 N 
ATOM      3  C   UNL     1      47.536   5.683  14.734  0.00  0.00    +0.000 A 
ATOM      4  N   UNL     1      48.332   6.641  15.221  0.00  0.00    +0.000 NA
ATOM      5  C   UNL     1      48.999   6.361  16.357  0.00  0.00    +0.000 A 
ATOM      6  C   UNL     1      48.887   5.171  17.029  0.00  0.00    +0.000 A 
ATOM      7  CA  UNL     1      48.025   4.248  16.473  0.00  0.00    +0.000 A 
ATOM      8  N   UNL     1      47.347   4.494  15.329  0.00  0.00    +0.000 NA
ATOM      9  H   UNL     1      46.946   6.980  13.406  0.00  0.00    +0.000 HD
BRANCH   7  10
ATOM     10  C   UNL     1      47.830   2.902  17.125  0.00  0.00    +0.000 C 
BRANCH  10  11
ATOM     11  O   UNL     1      46.522   2.789  17.677  0.00  0.00    +0.000 OA
ATOM     12  H   UNL     1      46.615   2.972  18.628  0.00  0.00    +0.000 HD
ENDBRANCH  10  11
ENDBRANCH   7  10
ENDBRANCH   1   2
BRANCH   1  16
ATOM     13  C   UNL     1      45.227   3.779   9.398  0.00  0.00    +0.000 A 
ATOM     14  C   UNL     1      44.881   2.978  10.489  0.00  0.00    +0.000 A 
ATOM     15  C   UNL     1      44.980   3.484  11.784  0.00  0.00    +0.000 A 
ATOM     16  C   UNL     1      45.448   4.786  11.968  0.00  0.00    +0.000 A 
ATOM     17  N   UNL     1      45.789   5.580  10.921  0.00  0.00    +0.000 NA
ATOM     18  C   UNL     1      45.667   5.067   9.676  0.00  0.00    +0.000 A 
BRANCH  13  19
ATOM     19  C   UNL     1      45.144   3.279   7.978  0.00  0.00    +0.000 C 
BRANCH  19  21
ATOM     20  C   UNL     1      46.609   1.359   7.701  0.00  0.00    +0.000 C 
ATOM     21  N   UNL     1      46.428   2.791   7.443  0.00  0.00    +0.000 NA
ATOM     22  C   UNL     1      46.497   3.044   6.001  0.00  0.00    +0.000 C 
ENDBRANCH  19  21
ENDBRANCH  13  19
ENDBRANCH   1  16
TORSDOF 6
ENDMDL
MODEL 5
REMARK VINA RESULT:    -6.275      3.394      4.816
REMARK INTER + INTRA:          -8.487
REMARK INTER:                  -8.115
REMARK INTRA:                  -0.372
REMARK UNBOUND:                -0.194
REMARK  Name = 
REMARK  8 active torsions:
REMARK  status: ('A' for Active; 'I' for Inactive)
REMARK    1  A    between atoms: C_1  and  N_2
REMARK    2  A    between atoms: N_2  and  C_3
REMARK    3  A    between atoms: N_2  and  C_4
REMARK    4  A    between atoms: C_4  and  C_5
REMARK    5  A    between atoms: C_8  and  C_9
REMARK    6  A    between atoms: C_9  and  N_10
REMARK    7  A    between atoms: CA_15  and  C_16
REMARK    8  A    between atoms: C_16  and  O_17
REMARK                            x       y       z     vdW  Elec       q    Type
REMARK                         _______ _______ _______ _____ _____    ______ ____
ROOT
ATOM      1  C   UNL     1      47.206   4.625  15.339  0.00  0.00    +0.000 C 
ENDROOT
BRANCH   1   2
ATOM      2  N   UNL     1      47.495   3.298  15.852  0.00  0.00    +0.000 N 
ATOM      3  C   UNL     1      48.747   3.146  16.419  0.00  0.00    +0.000 A 
ATOM      4  N   UNL     1      49.292   1.930  16.305  0.00  0.00    +0.000 NA
ATOM      5  C   UNL     1      50.490   1.741  16.889  0.00  0.00    +0.000 A 
ATOM      6  C   UNL     1      51.169   2.723  17.564  0.00  0.00    +0.000 A 
ATOM      7  CA  UNL     1      50.549   3.954  17.611  0.00  0.00    +0.000 A 
ATOM      8  N   UNL     1      49.341   4.175  17.043  0.00  0.00    +0.000 NA
ATOM      9  H   UNL     1      47.347   2.528  15.213  0.00  0.00    +0.000 HD
BRANCH   7  10
ATOM     10  C   UNL     1      51.201   5.106  18.334  0.00  0.00    +0.000 C 
BRANCH  10  11
ATOM     11  O   UNL     1      50.868   6.347  17.718  0.00  0.00    +0.000 OA
ATOM     12  H   UNL     1      51.290   7.037  18.261  0.00  0.00    +0.000 HD
ENDBRANCH  10  11
ENDBRANCH   7  10
ENDBRANCH   1   2
BRANCH   1  16
ATOM     13  C   UNL     1      45.289   4.370  11.513  0.00  0.00    +0.000 A 
ATOM     14  C   UNL     1      45.689   5.619  11.995  0.00  0.00    +0.000 A 
ATOM     15  C   UNL     1      46.330   5.716  13.229  0.00  0.00    +0.000 A 
ATOM     16  C   UNL     1      46.540   4.556  13.976  0.00  0.00    +0.000 A 
ATOM     17  N   UNL     1      46.159   3.333  13.525  0.00  0.00    +0.000 NA
ATOM     18  C   UNL     1      45.554   3.269  12.317  0.00  0.00    +0.000 A 
BRANCH  13  19
ATOM     19  C   UNL     1      44.588   4.210  10.188  0.00  0.00    +0.000 C 
BRANCH  19  21
ATOM     20  C   UNL     1      44.504   2.072   9.033  0.00  0.00    +0.000 C 
ATOM     21  N   UNL     1      45.276   3.299   9.256  0.00  0.00    +0.000 NA
ATOM     22  C   UNL     1      45.507   3.974   7.976  0.00  0.00    +0.000 C 
ENDBRANCH  19  21
ENDBRANCH  13  19
ENDBRANCH   1  16
TORSDOF 6
ENDMDL
MODEL 6
REMARK VINA RESULT:    -5.916      3.503      5.740
REMARK INTER + INTRA:          -8.012
REMARK INTER:                  -7.560
REMARK INTRA:                  -0.453
REMARK UNBOUND:                -0.194
REMARK  Name = 
REMARK  8 active torsions:
REMARK  status: ('A' for Active; 'I' for Inactive)
REMARK    1  A    between atoms: C_1  and  N_2
REMARK    2  A    between atoms: N_2  and  C_3
REMARK    3  A    between atoms: N_2  and  C_4
REMARK    4  A    between atoms: C_4  and  C_5
REMARK    5  A    between atoms: C_8  and  C_9
REMARK    6  A    between atoms: C_9  and  N_10
REMARK    7  A    between atoms: CA_15  and  C_16
REMARK    8  A    between atoms: C_16  and  O_17
REMARK                            x       y       z     vdW  Elec       q    Type
REMARK                         _______ _______ _______ _____ _____    ______ ____
ROOT
ATOM      1  C   UNL     1      49.049   6.657  14.769  0.00  0.00    +0.000 C 
ENDROOT
BRANCH   1   2
ATOM      2  N   UNL     1      48.710   6.884  16.161  0.00  0.00    +0.000 N 
ATOM      3  C   UNL     1      48.678   5.750  16.952  0.00  0.00    +0.000 A 
ATOM      4  N   UNL     1      47.807   5.773  17.966  0.00  0.00    +0.000 NA
ATOM      5  C   UNL     1      47.788   4.701  18.780  0.00  0.00    +0.000 A 
ATOM      6  C   UNL     1      48.593   3.604  18.608  0.00  0.00    +0.000 A 
ATOM      7  CA  UNL     1      49.444   3.650  17.524  0.00  0.00    +0.000 A 
ATOM      8  N   UNL     1      49.494   4.715  16.692  0.00  0.00    +0.000 NA
ATOM      9  H   UNL     1      47.864   7.409  16.338  0.00  0.00    +0.000 HD
BRANCH   7  10
ATOM     10  C   UNL     1      50.380   2.501  17.243  0.00  0.00    +0.000 C 
BRANCH  10  11
ATOM     11  O   UNL     1      49.955   1.767  16.099  0.00  0.00    +0.000 OA
ATOM     12  H   UNL     1      50.705   1.777  15.479  0.00  0.00    +0.000 HD
ENDBRANCH  10  11
ENDBRANCH   7  10
ENDBRANCH   1   2
BRANCH   1  16
ATOM     13  C   UNL     1      45.544   5.735  12.478  0.00  0.00    +0.000 A 
ATOM     14  C   UNL     1      45.935   7.068  12.622  0.00  0.00    +0.000 A 
ATOM     15  C   UNL     1      47.082   7.383  13.349  0.00  0.00    +0.000 A 
ATOM     16  C   UNL     1      47.811   6.352  13.942  0.00  0.00    +0.000 A 
ATOM     17  N   UNL     1      47.448   5.050  13.814  0.00  0.00    +0.000 NA
ATOM     18  C   UNL     1      46.340   4.774  13.090  0.00  0.00    +0.000 A 
BRANCH  13  19
ATOM     19  C   UNL     1      44.309   5.341  11.708  0.00  0.00    +0.000 C 
BRANCH  19  21
ATOM     20  C   UNL     1      43.335   3.115  11.620  0.00  0.00    +0.000 C 
ATOM     21  N   UNL     1      44.387   3.998  11.104  0.00  0.00    +0.000 NA
ATOM     22  C   UNL     1      44.274   4.097   9.647  0.00  0.00    +0.000 C 
ENDBRANCH  19  21
ENDBRANCH  13  19
ENDBRANCH   1  16
TORSDOF 6
ENDMDL
MODEL 7
REMARK VINA RESULT:    -5.856      3.667      8.178
REMARK INTER + INTRA:          -7.934
REMARK INTER:                  -7.592
REMARK INTRA:                  -0.342
REMARK UNBOUND:                -0.194
REMARK  Name = 
REMARK  8 active torsions:
REMARK  status: ('A' for Active; 'I' for Inactive)
REMARK    1  A    between atoms: C_1  and  N_2
REMARK    2  A    between atoms: N_2  and  C_3
REMARK    3  A    between atoms: N_2  and  C_4
REMARK    4  A    between atoms: C_4  and  C_5
REMARK    5  A    between atoms: C_8  and  C_9
REMARK    6  A    between atoms: C_9  and  N_10
REMARK    7  A    between atoms: CA_15  and  C_16
REMARK    8  A    between atoms: C_16  and  O_17
REMARK                            x       y       z     vdW  Elec       q    Type
REMARK                         _______ _______ _______ _____ _____    ______ ____
ROOT
ATOM      1  C   UNL     1      46.790   4.284  13.913  0.00  0.00    +0.000 C 
ENDROOT
BRANCH   1   2
ATOM      2  N   UNL     1      45.343   4.276  14.018  0.00  0.00    +0.000 N 
ATOM      3  C   UNL     1      44.667   4.607  12.857  0.00  0.00    +0.000 A 
ATOM      4  N   UNL     1      43.492   5.224  13.026  0.00  0.00    +0.000 NA
ATOM      5  C   UNL     1      42.791   5.515  11.914  0.00  0.00    +0.000 A 
ATOM      6  C   UNL     1      43.227   5.230  10.645  0.00  0.00    +0.000 A 
ATOM      7  CA  UNL     1      44.459   4.617  10.560  0.00  0.00    +0.000 A 
ATOM      8  N   UNL     1      45.185   4.303  11.657  0.00  0.00    +0.000 NA
ATOM      9  H   UNL     1      44.944   4.816  14.774  0.00  0.00    +0.000 HD
BRANCH   7  10
ATOM     10  C   UNL     1      45.034   4.251   9.215  0.00  0.00    +0.000 C 
BRANCH  10  11
ATOM     11  O   UNL     1      45.675   5.371   8.613  0.00  0.00    +0.000 OA
ATOM     12  H   UNL     1      45.890   5.100   7.702  0.00  0.00    +0.000 HD
ENDBRANCH  10  11
ENDBRANCH   7  10
ENDBRANCH   1   2
BRANCH   1  16
ATOM     13  C   UNL     1      48.620   5.378  17.633  0.00  0.00    +0.000 A 
ATOM     14  C   UNL     1      47.723   4.307  17.601  0.00  0.00    +0.000 A 
ATOM     15  C   UNL     1      47.134   3.928  16.396  0.00  0.00    +0.000 A 
ATOM     16  C   UNL     1      47.436   4.647  15.239  0.00  0.00    +0.000 A 
ATOM     17  N   UNL     1      48.305   5.690  15.249  0.00  0.00    +0.000 NA
ATOM     18  C   UNL     1      48.874   6.024  16.429  0.00  0.00    +0.000 A 
BRANCH  13  19
ATOM     19  C   UNL     1      49.281   5.832  18.910  0.00  0.00    +0.000 C 
BRANCH  19  21
ATOM     20  C   UNL     1      48.985   4.798  21.090  0.00  0.00    +0.000 C 
ATOM     21  N   UNL     1      48.418   5.720  20.100  0.00  0.00    +0.000 NA
ATOM     22  C   UNL     1      48.229   7.039  20.707  0.00  0.00    +0.000 C 
ENDBRANCH  19  21
ENDBRANCH  13  19
ENDBRANCH   1  16
TORSDOF 6
ENDMDL
MODEL 8
REMARK VINA RESULT:    -5.769      4.354      8.130
REMARK INTER + INTRA:          -7.818
REMARK INTER:                  -7.435
REMARK INTRA:                  -0.383
REMARK UNBOUND:                -0.194
REMARK  Name = 
REMARK  8 active torsions:
REMARK  status: ('A' for Active; 'I' for Inactive)
REMARK    1  A    between atoms: C_1  and  N_2
REMARK    2  A    between atoms: N_2  and  C_3
REMARK    3  A    between atoms: N_2  and  C_4
REMARK    4  A    between atoms: C_4  and  C_5
REMARK    5  A    between atoms: C_8  and  C_9
REMARK    6  A    between atoms: C_9  and  N_10
REMARK    7  A    between atoms: CA_15  and  C_16
REMARK    8  A    between atoms: C_16  and  O_17
REMARK                            x       y       z     vdW  Elec       q    Type
REMARK                         _______ _______ _______ _____ _____    ______ ____
ROOT
ATOM      1  C   UNL     1      46.776   4.118  15.364  0.00  0.00    +0.000 C 
ENDROOT
BRANCH   1   2
ATOM      2  N   UNL     1      46.736   5.316  14.546  0.00  0.00    +0.000 N 
ATOM      3  C   UNL     1      46.112   5.172  13.320  0.00  0.00    +0.000 A 
ATOM      4  N   UNL     1      46.582   5.944  12.335  0.00  0.00    +0.000 NA
ATOM      5  C   UNL     1      45.962   5.858  11.143  0.00  0.00    +0.000 A 
ATOM      6  C   UNL     1      44.905   5.019  10.896  0.00  0.00    +0.000 A 
ATOM      7  CA  UNL     1      44.501   4.238  11.958  0.00  0.00    +0.000 A 
ATOM      8  N   UNL     1      45.096   4.307  13.171  0.00  0.00    +0.000 NA
ATOM      9  H   UNL     1      47.619   5.784  14.392  0.00  0.00    +0.000 HD
BRANCH   7  10
ATOM     10  C   UNL     1      43.343   3.284  11.802  0.00  0.00    +0.000 C 
BRANCH  10  11
ATOM     11  O   UNL     1      43.545   2.107  12.580  0.00  0.00    +0.000 OA
ATOM     12  H   UNL     1      42.707   1.948  13.048  0.00  0.00    +0.000 HD
ENDBRANCH  10  11
ENDBRANCH   7  10
ENDBRANCH   1   2
BRANCH   1  16
ATOM     13  C   UNL     1      50.323   4.055  17.771  0.00  0.00    +0.000 A 
ATOM     14  C   UNL     1      49.595   2.876  17.595  0.00  0.00    +0.000 A 
ATOM     15  C   UNL     1      48.449   2.876  16.801  0.00  0.00    +0.000 A 
ATOM     16  C   UNL     1      48.036   4.070  16.210  0.00  0.00    +0.000 A 
ATOM     17  N   UNL     1      48.730   5.227  16.368  0.00  0.00    +0.000 NA
ATOM     18  C   UNL     1      49.846   5.192  17.131  0.00  0.00    +0.000 A 
BRANCH  13  19
ATOM     19  C   UNL     1      51.565   4.111  18.624  0.00  0.00    +0.000 C 
BRANCH  19  21
ATOM     20  C   UNL     1      53.742   4.809  17.798  0.00  0.00    +0.000 C 
ATOM     21  N   UNL     1      52.791   3.698  17.918  0.00  0.00    +0.000 NA
ATOM     22  C   UNL     1      53.424   2.583  18.626  0.00  0.00    +0.000 C 
ENDBRANCH  19  21
ENDBRANCH  13  19
ENDBRANCH   1  16
TORSDOF 6
ENDMDL
MODEL 9
REMARK VINA RESULT:    -5.530      3.407      6.634
REMARK INTER + INTRA:          -7.503
REMARK INTER:                  -7.118
REMARK INTRA:                  -0.385
REMARK UNBOUND:                -0.194
REMARK  Name = 
REMARK  8 active torsions:
REMARK  status: ('A' for Active; 'I' for Inactive)
REMARK    1  A    between atoms: C_1  and  N_2
REMARK    2  A    between atoms: N_2  and  C_3
REMARK    3  A    between atoms: N_2  and  C_4
REMARK    4  A    between atoms: C_4  and  C_5
REMARK    5  A    between atoms: C_8  and  C_9
REMARK    6  A    between atoms: C_9  and  N_10
REMARK    7  A    between atoms: CA_15  and  C_16
REMARK    8  A    between atoms: C_16  and  O_17
REMARK                            x       y       z     vdW  Elec       q    Type
REMARK                         _______ _______ _______ _____ _____    ______ ____
ROOT
ATOM      1  C   UNL     1      47.230   4.806  13.633  0.00  0.00    +0.000 C 
ENDROOT
BRANCH   1   2
ATOM      2  N   UNL     1      45.862   5.032  14.063  0.00  0.00    +0.000 N 
ATOM      3  C   UNL     1      44.900   4.848  13.087  0.00  0.00    +0.000 A 
ATOM      4  N   UNL     1      43.809   5.612  13.197  0.00  0.00    +0.000 NA
ATOM      5  C   UNL     1      42.836   5.422  12.286  0.00  0.00    +0.000 A 
ATOM      6  C   UNL     1      42.921   4.511  11.264  0.00  0.00    +0.000 A 
ATOM      7  CA  UNL     1      44.091   3.783  11.207  0.00  0.00    +0.000 A 
ATOM      8  N   UNL     1      45.084   3.944  12.112  0.00  0.00    +0.000 NA
ATOM      9  H   UNL     1      45.675   5.913  14.522  0.00  0.00    +0.000 HD
BRANCH   7  10
ATOM     10  C   UNL     1      44.290   2.748  10.129  0.00  0.00    +0.000 C 
BRANCH  10  11
ATOM     11  O   UNL     1      44.135   3.325   8.836  0.00  0.00    +0.000 OA
ATOM     12  H   UNL     1      43.188   3.530   8.745  0.00  0.00    +0.000 HD
ENDBRANCH  10  11
ENDBRANCH   7  10
ENDBRANCH   1   2
BRANCH   1  16
ATOM     13  C   UNL     1      49.245   8.473  12.698  0.00  0.00    +0.000 A 
ATOM     14  C   UNL     1      48.229   8.017  11.854  0.00  0.00    +0.000 A 
ATOM     15  C   UNL     1      47.552   6.836  12.154  0.00  0.00    +0.000 A 
ATOM     16  C   UNL     1      47.922   6.115  13.290  0.00  0.00    +0.000 A 
ATOM     17  N   UNL     1      48.906   6.541  14.123  0.00  0.00    +0.000 NA
ATOM     18  C   UNL     1      49.533   7.699  13.815  0.00  0.00    +0.000 A 
BRANCH  13  19
ATOM     19  C   UNL     1      50.012   9.741  12.417  0.00  0.00    +0.000 C 
BRANCH  19  21
ATOM     20  C   UNL     1      50.983  11.151  10.691  0.00  0.00    +0.000 C 
ATOM     21  N   UNL     1      50.623   9.782  11.076  0.00  0.00    +0.000 NA
ATOM     22  C   UNL     1      51.816   8.932  11.044  0.00  0.00    +0.000 C 
ENDBRANCH  19  21
ENDBRANCH  13  19
ENDBRANCH   1  16
TORSDOF 6
ENDMDL
