MODEL 1
REMARK VINA RESULT:    -6.125      0.000      0.000
REMARK INTER + INTRA:          -9.234
REMARK INTER:                  -8.453
REMARK INTRA:                  -0.781
REMARK UNBOUND:                -0.781
REMARK  Name = 
REMARK  8 active torsions:
REMARK  status: ('A' for Active; 'I' for Inactive)
REMARK    1  A    between atoms: C_1  and  C_2
REMARK    2  A    between atoms: C_2  and  O_3
REMARK    3  A    between atoms: C_5  and  O_6
REMARK    4  A    between atoms: O_6  and  C_7
REMARK    5  A    between atoms: C_9  and  C_10
REMARK    6  A    between atoms: C_11  and  C_12
REMARK    7  A    between atoms: C_15  and  C_16
REMARK    8  A    between atoms: C_22  and  C_23
REMARK                            x       y       z     vdW  Elec       q    Type
REMARK                         _______ _______ _______ _____ _____    ______ ____
ROOT
ATOM      1  C   UNL     1      46.333   4.873  13.977  0.00  0.00    +0.000 A 
ATOM      2  C   UNL     1      47.417   5.645  13.544  0.00  0.00    +0.000 A 
ATOM      3  C   UNL     1      47.280   6.489  12.438  0.00  0.00    +0.000 A 
ATOM      4  C   UNL     1      46.056   6.547  11.758  0.00  0.00    +0.000 A 
ATOM      5  C   UNL     1      44.970   5.759  12.172  0.00  0.00    +0.000 A 
ATOM      6  C   UNL     1      45.125   4.921  13.285  0.00  0.00    +0.000 A 
ENDROOT
BRANCH   5   7
ATOM      7  C   UNL     1      43.644   5.768  11.459  0.00  0.00    +0.000 C 
ATOM      8  F   UNL     1      42.630   5.212  12.174  0.00  0.00    +0.000 F 
ATOM      9  F   UNL     1      43.238   7.030  11.144  0.00  0.00    +0.000 F 
ATOM     10  F   UNL     1      43.690   5.090  10.278  0.00  0.00    +0.000 F 
ENDBRANCH   5   7
BRANCH   3  11
ATOM     11  C   UNL     1      48.380   7.301  11.986  0.00  0.00    +0.000 C 
ATOM     12  C   UNL     1      49.307   7.962  11.601  0.00  0.00    +0.000 C 
BRANCH  12  13
ATOM     13  C   UNL     1      50.419   8.728  11.125  0.00  0.00    +0.000 A 
ATOM     14  C   UNL     1      51.594   8.140  10.702  0.00  0.00    +0.000 A 
ATOM     15  N   UNL     1      52.667   8.829  10.244  0.00  0.00    +0.000 NA
ATOM     16  C   UNL     1      52.525  10.178  10.220  0.00  0.00    +0.000 A 
ATOM     17  N   UNL     1      51.426  10.857  10.609  0.00  0.00    +0.000 NA
ATOM     18  C   UNL     1      50.395  10.106  11.053  0.00  0.00    +0.000 A 
BRANCH  16  19
ATOM     19  C   UNL     1      53.704  10.980   9.712  0.00  0.00    +0.000 C 
ATOM     20  N   UNL     1      53.758  11.183   8.350  0.00  0.00    +0.000 N 
ATOM     21  O   UNL     1      54.581  11.441  10.434  0.00  0.00    +0.000 OA
ATOM     22  H   UNL     1      53.036  10.808   7.745  0.00  0.00    +0.000 HD
ATOM     23  H   UNL     1      54.526  11.714   7.966  0.00  0.00    +0.000 HD
ENDBRANCH  16  19
ENDBRANCH  12  13
ENDBRANCH   3  11
BRANCH   1  24
ATOM     24  O   UNL     1      46.520   4.077  15.083  0.00  0.00    +0.000 OA
BRANCH  24  28
ATOM     25  C   UNL     1      48.426   2.996  19.013  0.00  0.00    +0.000 C 
ATOM     26  C   UNL     1      47.622   3.276  17.755  0.00  0.00    +0.000 C 
ATOM     27  C   UNL     1      48.421   3.057  16.444  0.00  0.00    +0.000 C 
ATOM     28  C   UNL     1      47.717   4.315  15.873  0.00  0.00    +0.000 C 
ATOM     29  C   UNL     1      47.499   4.765  17.336  0.00  0.00    +0.000 C 
BRANCH  26  30
ATOM     30  O   UNL     1      46.356   2.584  17.843  0.00  0.00    +0.000 OA
ATOM     31  H   UNL     1      46.477   1.904  18.526  0.00  0.00    +0.000 HD
ENDBRANCH  26  30
ENDBRANCH  24  28
ENDBRANCH   1  24
TORSDOF 7
ENDMDL
MODEL 2
REMARK VINA RESULT:    -5.621      2.877      4.899
REMARK INTER + INTRA:          -8.537
REMARK INTER:                  -7.700
REMARK INTRA:                  -0.838
REMARK UNBOUND:                -0.781
REMARK  Name = 
REMARK  8 active torsions:
REMARK  status: ('A' for Active; 'I' for Inactive)
REMARK    1  A    between atoms: C_1  and  C_2
REMARK    2  A    between atoms: C_2  and  O_3
REMARK    3  A    between atoms: C_5  and  O_6
REMARK    4  A    between atoms: O_6  and  C_7
REMARK    5  A    between atoms: C_9  and  C_10
REMARK    6  A    between atoms: C_11  and  C_12
REMARK    7  A    between atoms: C_15  and  C_16
REMARK    8  A    between atoms: C_22  and  C_23
REMARK                            x       y       z     vdW  Elec       q    Type
REMARK                         _______ _______ _______ _____ _____    ______ ____
ROOT
ATOM      1  C   UNL     1      45.730   5.633  12.803  0.00  0.00    +0.000 A 
ATOM      2  C   UNL     1      46.721   6.437  12.229  0.00  0.00    +0.000 A 
ATOM      3  C   UNL     1      47.993   6.505  12.806  0.00  0.00    +0.000 A 
ATOM      4  C   UNL     1      48.265   5.772  13.969  0.00  0.00    +0.000 A 
ATOM      5  C   UNL     1      47.270   4.980  14.565  0.00  0.00    +0.000 A 
ATOM      6  C   UNL     1      46.002   4.923  13.970  0.00  0.00    +0.000 A 
ENDROOT
BRANCH   5   7
ATOM      7  C   UNL     1      47.507   4.196  15.828  0.00  0.00    +0.000 C 
ATOM      8  F   UNL     1      46.450   4.196  16.683  0.00  0.00    +0.000 F 
ATOM      9  F   UNL     1      47.791   2.887  15.576  0.00  0.00    +0.000 F 
ATOM     10  F   UNL     1      48.568   4.673  16.538  0.00  0.00    +0.000 F 
ENDBRANCH   5   7
BRANCH   3  11
ATOM     11  C   UNL     1      49.028   7.316  12.222  0.00  0.00    +0.000 C 
ATOM     12  C   UNL     1      49.906   7.977  11.735  0.00  0.00    +0.000 C 
BRANCH  12  13
ATOM     13  C   UNL     1      50.965   8.742  11.148  0.00  0.00    +0.000 A 
ATOM     14  C   UNL     1      52.010   8.152  10.465  0.00  0.00    +0.000 A 
ATOM     15  N   UNL     1      53.029   8.839   9.896  0.00  0.00    +0.000 NA
ATOM     16  C   UNL     1      52.972  10.187  10.033  0.00  0.00    +0.000 A 
ATOM     17  N   UNL     1      52.001  10.867  10.678  0.00  0.00    +0.000 NA
ATOM     18  C   UNL     1      51.016  10.118  11.221  0.00  0.00    +0.000 A 
BRANCH  16  19
ATOM     19  C   UNL     1      54.094  10.987   9.407  0.00  0.00    +0.000 C 
ATOM     20  N   UNL     1      53.967  11.259   8.062  0.00  0.00    +0.000 N 
ATOM     21  O   UNL     1      55.075  11.389  10.023  0.00  0.00    +0.000 OA
ATOM     22  H   UNL     1      53.158  10.933   7.545  0.00  0.00    +0.000 HD
ATOM     23  H   UNL     1      54.691  11.792   7.602  0.00  0.00    +0.000 HD
ENDBRANCH  16  19
ENDBRANCH  12  13
ENDBRANCH   3  11
BRANCH   1  24
ATOM     24  O   UNL     1      44.505   5.590  12.180  0.00  0.00    +0.000 OA
BRANCH  24  28
ATOM     25  C   UNL     1      44.848   3.384   8.273  0.00  0.00    +0.000 C 
ATOM     26  C   UNL     1      44.802   4.283   9.497  0.00  0.00    +0.000 C 
ATOM     27  C   UNL     1      45.267   3.585  10.801  0.00  0.00    +0.000 C 
ATOM     28  C   UNL     1      44.133   4.338  11.541  0.00  0.00    +0.000 C 
ATOM     29  C   UNL     1      43.416   4.448  10.175  0.00  0.00    +0.000 C 
BRANCH  26  30
ATOM     30  O   UNL     1      45.456   5.534   9.185  0.00  0.00    +0.000 OA
ATOM     31  H   UNL     1      45.937   5.378   8.356  0.00  0.00    +0.000 HD
ENDBRANCH  26  30
ENDBRANCH  24  28
ENDBRANCH   1  24
TORSDOF 7
ENDMDL
MODEL 3
REMARK VINA RESULT:    -5.613      5.331      7.827
REMARK INTER + INTRA:          -8.527
REMARK INTER:                  -7.689
REMARK INTRA:                  -0.837
REMARK UNBOUND:                -0.781
REMARK  Name = 
REMARK  8 active torsions:
REMARK  status: ('A' for Active; 'I' for Inactive)
REMARK    1  A    between atoms: C_1  and  C_2
REMARK    2  A    between atoms: C_2  and  O_3
REMARK    3  A    between atoms: C_5  and  O_6
REMARK    4  A    between atoms: O_6  and  C_7
REMARK    5  A    between atoms: C_9  and  C_10
REMARK    6  A    between atoms: C_11  and  C_12
REMARK    7  A    between atoms: C_15  and  C_16
REMARK    8  A    between atoms: C_22  and  C_23
REMARK                            x       y       z     vdW  Elec       q    Type
REMARK                         _______ _______ _______ _____ _____    ______ ____
ROOT
ATOM      1  C   UNL     1      43.847   6.193  11.609  0.00  0.00    +0.000 A 
ATOM      2  C   UNL     1      44.662   6.083  12.741  0.00  0.00    +0.000 A 
ATOM      3  C   UNL     1      45.476   4.959  12.915  0.00  0.00    +0.000 A 
ATOM      4  C   UNL     1      45.461   3.939  11.954  0.00  0.00    +0.000 A 
ATOM      5  C   UNL     1      44.630   4.031  10.826  0.00  0.00    +0.000 A 
ATOM      6  C   UNL     1      43.823   5.167  10.668  0.00  0.00    +0.000 A 
ENDROOT
BRANCH   5   7
ATOM      7  C   UNL     1      44.560   2.949   9.781  0.00  0.00    +0.000 C 
ATOM      8  F   UNL     1      44.118   3.381   8.570  0.00  0.00    +0.000 F 
ATOM      9  F   UNL     1      45.774   2.371   9.558  0.00  0.00    +0.000 F 
ATOM     10  F   UNL     1      43.730   1.932  10.147  0.00  0.00    +0.000 F 
ENDBRANCH   5   7
BRANCH   3  11
ATOM     11  C   UNL     1      46.330   4.835  14.066  0.00  0.00    +0.000 C 
ATOM     12  C   UNL     1      47.039   4.751  15.033  0.00  0.00    +0.000 C 
BRANCH  12  13
ATOM     13  C   UNL     1      47.871   4.673  16.196  0.00  0.00    +0.000 A 
ATOM     14  C   UNL     1      48.662   5.727  16.610  0.00  0.00    +0.000 A 
ATOM     15  N   UNL     1      49.461   5.694  17.703  0.00  0.00    +0.000 NA
ATOM     16  C   UNL     1      49.446   4.530  18.400  0.00  0.00    +0.000 A 
ATOM     17  N   UNL     1      48.716   3.440  18.087  0.00  0.00    +0.000 NA
ATOM     18  C   UNL     1      47.941   3.543  16.985  0.00  0.00    +0.000 A 
BRANCH  16  19
ATOM     19  C   UNL     1      50.327   4.458  19.629  0.00  0.00    +0.000 C 
ATOM     20  N   UNL     1      49.672   4.407  20.841  0.00  0.00    +0.000 N 
ATOM     21  O   UNL     1      51.552   4.443  19.594  0.00  0.00    +0.000 OA
ATOM     22  H   UNL     1      48.660   4.416  20.879  0.00  0.00    +0.000 HD
ATOM     23  H   UNL     1      50.219   4.356  21.688  0.00  0.00    +0.000 HD
ENDBRANCH  16  19
ENDBRANCH  12  13
ENDBRANCH   3  11
BRANCH   1  24
ATOM     24  O   UNL     1      43.084   7.330  11.482  0.00  0.00    +0.000 OA
BRANCH  24  28
ATOM     25  C   UNL     1      45.343  11.222  11.511  0.00  0.00    +0.000 C 
ATOM     26  C   UNL     1      44.573   9.925  11.695  0.00  0.00    +0.000 C 
ATOM     27  C   UNL     1      45.067   8.773  10.782  0.00  0.00    +0.000 C 
ATOM     28  C   UNL     1      43.584   8.365  10.591  0.00  0.00    +0.000 C 
ATOM     29  C   UNL     1      43.215   9.822  10.952  0.00  0.00    +0.000 C 
BRANCH  26  30
ATOM     30  O   UNL     1      44.496   9.621  13.105  0.00  0.00    +0.000 OA
ATOM     31  H   UNL     1      43.630   9.200  13.235  0.00  0.00    +0.000 HD
ENDBRANCH  26  30
ENDBRANCH  24  28
ENDBRANCH   1  24
TORSDOF 7
ENDMDL
MODEL 4
REMARK VINA RESULT:    -5.595      5.382      7.892
REMARK INTER + INTRA:          -8.502
REMARK INTER:                  -7.704
REMARK INTRA:                  -0.798
REMARK UNBOUND:                -0.781
REMARK  Name = 
REMARK  8 active torsions:
REMARK  status: ('A' for Active; 'I' for Inactive)
REMARK    1  A    between atoms: C_1  and  C_2
REMARK    2  A    between atoms: C_2  and  O_3
REMARK    3  A    between atoms: C_5  and  O_6
REMARK    4  A    between atoms: O_6  and  C_7
REMARK    5  A    between atoms: C_9  and  C_10
REMARK    6  A    between atoms: C_11  and  C_12
REMARK    7  A    between atoms: C_15  and  C_16
REMARK    8  A    between atoms: C_22  and  C_23
REMARK                            x       y       z     vdW  Elec       q    Type
REMARK                         _______ _______ _______ _____ _____    ______ ____
ROOT
ATOM      1  C   UNL     1      45.311   5.180  10.963  0.00  0.00    +0.000 A 
ATOM      2  C   UNL     1      46.067   4.909  12.109  0.00  0.00    +0.000 A 
ATOM      3  C   UNL     1      46.284   5.911  13.060  0.00  0.00    +0.000 A 
ATOM      4  C   UNL     1      45.751   7.190  12.852  0.00  0.00    +0.000 A 
ATOM      5  C   UNL     1      45.010   7.477  11.694  0.00  0.00    +0.000 A 
ATOM      6  C   UNL     1      44.799   6.458  10.754  0.00  0.00    +0.000 A 
ENDROOT
BRANCH   5   7
ATOM      7  C   UNL     1      44.439   8.842  11.415  0.00  0.00    +0.000 C 
ATOM      8  F   UNL     1      45.124   9.543  10.472  0.00  0.00    +0.000 F 
ATOM      9  F   UNL     1      43.149   8.781  10.979  0.00  0.00    +0.000 F 
ATOM     10  F   UNL     1      44.415   9.628  12.528  0.00  0.00    +0.000 F 
ENDBRANCH   5   7
BRANCH   3  11
ATOM     11  C   UNL     1      47.048   5.648  14.251  0.00  0.00    +0.000 C 
ATOM     12  C   UNL     1      47.693   5.448  15.246  0.00  0.00    +0.000 C 
BRANCH  12  13
ATOM     13  C   UNL     1      48.461   5.237  16.435  0.00  0.00    +0.000 A 
ATOM     14  C   UNL     1      49.491   6.078  16.808  0.00  0.00    +0.000 A 
ATOM     15  N   UNL     1      50.240   5.913  17.924  0.00  0.00    +0.000 NA
ATOM     16  C   UNL     1      49.918   4.841  18.689  0.00  0.00    +0.000 A 
ATOM     17  N   UNL     1      48.935   3.956  18.422  0.00  0.00    +0.000 NA
ATOM     18  C   UNL     1      48.228   4.181  17.293  0.00  0.00    +0.000 A 
BRANCH  16  19
ATOM     19  C   UNL     1      50.733   4.628  19.947  0.00  0.00    +0.000 C 
ATOM     20  N   UNL     1      51.990   4.090  19.770  0.00  0.00    +0.000 N 
ATOM     21  O   UNL     1      50.338   4.902  21.074  0.00  0.00    +0.000 OA
ATOM     22  H   UNL     1      52.326   3.863  18.842  0.00  0.00    +0.000 HD
ATOM     23  H   UNL     1      52.570   3.931  20.581  0.00  0.00    +0.000 HD
ENDBRANCH  16  19
ENDBRANCH  12  13
ENDBRANCH   3  11
BRANCH   1  24
ATOM     24  O   UNL     1      45.112   4.150  10.074  0.00  0.00    +0.000 OA
BRANCH  24  28
ATOM     25  C   UNL     1      46.402   2.642   6.036  0.00  0.00    +0.000 C 
ATOM     26  C   UNL     1      46.077   3.010   7.474  0.00  0.00    +0.000 C 
ATOM     27  C   UNL     1      44.589   3.380   7.700  0.00  0.00    +0.000 C 
ATOM     28  C   UNL     1      45.071   4.495   8.663  0.00  0.00    +0.000 C 
ATOM     29  C   UNL     1      46.420   4.460   7.906  0.00  0.00    +0.000 C 
BRANCH  26  30
ATOM     30  O   UNL     1      46.613   1.994   8.350  0.00  0.00    +0.000 OA
ATOM     31  H   UNL     1      47.413   2.382   8.742  0.00  0.00    +0.000 HD
ENDBRANCH  26  30
ENDBRANCH  24  28
ENDBRANCH   1  24
TORSDOF 7
ENDMDL
MODEL 5
REMARK VINA RESULT:    -5.542      5.564      9.705
REMARK INTER + INTRA:          -8.429
REMARK INTER:                  -7.601
REMARK INTRA:                  -0.829
REMARK UNBOUND:                -0.781
REMARK  Name = 
REMARK  8 active torsions:
REMARK  status: ('A' for Active; 'I' for Inactive)
REMARK    1  A    between atoms: C_1  and  C_2
REMARK    2  A    between atoms: C_2  and  O_3
REMARK    3  A    between atoms: C_5  and  O_6
REMARK    4  A    between atoms: O_6  and  C_7
REMARK    5  A    between atoms: C_9  and  C_10
REMARK    6  A    between atoms: C_11  and  C_12
REMARK    7  A    between atoms: C_15  and  C_16
REMARK    8  A    between atoms: C_22  and  C_23
REMARK                            x       y       z     vdW  Elec       q    Type
REMARK                         _______ _______ _______ _____ _____    ______ ____
ROOT
ATOM      1  C   UNL     1      52.755   8.330  10.183  0.00  0.00    +0.000 A 
ATOM      2  C   UNL     1      51.435   7.909  10.376  0.00  0.00    +0.000 A 
ATOM      3  C   UNL     1      50.836   8.027  11.635  0.00  0.00    +0.000 A 
ATOM      4  C   UNL     1      51.572   8.557  12.703  0.00  0.00    +0.000 A 
ATOM      5  C   UNL     1      52.904   8.961  12.524  0.00  0.00    +0.000 A 
ATOM      6  C   UNL     1      53.486   8.839  11.254  0.00  0.00    +0.000 A 
ENDROOT
BRANCH   5   7
ATOM      7  C   UNL     1      53.742   9.512  13.647  0.00  0.00    +0.000 C 
ATOM      8  F   UNL     1      53.122  10.480  14.374  0.00  0.00    +0.000 F 
ATOM      9  F   UNL     1      54.108   8.547  14.537  0.00  0.00    +0.000 F 
ATOM     10  F   UNL     1      54.906  10.062  13.200  0.00  0.00    +0.000 F 
ENDBRANCH   5   7
BRANCH   3  11
ATOM     11  C   UNL     1      49.475   7.612  11.849  0.00  0.00    +0.000 C 
ATOM     12  C   UNL     1      48.339   7.254  12.010  0.00  0.00    +0.000 C 
BRANCH  12  13
ATOM     13  C   UNL     1      46.990   6.807  12.183  0.00  0.00    +0.000 A 
ATOM     14  C   UNL     1      46.670   5.705  12.951  0.00  0.00    +0.000 A 
ATOM     15  N   UNL     1      45.408   5.252  13.140  0.00  0.00    +0.000 NA
ATOM     16  C   UNL     1      44.435   5.960  12.516  0.00  0.00    +0.000 A 
ATOM     17  N   UNL     1      44.632   7.048  11.743  0.00  0.00    +0.000 NA
ATOM     18  C   UNL     1      45.915   7.445  11.598  0.00  0.00    +0.000 A 
BRANCH  16  19
ATOM     19  C   UNL     1      43.010   5.483  12.707  0.00  0.00    +0.000 C 
ATOM     20  N   UNL     1      42.082   5.975  11.816  0.00  0.00    +0.000 N 
ATOM     21  O   UNL     1      42.662   4.705  13.588  0.00  0.00    +0.000 OA
ATOM     22  H   UNL     1      42.361   6.617  11.084  0.00  0.00    +0.000 HD
ATOM     23  H   UNL     1      41.119   5.683  11.905  0.00  0.00    +0.000 HD
ENDBRANCH  16  19
ENDBRANCH  12  13
ENDBRANCH   3  11
BRANCH   1  24
ATOM     24  O   UNL     1      53.283   8.210   8.919  0.00  0.00    +0.000 OA
BRANCH  24  28
ATOM     25  C   UNL     1      53.624   4.352   6.630  0.00  0.00    +0.000 C 
ATOM     26  C   UNL     1      53.322   5.656   7.349  0.00  0.00    +0.000 C 
ATOM     27  C   UNL     1      54.440   6.719   7.204  0.00  0.00    +0.000 C 
ATOM     28  C   UNL     1      54.192   7.100   8.686  0.00  0.00    +0.000 C 
ATOM     29  C   UNL     1      53.607   5.681   8.874  0.00  0.00    +0.000 C 
BRANCH  26  30
ATOM     30  O   UNL     1      51.990   6.090   6.993  0.00  0.00    +0.000 OA
ATOM     31  H   UNL     1      51.387   5.451   7.407  0.00  0.00    +0.000 HD
ENDBRANCH  26  30
ENDBRANCH  24  28
ENDBRANCH   1  24
TORSDOF 7
ENDMDL
MODEL 6
REMARK VINA RESULT:    -5.532      6.478      8.364
REMARK INTER + INTRA:          -8.415
REMARK INTER:                  -7.618
REMARK INTRA:                  -0.797
REMARK UNBOUND:                -0.781
REMARK  Name = 
REMARK  8 active torsions:
REMARK  status: ('A' for Active; 'I' for Inactive)
REMARK    1  A    between atoms: C_1  and  C_2
REMARK    2  A    between atoms: C_2  and  O_3
REMARK    3  A    between atoms: C_5  and  O_6
REMARK    4  A    between atoms: O_6  and  C_7
REMARK    5  A    between atoms: C_9  and  C_10
REMARK    6  A    between atoms: C_11  and  C_12
REMARK    7  A    between atoms: C_15  and  C_16
REMARK    8  A    between atoms: C_22  and  C_23
REMARK                            x       y       z     vdW  Elec       q    Type
REMARK                         _______ _______ _______ _____ _____    ______ ____
ROOT
ATOM      1  C   UNL     1      50.406   4.703  18.766  0.00  0.00    +0.000 A 
ATOM      2  C   UNL     1      49.677   4.434  17.602  0.00  0.00    +0.000 A 
ATOM      3  C   UNL     1      48.546   5.195  17.290  0.00  0.00    +0.000 A 
ATOM      4  C   UNL     1      48.140   6.219  18.156  0.00  0.00    +0.000 A 
ATOM      5  C   UNL     1      48.853   6.481  19.337  0.00  0.00    +0.000 A 
ATOM      6  C   UNL     1      49.986   5.710  19.631  0.00  0.00    +0.000 A 
ENDROOT
BRANCH   5   7
ATOM      7  C   UNL     1      48.441   7.553  20.311  0.00  0.00    +0.000 C 
ATOM      8  F   UNL     1      49.440   7.959  21.139  0.00  0.00    +0.000 F 
ATOM      9  F   UNL     1      47.991   8.675  19.681  0.00  0.00    +0.000 F 
ATOM     10  F   UNL     1      47.420   7.150  21.119  0.00  0.00    +0.000 F 
ENDBRANCH   5   7
BRANCH   3  11
ATOM     11  C   UNL     1      47.792   4.942  16.090  0.00  0.00    +0.000 C 
ATOM     12  C   UNL     1      47.158   4.751  15.087  0.00  0.00    +0.000 C 
BRANCH  12  13
ATOM     13  C   UNL     1      46.406   4.550  13.885  0.00  0.00    +0.000 A 
ATOM     14  C   UNL     1      45.705   5.571  13.274  0.00  0.00    +0.000 A 
ATOM     15  N   UNL     1      44.983   5.422  12.138  0.00  0.00    +0.000 NA
ATOM     16  C   UNL     1      44.981   4.174  11.608  0.00  0.00    +0.000 A 
ATOM     17  N   UNL     1      45.627   3.105  12.120  0.00  0.00    +0.000 NA
ATOM     18  C   UNL     1      46.328   3.326  13.253  0.00  0.00    +0.000 A 
BRANCH  16  19
ATOM     19  C   UNL     1      44.186   3.971  10.336  0.00  0.00    +0.000 C 
ATOM     20  N   UNL     1      44.314   2.740   9.731  0.00  0.00    +0.000 N 
ATOM     21  O   UNL     1      43.459   4.825   9.839  0.00  0.00    +0.000 OA
ATOM     22  H   UNL     1      44.910   2.028  10.135  0.00  0.00    +0.000 HD
ATOM     23  H   UNL     1      43.801   2.559   8.880  0.00  0.00    +0.000 HD
ENDBRANCH  16  19
ENDBRANCH  12  13
ENDBRANCH   3  11
BRANCH   1  24
ATOM     24  O   UNL     1      51.521   3.936  19.009  0.00  0.00    +0.000 OA
BRANCH  24  28
ATOM     25  C   UNL     1      55.036   1.359  17.891  0.00  0.00    +0.000 C 
ATOM     26  C   UNL     1      53.915   2.219  18.451  0.00  0.00    +0.000 C 
ATOM     27  C   UNL     1      52.524   1.902  17.844  0.00  0.00    +0.000 C 
ATOM     28  C   UNL     1      52.237   3.425  17.852  0.00  0.00    +0.000 C 
ATOM     29  C   UNL     1      53.768   3.638  17.840  0.00  0.00    +0.000 C 
BRANCH  26  30
ATOM     30  O   UNL     1      53.990   2.205  19.894  0.00  0.00    +0.000 OA
ATOM     31  H   UNL     1      54.052   1.269  20.144  0.00  0.00    +0.000 HD
ENDBRANCH  26  30
ENDBRANCH  24  28
ENDBRANCH   1  24
TORSDOF 7
ENDMDL
MODEL 7
REMARK VINA RESULT:    -5.467      4.873      6.732
REMARK INTER + INTRA:          -8.325
REMARK INTER:                  -7.698
REMARK INTRA:                  -0.627
REMARK UNBOUND:                -0.781
REMARK  Name = 
REMARK  8 active torsions:
REMARK  status: ('A' for Active; 'I' for Inactive)
REMARK    1  A    between atoms: C_1  and  C_2
REMARK    2  A    between atoms: C_2  and  O_3
REMARK    3  A    between atoms: C_5  and  O_6
REMARK    4  A    between atoms: O_6  and  C_7
REMARK    5  A    between atoms: C_9  and  C_10
REMARK    6  A    between atoms: C_11  and  C_12
REMARK    7  A    between atoms: C_15  and  C_16
REMARK    8  A    between atoms: C_22  and  C_23
REMARK                            x       y       z     vdW  Elec       q    Type
REMARK                         _______ _______ _______ _____ _____    ______ ____
ROOT
ATOM      1  C   UNL     1      44.677   6.926  11.862  0.00  0.00    +0.000 A 
ATOM      2  C   UNL     1      45.743   6.617  12.715  0.00  0.00    +0.000 A 
ATOM      3  C   UNL     1      46.645   7.614  13.101  0.00  0.00    +0.000 A 
ATOM      4  C   UNL     1      46.483   8.919  12.617  0.00  0.00    +0.000 A 
ATOM      5  C   UNL     1      45.430   9.232  11.743  0.00  0.00    +0.000 A 
ATOM      6  C   UNL     1      44.533   8.221  11.371  0.00  0.00    +0.000 A 
ENDROOT
BRANCH   5   7
ATOM      7  C   UNL     1      45.230  10.613  11.178  0.00  0.00    +0.000 C 
ATOM      8  F   UNL     1      44.410  10.652  10.094  0.00  0.00    +0.000 F 
ATOM      9  F   UNL     1      44.691  11.470  12.091  0.00  0.00    +0.000 F 
ATOM     10  F   UNL     1      46.404  11.184  10.785  0.00  0.00    +0.000 F 
ENDBRANCH   5   7
BRANCH   3  11
ATOM     11  C   UNL     1      47.739   7.318  13.988  0.00  0.00    +0.000 C 
ATOM     12  C   UNL     1      48.640   7.061  14.741  0.00  0.00    +0.000 C 
BRANCH  12  13
ATOM     13  C   UNL     1      49.698   6.734  15.649  0.00  0.00    +0.000 A 
ATOM     14  C   UNL     1      49.508   5.899  16.732  0.00  0.00    +0.000 A 
ATOM     15  N   UNL     1      50.482   5.565  17.614  0.00  0.00    +0.000 NA
ATOM     16  C   UNL     1      51.699   6.112  17.372  0.00  0.00    +0.000 A 
ATOM     17  N   UNL     1      51.995   6.939  16.348  0.00  0.00    +0.000 NA
ATOM     18  C   UNL     1      50.978   7.229  15.508  0.00  0.00    +0.000 A 
BRANCH  16  19
ATOM     19  C   UNL     1      52.812   5.759  18.335  0.00  0.00    +0.000 C 
ATOM     20  N   UNL     1      52.703   4.538  18.965  0.00  0.00    +0.000 N 
ATOM     21  O   UNL     1      53.770   6.486  18.571  0.00  0.00    +0.000 OA
ATOM     22  H   UNL     1      51.916   3.929  18.775  0.00  0.00    +0.000 HD
ATOM     23  H   UNL     1      53.423   4.260  19.616  0.00  0.00    +0.000 HD
ENDBRANCH  16  19
ENDBRANCH  12  13
ENDBRANCH   3  11
BRANCH   1  24
ATOM     24  O   UNL     1      43.810   5.910  11.535  0.00  0.00    +0.000 OA
BRANCH  24  28
ATOM     25  C   UNL     1      44.634   2.191   9.141  0.00  0.00    +0.000 C 
ATOM     26  C   UNL     1      44.267   3.514   9.790  0.00  0.00    +0.000 C 
ATOM     27  C   UNL     1      45.396   4.110  10.670  0.00  0.00    +0.000 C 
ATOM     28  C   UNL     1      44.302   4.550  11.676  0.00  0.00    +0.000 C 
ATOM     29  C   UNL     1      43.414   3.431  11.083  0.00  0.00    +0.000 C 
BRANCH  26  30
ATOM     30  O   UNL     1      43.722   4.396   8.783  0.00  0.00    +0.000 OA
ATOM     31  H   UNL     1      43.220   3.824   8.179  0.00  0.00    +0.000 HD
ENDBRANCH  26  30
ENDBRANCH  24  28
ENDBRANCH   1  24
TORSDOF 7
ENDMDL
MODEL 8
REMARK VINA RESULT:    -5.229      5.822      7.978
REMARK INTER + INTRA:          -7.997
REMARK INTER:                  -7.090
REMARK INTRA:                  -0.907
REMARK UNBOUND:                -0.781
REMARK  Name = 
REMARK  8 active torsions:
REMARK  status: ('A' for Active; 'I' for Inactive)
REMARK    1  A    between atoms: C_1  and  C_2
REMARK    2  A    between atoms: C_2  and  O_3
REMARK    3  A    between atoms: C_5  and  O_6
REMARK    4  A    between atoms: O_6  and  C_7
REMARK    5  A    between atoms: C_9  and  C_10
REMARK    6  A    between atoms: C_11  and  C_12
REMARK    7  A    between atoms: C_15  and  C_16
REMARK    8  A    between atoms: C_22  and  C_23
REMARK                            x       y       z     vdW  Elec       q    Type
REMARK                         _______ _______ _______ _____ _____    ______ ____
ROOT
ATOM      1  C   UNL     1      50.939   7.027  17.656  0.00  0.00    +0.000 A 
ATOM      2  C   UNL     1      49.975   6.510  16.783  0.00  0.00    +0.000 A 
ATOM      3  C   UNL     1      49.658   7.193  15.604  0.00  0.00    +0.000 A 
ATOM      4  C   UNL     1      50.302   8.402  15.310  0.00  0.00    +0.000 A 
ATOM      5  C   UNL     1      51.254   8.939  16.192  0.00  0.00    +0.000 A 
ATOM      6  C   UNL     1      51.561   8.239  17.367  0.00  0.00    +0.000 A 
ENDROOT
BRANCH   5   7
ATOM      7  C   UNL     1      51.952  10.247  15.931  0.00  0.00    +0.000 C 
ATOM      8  F   UNL     1      52.797  10.218  14.867  0.00  0.00    +0.000 F 
ATOM      9  F   UNL     1      51.073  11.260  15.690  0.00  0.00    +0.000 F 
ATOM     10  F   UNL     1      52.699  10.653  16.997  0.00  0.00    +0.000 F 
ENDBRANCH   5   7
BRANCH   3  11
ATOM     11  C   UNL     1      48.679   6.670  14.687  0.00  0.00    +0.000 C 
ATOM     12  C   UNL     1      47.858   6.218  13.934  0.00  0.00    +0.000 C 
BRANCH  12  13
ATOM     13  C   UNL     1      46.870   5.664  13.059  0.00  0.00    +0.000 A 
ATOM     14  C   UNL     1      46.218   4.480  13.338  0.00  0.00    +0.000 A 
ATOM     15  N   UNL     1      45.278   3.923  12.536  0.00  0.00    +0.000 NA
ATOM     16  C   UNL     1      44.997   4.612  11.403  0.00  0.00    +0.000 A 
ATOM     17  N   UNL     1      45.572   5.775  11.031  0.00  0.00    +0.000 NA
ATOM     18  C   UNL     1      46.500   6.272  11.877  0.00  0.00    +0.000 A 
BRANCH  16  19
ATOM     19  C   UNL     1      43.949   4.021  10.484  0.00  0.00    +0.000 C 
ATOM     20  N   UNL     1      43.957   4.475   9.183  0.00  0.00    +0.000 N 
ATOM     21  O   UNL     1      43.123   3.186  10.836  0.00  0.00    +0.000 OA
ATOM     22  H   UNL     1      44.637   5.164   8.884  0.00  0.00    +0.000 HD
ATOM     23  H   UNL     1      43.277   4.108   8.534  0.00  0.00    +0.000 HD
ENDBRANCH  16  19
ENDBRANCH  12  13
ENDBRANCH   3  11
BRANCH   1  24
ATOM     24  O   UNL     1      51.225   6.301  18.789  0.00  0.00    +0.000 OA
BRANCH  24  28
ATOM     25  C   UNL     1      53.068   2.226  18.303  0.00  0.00    +0.000 C 
ATOM     26  C   UNL     1      52.274   3.511  18.464  0.00  0.00    +0.000 C 
ATOM     27  C   UNL     1      52.828   4.693  17.628  0.00  0.00    +0.000 C 
ATOM     28  C   UNL     1      52.507   5.618  18.830  0.00  0.00    +0.000 C 
ATOM     29  C   UNL     1      52.589   4.359  19.724  0.00  0.00    +0.000 C 
BRANCH  26  30
ATOM     30  O   UNL     1      50.869   3.220  18.288  0.00  0.00    +0.000 OA
ATOM     31  H   UNL     1      50.737   3.137  17.329  0.00  0.00    +0.000 HD
ENDBRANCH  26  30
ENDBRANCH  24  28
ENDBRANCH   1  24
TORSDOF 7
ENDMDL
