MODEL 1
REMARK VINA RESULT:    -8.754      0.000      0.000
REMARK INTER + INTRA:         -12.323
REMARK INTER:                 -11.313
REMARK INTRA:                  -1.010
REMARK UNBOUND:                -1.010
REMARK  Name = 
REMARK  5 active torsions:
REMARK  status: ('A' for Active; 'I' for Inactive)
REMARK    1  A    between atoms: C_2  and  C_4
REMARK    2  A    between atoms: N_8  and  C_9
REMARK    3  A    between atoms: C_9  and  C_10
REMARK    4  A    between atoms: C_10  and  C_11
REMARK    5  A    between atoms: C_15  and  N_16
REMARK                            x       y       z     vdW  Elec       q    Type
REMARK                         _______ _______ _______ _____ _____    ______ ____
ROOT
ATOM      1  C   UNL     1      43.030   4.515  11.000  0.00  0.00    +0.000 C 
ENDROOT
BRANCH   1   6
ATOM      2  C   UNL     1      46.431   2.555   7.743  0.00  0.00    +0.000 A 
ATOM      3  C   UNL     1      45.661   1.968   8.739  0.00  0.00    +0.000 A 
ATOM      4  C   UNL     1      44.833   2.773   9.516  0.00  0.00    +0.000 A 
ATOM      5  C   UNL     1      44.783   4.148   9.293  0.00  0.00    +0.000 A 
ATOM      6  N   UNL     1      43.973   4.990  10.014  0.00  0.00    +0.000 N 
ATOM      7  N   UNL     1      45.547   4.730   8.348  0.00  0.00    +0.000 NA
ATOM      8  C   UNL     1      46.358   3.932   7.602  0.00  0.00    +0.000 A 
ATOM      9  H   UNL     1      44.018   5.962   9.738  0.00  0.00    +0.000 HD
BRANCH   2  11
ATOM     10  N   UNL     1      48.389   2.426   6.313  0.00  0.00    +0.000 N 
ATOM     11  C   UNL     1      47.315   1.772   6.856  0.00  0.00    +0.000 C 
ATOM     12  O   UNL     1      47.116   0.585   6.642  0.00  0.00    +0.000 OA
ATOM     13  H   UNL     1      49.044   1.856   5.792  0.00  0.00    +0.000 HD
ATOM     14  H   UNL     1      48.716   3.319   6.659  0.00  0.00    +0.000 HD
ENDBRANCH   2  11
ENDBRANCH   1   6
BRANCH   1  15
ATOM     15  C   UNL     1      43.109   5.285  12.319  0.00  0.00    +0.000 C 
BRANCH  15  16
ATOM     16  C   UNL     1      44.539   5.258  12.809  0.00  0.00    +0.000 A 
ATOM     17  C   UNL     1      45.135   4.055  13.195  0.00  0.00    +0.000 A 
ATOM     18  C   UNL     1      46.487   4.026  13.511  0.00  0.00    +0.000 A 
ATOM     19  C   UNL     1      47.251   5.194  13.432  0.00  0.00    +0.000 A 
ATOM     20  C   UNL     1      46.696   6.423  13.045  0.00  0.00    +0.000 A 
ATOM     21  C   UNL     1      45.324   6.426  12.753  0.00  0.00    +0.000 A 
BRANCH  20  22
ATOM     22  N   UNL     1      47.469   7.566  12.966  0.00  0.00    +0.000 N 
ATOM     23  C   UNL     1      46.901   8.892  13.216  0.00  0.00    +0.000 C 
ATOM     24  C   UNL     1      47.261   9.816  12.055  0.00  0.00    +0.000 C 
ATOM     25  C   UNL     1      48.771   9.838  11.817  0.00  0.00    +0.000 C 
ATOM     26  C   UNL     1      49.330   8.423  11.661  0.00  0.00    +0.000 C 
ATOM     27  C   UNL     1      48.924   7.521  12.829  0.00  0.00    +0.000 C 
ENDBRANCH  20  22
ENDBRANCH  15  16
ENDBRANCH   1  15
TORSDOF 5
ENDMDL
MODEL 2
REMARK VINA RESULT:    -8.538      2.116      3.510
REMARK INTER + INTRA:         -12.044
REMARK INTER:                 -11.058
REMARK INTRA:                  -0.986
REMARK UNBOUND:                -1.010
REMARK  Name = 
REMARK  5 active torsions:
REMARK  status: ('A' for Active; 'I' for Inactive)
REMARK    1  A    between atoms: C_2  and  C_4
REMARK    2  A    between atoms: N_8  and  C_9
REMARK    3  A    between atoms: C_9  and  C_10
REMARK    4  A    between atoms: C_10  and  C_11
REMARK    5  A    between atoms: C_15  and  N_16
REMARK                            x       y       z     vdW  Elec       q    Type
REMARK                         _______ _______ _______ _____ _____    ______ ____
ROOT
ATOM      1  C   UNL     1      43.386   4.877  10.973  0.00  0.00    +0.000 C 
ENDROOT
BRANCH   1   6
ATOM      2  C   UNL     1      46.471   2.698   7.545  0.00  0.00    +0.000 A 
ATOM      3  C   UNL     1      46.107   4.023   7.750  0.00  0.00    +0.000 A 
ATOM      4  C   UNL     1      45.195   4.325   8.757  0.00  0.00    +0.000 A 
ATOM      5  C   UNL     1      44.658   3.307   9.544  0.00  0.00    +0.000 A 
ATOM      6  N   UNL     1      43.769   3.545  10.563  0.00  0.00    +0.000 N 
ATOM      7  N   UNL     1      44.985   2.017   9.336  0.00  0.00    +0.000 NA
ATOM      8  C   UNL     1      45.870   1.736   8.342  0.00  0.00    +0.000 A 
ATOM      9  H   UNL     1      43.473   2.720  11.069  0.00  0.00    +0.000 HD
BRANCH   2  11
ATOM     10  N   UNL     1      47.439   2.987   5.338  0.00  0.00    +0.000 N 
ATOM     11  C   UNL     1      47.452   2.293   6.518  0.00  0.00    +0.000 C 
ATOM     12  O   UNL     1      48.261   1.400   6.724  0.00  0.00    +0.000 OA
ATOM     13  H   UNL     1      48.181   2.772   4.683  0.00  0.00    +0.000 HD
ATOM     14  H   UNL     1      46.962   3.873   5.230  0.00  0.00    +0.000 HD
ENDBRANCH   2  11
ENDBRANCH   1   6
BRANCH   1  15
ATOM     15  C   UNL     1      43.627   5.134  12.461  0.00  0.00    +0.000 C 
BRANCH  15  16
ATOM     16  C   UNL     1      45.098   5.417  12.671  0.00  0.00    +0.000 A 
ATOM     17  C   UNL     1      45.796   6.236  11.780  0.00  0.00    +0.000 A 
ATOM     18  C   UNL     1      47.108   6.597  12.061  0.00  0.00    +0.000 A 
ATOM     19  C   UNL     1      47.722   6.152  13.235  0.00  0.00    +0.000 A 
ATOM     20  C   UNL     1      47.057   5.332  14.159  0.00  0.00    +0.000 A 
ATOM     21  C   UNL     1      45.741   4.967  13.839  0.00  0.00    +0.000 A 
BRANCH  20  22
ATOM     22  N   UNL     1      47.678   4.908  15.319  0.00  0.00    +0.000 N 
ATOM     23  C   UNL     1      47.557   3.527  15.791  0.00  0.00    +0.000 C 
ATOM     24  C   UNL     1      47.126   3.537  17.255  0.00  0.00    +0.000 C 
ATOM     25  C   UNL     1      48.073   4.386  18.103  0.00  0.00    +0.000 C 
ATOM     26  C   UNL     1      48.243   5.786  17.512  0.00  0.00    +0.000 C 
ATOM     27  C   UNL     1      48.647   5.735  16.037  0.00  0.00    +0.000 C 
ENDBRANCH  20  22
ENDBRANCH  15  16
ENDBRANCH   1  15
TORSDOF 5
ENDMDL
MODEL 3
REMARK VINA RESULT:    -7.842      1.716      2.510
REMARK INTER + INTRA:         -11.145
REMARK INTER:                 -10.107
REMARK INTRA:                  -1.038
REMARK UNBOUND:                -1.010
REMARK  Name = 
REMARK  5 active torsions:
REMARK  status: ('A' for Active; 'I' for Inactive)
REMARK    1  A    between atoms: C_2  and  C_4
REMARK    2  A    between atoms: N_8  and  C_9
REMARK    3  A    between atoms: C_9  and  C_10
REMARK    4  A    between atoms: C_10  and  C_11
REMARK    5  A    between atoms: C_15  and  N_16
REMARK                            x       y       z     vdW  Elec       q    Type
REMARK                         _______ _______ _______ _____ _____    ______ ____
ROOT
ATOM      1  C   UNL     1      43.382   3.460  11.325  0.00  0.00    +0.000 C 
ENDROOT
BRANCH   1   6
ATOM      2  C   UNL     1      46.444   2.748   7.308  0.00  0.00    +0.000 A 
ATOM      3  C   UNL     1      45.771   3.873   7.770  0.00  0.00    +0.000 A 
ATOM      4  C   UNL     1      44.956   3.760   8.892  0.00  0.00    +0.000 A 
ATOM      5  C   UNL     1      44.820   2.532   9.538  0.00  0.00    +0.000 A 
ATOM      6  N   UNL     1      44.046   2.363  10.659  0.00  0.00    +0.000 N 
ATOM      7  N   UNL     1      45.447   1.430   9.082  0.00  0.00    +0.000 NA
ATOM      8  C   UNL     1      46.233   1.553   7.979  0.00  0.00    +0.000 A 
ATOM      9  H   UNL     1      44.051   1.426  11.041  0.00  0.00    +0.000 HD
BRANCH   2  11
ATOM     10  N   UNL     1      48.668   2.495   6.368  0.00  0.00    +0.000 N 
ATOM     11  C   UNL     1      47.349   2.785   6.142  0.00  0.00    +0.000 C 
ATOM     12  O   UNL     1      46.934   3.033   5.018  0.00  0.00    +0.000 OA
ATOM     13  H   UNL     1      49.258   2.422   5.549  0.00  0.00    +0.000 HD
ATOM     14  H   UNL     1      48.992   2.054   7.220  0.00  0.00    +0.000 HD
ENDBRANCH   2  11
ENDBRANCH   1   6
BRANCH   1  15
ATOM     15  C   UNL     1      44.124   3.934  12.576  0.00  0.00    +0.000 C 
BRANCH  15  16
ATOM     16  C   UNL     1      44.708   5.301  12.302  0.00  0.00    +0.000 A 
ATOM     17  C   UNL     1      44.003   6.235  11.540  0.00  0.00    +0.000 A 
ATOM     18  C   UNL     1      44.490   7.530  11.413  0.00  0.00    +0.000 A 
ATOM     19  C   UNL     1      45.675   7.899  12.055  0.00  0.00    +0.000 A 
ATOM     20  C   UNL     1      46.413   6.996  12.834  0.00  0.00    +0.000 A 
ATOM     21  C   UNL     1      45.909   5.690  12.927  0.00  0.00    +0.000 A 
BRANCH  20  22
ATOM     22  N   UNL     1      47.579   7.382  13.468  0.00  0.00    +0.000 N 
ATOM     23  C   UNL     1      48.381   6.431  14.240  0.00  0.00    +0.000 C 
ATOM     24  C   UNL     1      48.659   7.018  15.621  0.00  0.00    +0.000 C 
ATOM     25  C   UNL     1      49.299   8.402  15.512  0.00  0.00    +0.000 C 
ATOM     26  C   UNL     1      48.475   9.327  14.615  0.00  0.00    +0.000 C 
ATOM     27  C   UNL     1      48.193   8.691  13.252  0.00  0.00    +0.000 C 
ENDBRANCH  20  22
ENDBRANCH  15  16
ENDBRANCH   1  15
TORSDOF 5
ENDMDL
MODEL 4
REMARK VINA RESULT:    -7.511      3.169      7.196
REMARK INTER + INTRA:         -10.717
REMARK INTER:                  -9.810
REMARK INTRA:                  -0.907
REMARK UNBOUND:                -1.010
REMARK  Name = 
REMARK  5 active torsions:
REMARK  status: ('A' for Active; 'I' for Inactive)
REMARK    1  A    between atoms: C_2  and  C_4
REMARK    2  A    between atoms: N_8  and  C_9
REMARK    3  A    between atoms: C_9  and  C_10
REMARK    4  A    between atoms: C_10  and  C_11
REMARK    5  A    between atoms: C_15  and  N_16
REMARK                            x       y       z     vdW  Elec       q    Type
REMARK                         _______ _______ _______ _____ _____    ______ ____
ROOT
ATOM      1  C   UNL     1      47.581   7.033  11.967  0.00  0.00    +0.000 C 
ENDROOT
BRANCH   1   6
ATOM      2  C   UNL     1      47.696   4.298  16.271  0.00  0.00    +0.000 A 
ATOM      3  C   UNL     1      47.042   4.093  15.063  0.00  0.00    +0.000 A 
ATOM      4  C   UNL     1      47.163   5.048  14.058  0.00  0.00    +0.000 A 
ATOM      5  C   UNL     1      47.929   6.193  14.268  0.00  0.00    +0.000 A 
ATOM      6  N   UNL     1      48.100   7.161  13.310  0.00  0.00    +0.000 N 
ATOM      7  N   UNL     1      48.545   6.415  15.446  0.00  0.00    +0.000 NA
ATOM      8  C   UNL     1      48.411   5.477  16.423  0.00  0.00    +0.000 A 
ATOM      9  H   UNL     1      48.696   7.931  13.585  0.00  0.00    +0.000 HD
BRANCH   2  11
ATOM     10  N   UNL     1      48.760   3.218  18.168  0.00  0.00    +0.000 N 
ATOM     11  C   UNL     1      47.645   3.323  17.379  0.00  0.00    +0.000 C 
ATOM     12  O   UNL     1      46.640   2.664  17.604  0.00  0.00    +0.000 OA
ATOM     13  H   UNL     1      48.677   2.625  18.984  0.00  0.00    +0.000 HD
ATOM     14  H   UNL     1      49.499   3.909  18.164  0.00  0.00    +0.000 HD
ENDBRANCH   2  11
ENDBRANCH   1   6
BRANCH   1  15
ATOM     15  C   UNL     1      46.125   7.487  11.846  0.00  0.00    +0.000 C 
BRANCH  15  16
ATOM     16  C   UNL     1      45.275   6.290  11.482  0.00  0.00    +0.000 A 
ATOM     17  C   UNL     1      44.055   6.066  12.123  0.00  0.00    +0.000 A 
ATOM     18  C   UNL     1      43.224   5.043  11.683  0.00  0.00    +0.000 A 
ATOM     19  C   UNL     1      43.604   4.249  10.597  0.00  0.00    +0.000 A 
ATOM     20  C   UNL     1      44.818   4.441   9.922  0.00  0.00    +0.000 A 
ATOM     21  C   UNL     1      45.646   5.467  10.401  0.00  0.00    +0.000 A 
BRANCH  20  22
ATOM     22  N   UNL     1      45.173   3.650   8.845  0.00  0.00    +0.000 N 
ATOM     23  C   UNL     1      44.761   2.248   8.757  0.00  0.00    +0.000 C 
ATOM     24  C   UNL     1      45.986   1.385   8.470  0.00  0.00    +0.000 C 
ATOM     25  C   UNL     1      46.729   1.878   7.228  0.00  0.00    +0.000 C 
ATOM     26  C   UNL     1      47.049   3.370   7.328  0.00  0.00    +0.000 C 
ATOM     27  C   UNL     1      45.801   4.198   7.644  0.00  0.00    +0.000 C 
ENDBRANCH  20  22
ENDBRANCH  15  16
ENDBRANCH   1  15
TORSDOF 5
ENDMDL
MODEL 5
REMARK VINA RESULT:    -7.319      4.297      8.106
REMARK INTER + INTRA:         -10.469
REMARK INTER:                  -9.941
REMARK INTRA:                  -0.528
REMARK UNBOUND:                -1.010
REMARK  Name = 
REMARK  5 active torsions:
REMARK  status: ('A' for Active; 'I' for Inactive)
REMARK    1  A    between atoms: C_2  and  C_4
REMARK    2  A    between atoms: N_8  and  C_9
REMARK    3  A    between atoms: C_9  and  C_10
REMARK    4  A    between atoms: C_10  and  C_11
REMARK    5  A    between atoms: C_15  and  N_16
REMARK                            x       y       z     vdW  Elec       q    Type
REMARK                         _______ _______ _______ _____ _____    ______ ____
ROOT
ATOM      1  C   UNL     1      47.019   5.920  13.444  0.00  0.00    +0.000 C 
ENDROOT
BRANCH   1   6
ATOM      2  C   UNL     1      48.543   4.547  18.114  0.00  0.00    +0.000 A 
ATOM      3  C   UNL     1      48.834   5.661  17.337  0.00  0.00    +0.000 A 
ATOM      4  C   UNL     1      48.297   5.752  16.056  0.00  0.00    +0.000 A 
ATOM      5  C   UNL     1      47.479   4.734  15.567  0.00  0.00    +0.000 A 
ATOM      6  N   UNL     1      46.905   4.776  14.320  0.00  0.00    +0.000 N 
ATOM      7  N   UNL     1      47.213   3.638  16.302  0.00  0.00    +0.000 NA
ATOM      8  C   UNL     1      47.752   3.559  17.549  0.00  0.00    +0.000 A 
ATOM      9  H   UNL     1      46.318   3.983  14.096  0.00  0.00    +0.000 HD
BRANCH   2  11
ATOM     10  N   UNL     1      48.282   3.644  20.353  0.00  0.00    +0.000 N 
ATOM     11  C   UNL     1      49.048   4.384  19.492  0.00  0.00    +0.000 C 
ATOM     12  O   UNL     1      50.119   4.861  19.840  0.00  0.00    +0.000 OA
ATOM     13  H   UNL     1      48.686   3.452  21.261  0.00  0.00    +0.000 HD
ATOM     14  H   UNL     1      47.532   3.042  20.037  0.00  0.00    +0.000 HD
ENDBRANCH   2  11
ENDBRANCH   1   6
BRANCH   1  15
ATOM     15  C   UNL     1      45.696   6.284  12.768  0.00  0.00    +0.000 C 
BRANCH  15  16
ATOM     16  C   UNL     1      45.077   5.024  12.206  0.00  0.00    +0.000 A 
ATOM     17  C   UNL     1      44.050   4.372  12.891  0.00  0.00    +0.000 A 
ATOM     18  C   UNL     1      43.400   3.297  12.297  0.00  0.00    +0.000 A 
ATOM     19  C   UNL     1      43.766   2.878  11.014  0.00  0.00    +0.000 A 
ATOM     20  C   UNL     1      44.789   3.506  10.288  0.00  0.00    +0.000 A 
ATOM     21  C   UNL     1      45.441   4.575  10.922  0.00  0.00    +0.000 A 
BRANCH  20  22
ATOM     22  N   UNL     1      45.132   3.083   9.019  0.00  0.00    +0.000 N 
ATOM     23  C   UNL     1      45.085   1.667   8.645  0.00  0.00    +0.000 C 
ATOM     24  C   UNL     1      46.418   1.273   8.014  0.00  0.00    +0.000 C 
ATOM     25  C   UNL     1      46.768   2.197   6.847  0.00  0.00    +0.000 C 
ATOM     26  C   UNL     1      46.706   3.667   7.263  0.00  0.00    +0.000 C 
ATOM     27  C   UNL     1      45.368   4.015   7.918  0.00  0.00    +0.000 C 
ENDBRANCH  20  22
ENDBRANCH  15  16
ENDBRANCH   1  15
TORSDOF 5
ENDMDL
MODEL 6
REMARK VINA RESULT:    -6.840      2.935      6.874
REMARK INTER + INTRA:          -9.849
REMARK INTER:                  -8.740
REMARK INTRA:                  -1.109
REMARK UNBOUND:                -1.010
REMARK  Name = 
REMARK  5 active torsions:
REMARK  status: ('A' for Active; 'I' for Inactive)
REMARK    1  A    between atoms: C_2  and  C_4
REMARK    2  A    between atoms: N_8  and  C_9
REMARK    3  A    between atoms: C_9  and  C_10
REMARK    4  A    between atoms: C_10  and  C_11
REMARK    5  A    between atoms: C_15  and  N_16
REMARK                            x       y       z     vdW  Elec       q    Type
REMARK                         _______ _______ _______ _____ _____    ______ ____
ROOT
ATOM      1  C   UNL     1      47.409   5.387  13.142  0.00  0.00    +0.000 C 
ENDROOT
BRANCH   1   6
ATOM      2  C   UNL     1      44.538   9.314  11.606  0.00  0.00    +0.000 A 
ATOM      3  C   UNL     1      44.748   8.053  11.061  0.00  0.00    +0.000 A 
ATOM      4  C   UNL     1      45.637   7.185  11.688  0.00  0.00    +0.000 A 
ATOM      5  C   UNL     1      46.303   7.581  12.846  0.00  0.00    +0.000 A 
ATOM      6  N   UNL     1      47.177   6.763  13.519  0.00  0.00    +0.000 N 
ATOM      7  N   UNL     1      46.126   8.811  13.368  0.00  0.00    +0.000 NA
ATOM      8  C   UNL     1      45.261   9.652  12.739  0.00  0.00    +0.000 A 
ATOM      9  H   UNL     1      47.577   7.166  14.356  0.00  0.00    +0.000 HD
BRANCH   2  11
ATOM     10  N   UNL     1      43.426  11.470  11.687  0.00  0.00    +0.000 N 
ATOM     11  C   UNL     1      43.592  10.286  11.021  0.00  0.00    +0.000 C 
ATOM     12  O   UNL     1      43.009  10.057   9.971  0.00  0.00    +0.000 OA
ATOM     13  H   UNL     1      42.857  12.169  11.225  0.00  0.00    +0.000 HD
ATOM     14  H   UNL     1      44.064  11.787  12.407  0.00  0.00    +0.000 HD
ENDBRANCH   2  11
ENDBRANCH   1   6
BRANCH   1  15
ATOM     15  C   UNL     1      46.434   4.416  13.810  0.00  0.00    +0.000 C 
BRANCH  15  16
ATOM     16  C   UNL     1      45.322   4.100  12.835  0.00  0.00    +0.000 A 
ATOM     17  C   UNL     1      43.991   4.362  13.167  0.00  0.00    +0.000 A 
ATOM     18  C   UNL     1      42.997   4.195  12.211  0.00  0.00    +0.000 A 
ATOM     19  C   UNL     1      43.330   3.778  10.919  0.00  0.00    +0.000 A 
ATOM     20  C   UNL     1      44.653   3.507  10.541  0.00  0.00    +0.000 A 
ATOM     21  C   UNL     1      45.633   3.664  11.533  0.00  0.00    +0.000 A 
BRANCH  20  22
ATOM     22  N   UNL     1      44.963   3.102   9.256  0.00  0.00    +0.000 N 
ATOM     23  C   UNL     1      44.994   1.686   8.887  0.00  0.00    +0.000 C 
ATOM     24  C   UNL     1      46.319   1.380   8.193  0.00  0.00    +0.000 C 
ATOM     25  C   UNL     1      46.551   2.320   7.010  0.00  0.00    +0.000 C 
ATOM     26  C   UNL     1      46.409   3.784   7.427  0.00  0.00    +0.000 C 
ATOM     27  C   UNL     1      45.082   4.044   8.144  0.00  0.00    +0.000 C 
ENDBRANCH  20  22
ENDBRANCH  15  16
ENDBRANCH   1  15
TORSDOF 5
ENDMDL
MODEL 7
REMARK VINA RESULT:    -6.634      2.819      6.736
REMARK INTER + INTRA:          -9.584
REMARK INTER:                  -8.790
REMARK INTRA:                  -0.794
REMARK UNBOUND:                -1.010
REMARK  Name = 
REMARK  5 active torsions:
REMARK  status: ('A' for Active; 'I' for Inactive)
REMARK    1  A    between atoms: C_2  and  C_4
REMARK    2  A    between atoms: N_8  and  C_9
REMARK    3  A    between atoms: C_9  and  C_10
REMARK    4  A    between atoms: C_10  and  C_11
REMARK    5  A    between atoms: C_15  and  N_16
REMARK                            x       y       z     vdW  Elec       q    Type
REMARK                         _______ _______ _______ _____ _____    ______ ____
ROOT
ATOM      1  C   UNL     1      44.973   7.187  12.773  0.00  0.00    +0.000 C 
ENDROOT
BRANCH   1   6
ATOM      2  C   UNL     1      49.837   8.324  11.742  0.00  0.00    +0.000 A 
ATOM      3  C   UNL     1      49.153   7.115  11.752  0.00  0.00    +0.000 A 
ATOM      4  C   UNL     1      47.811   7.101  12.121  0.00  0.00    +0.000 A 
ATOM      5  C   UNL     1      47.169   8.287  12.474  0.00  0.00    +0.000 A 
ATOM      6  N   UNL     1      45.844   8.339  12.829  0.00  0.00    +0.000 N 
ATOM      7  N   UNL     1      47.831   9.460  12.493  0.00  0.00    +0.000 NA
ATOM      8  C   UNL     1      49.145   9.457  12.140  0.00  0.00    +0.000 A 
ATOM      9  H   UNL     1      45.498   9.265  13.043  0.00  0.00    +0.000 HD
BRANCH   2  11
ATOM     10  N   UNL     1      51.862   7.291  10.888  0.00  0.00    +0.000 N 
ATOM     11  C   UNL     1      51.254   8.433  11.338  0.00  0.00    +0.000 C 
ATOM     12  O   UNL     1      51.848   9.501  11.371  0.00  0.00    +0.000 OA
ATOM     13  H   UNL     1      52.797   7.397  10.517  0.00  0.00    +0.000 HD
ATOM     14  H   UNL     1      51.342   6.465  10.619  0.00  0.00    +0.000 HD
ENDBRANCH   2  11
ENDBRANCH   1   6
BRANCH   1  15
ATOM     15  C   UNL     1      44.504   6.864  11.354  0.00  0.00    +0.000 C 
BRANCH  15  16
ATOM     16  C   UNL     1      44.446   5.361  11.195  0.00  0.00    +0.000 A 
ATOM     17  C   UNL     1      43.782   4.573  12.137  0.00  0.00    +0.000 A 
ATOM     18  C   UNL     1      43.620   3.212  11.905  0.00  0.00    +0.000 A 
ATOM     19  C   UNL     1      44.109   2.638  10.728  0.00  0.00    +0.000 A 
ATOM     20  C   UNL     1      44.778   3.392   9.753  0.00  0.00    +0.000 A 
ATOM     21  C   UNL     1      44.945   4.759  10.024  0.00  0.00    +0.000 A 
BRANCH  20  22
ATOM     22  N   UNL     1      45.248   2.809   8.592  0.00  0.00    +0.000 N 
ATOM     23  C   UNL     1      45.307   1.354   8.437  0.00  0.00    +0.000 C 
ATOM     24  C   UNL     1      46.707   0.957   7.975  0.00  0.00    +0.000 C 
ATOM     25  C   UNL     1      47.106   1.719   6.711  0.00  0.00    +0.000 C 
ATOM     26  C   UNL     1      46.932   3.227   6.892  0.00  0.00    +0.000 C 
ATOM     27  C   UNL     1      45.526   3.581   7.383  0.00  0.00    +0.000 C 
ENDBRANCH  20  22
ENDBRANCH  15  16
ENDBRANCH   1  15
TORSDOF 5
ENDMDL
MODEL 8
REMARK VINA RESULT:    -6.443      3.395      5.765
REMARK INTER + INTRA:          -9.337
REMARK INTER:                  -8.503
REMARK INTRA:                  -0.834
REMARK UNBOUND:                -1.010
REMARK  Name = 
REMARK  5 active torsions:
REMARK  status: ('A' for Active; 'I' for Inactive)
REMARK    1  A    between atoms: C_2  and  C_4
REMARK    2  A    between atoms: N_8  and  C_9
REMARK    3  A    between atoms: C_9  and  C_10
REMARK    4  A    between atoms: C_10  and  C_11
REMARK    5  A    between atoms: C_15  and  N_16
REMARK                            x       y       z     vdW  Elec       q    Type
REMARK                         _______ _______ _______ _____ _____    ______ ____
ROOT
ATOM      1  C   UNL     1      46.836   8.539  12.715  0.00  0.00    +0.000 C 
ENDROOT
BRANCH   1   6
ATOM      2  C   UNL     1      44.352   4.265  11.457  0.00  0.00    +0.000 A 
ATOM      3  C   UNL     1      45.277   5.034  10.763  0.00  0.00    +0.000 A 
ATOM      4  C   UNL     1      45.766   6.197  11.351  0.00  0.00    +0.000 A 
ATOM      5  C   UNL     1      45.329   6.579  12.618  0.00  0.00    +0.000 A 
ATOM      6  N   UNL     1      45.788   7.704  13.257  0.00  0.00    +0.000 N 
ATOM      7  N   UNL     1      44.412   5.854  13.288  0.00  0.00    +0.000 NA
ATOM      8  C   UNL     1      43.935   4.724  12.697  0.00  0.00    +0.000 A 
ATOM      9  H   UNL     1      45.404   7.854  14.181  0.00  0.00    +0.000 HD
BRANCH   2  11
ATOM     10  N   UNL     1      44.295   2.575   9.716  0.00  0.00    +0.000 N 
ATOM     11  C   UNL     1      43.803   3.004  10.919  0.00  0.00    +0.000 C 
ATOM     12  O   UNL     1      42.971   2.354  11.536  0.00  0.00    +0.000 OA
ATOM     13  H   UNL     1      43.989   1.660   9.406  0.00  0.00    +0.000 HD
ATOM     14  H   UNL     1      45.142   2.948   9.307  0.00  0.00    +0.000 HD
ENDBRANCH   2  11
ENDBRANCH   1   6
BRANCH   1  15
ATOM     15  C   UNL     1      48.235   7.974  12.964  0.00  0.00    +0.000 C 
BRANCH  15  16
ATOM     16  C   UNL     1      48.468   7.900  14.456  0.00  0.00    +0.000 A 
ATOM     17  C   UNL     1      48.402   9.053  15.242  0.00  0.00    +0.000 A 
ATOM     18  C   UNL     1      48.481   8.948  16.625  0.00  0.00    +0.000 A 
ATOM     19  C   UNL     1      48.615   7.694  17.227  0.00  0.00    +0.000 A 
ATOM     20  C   UNL     1      48.682   6.511  16.478  0.00  0.00    +0.000 A 
ATOM     21  C   UNL     1      48.620   6.648  15.083  0.00  0.00    +0.000 A 
BRANCH  20  22
ATOM     22  N   UNL     1      48.807   5.279  17.091  0.00  0.00    +0.000 N 
ATOM     23  C   UNL     1      49.939   4.972  17.968  0.00  0.00    +0.000 C 
ATOM     24  C   UNL     1      50.574   3.657  17.523  0.00  0.00    +0.000 C 
ATOM     25  C   UNL     1      49.534   2.538  17.460  0.00  0.00    +0.000 C 
ATOM     26  C   UNL     1      48.328   2.945  16.614  0.00  0.00    +0.000 C 
ATOM     27  C   UNL     1      47.738   4.281  17.073  0.00  0.00    +0.000 C 
ENDBRANCH  20  22
ENDBRANCH  15  16
ENDBRANCH   1  15
TORSDOF 5
ENDMDL
MODEL 9
REMARK VINA RESULT:    -6.378      3.795      6.476
REMARK INTER + INTRA:          -9.252
REMARK INTER:                  -8.081
REMARK INTRA:                  -1.171
REMARK UNBOUND:                -1.010
REMARK  Name = 
REMARK  5 active torsions:
REMARK  status: ('A' for Active; 'I' for Inactive)
REMARK    1  A    between atoms: C_2  and  C_4
REMARK    2  A    between atoms: N_8  and  C_9
REMARK    3  A    between atoms: C_9  and  C_10
REMARK    4  A    between atoms: C_10  and  C_11
REMARK    5  A    between atoms: C_15  and  N_16
REMARK                            x       y       z     vdW  Elec       q    Type
REMARK                         _______ _______ _______ _____ _____    ______ ____
ROOT
ATOM      1  C   UNL     1      49.345   7.385  13.116  0.00  0.00    +0.000 C 
ENDROOT
BRANCH   1   6
ATOM      2  C   UNL     1      44.959   4.808  12.741  0.00  0.00    +0.000 A 
ATOM      3  C   UNL     1      45.960   4.794  13.705  0.00  0.00    +0.000 A 
ATOM      4  C   UNL     1      47.087   5.589  13.520  0.00  0.00    +0.000 A 
ATOM      5  C   UNL     1      47.204   6.385  12.382  0.00  0.00    +0.000 A 
ATOM      6  N   UNL     1      48.283   7.203  12.153  0.00  0.00    +0.000 N 
ATOM      7  N   UNL     1      46.252   6.385  11.429  0.00  0.00    +0.000 NA
ATOM      8  C   UNL     1      45.160   5.596  11.618  0.00  0.00    +0.000 A 
ATOM      9  H   UNL     1      48.233   7.742  11.298  0.00  0.00    +0.000 HD
BRANCH   2  11
ATOM     10  N   UNL     1      43.801   2.680  12.588  0.00  0.00    +0.000 N 
ATOM     11  C   UNL     1      43.719   4.017  12.871  0.00  0.00    +0.000 C 
ATOM     12  O   UNL     1      42.672   4.527  13.247  0.00  0.00    +0.000 OA
ATOM     13  H   UNL     1      42.974   2.129  12.780  0.00  0.00    +0.000 HD
ATOM     14  H   UNL     1      44.684   2.190  12.517  0.00  0.00    +0.000 HD
ENDBRANCH   2  11
ENDBRANCH   1   6
BRANCH   1  15
ATOM     15  C   UNL     1      49.197   8.673  13.928  0.00  0.00    +0.000 C 
BRANCH  15  16
ATOM     16  C   UNL     1      48.989   8.307  15.380  0.00  0.00    +0.000 A 
ATOM     17  C   UNL     1      48.561   9.268  16.300  0.00  0.00    +0.000 A 
ATOM     18  C   UNL     1      48.244   8.886  17.597  0.00  0.00    +0.000 A 
ATOM     19  C   UNL     1      48.341   7.544  17.977  0.00  0.00    +0.000 A 
ATOM     20  C   UNL     1      48.761   6.546  17.086  0.00  0.00    +0.000 A 
ATOM     21  C   UNL     1      49.096   6.964  15.789  0.00  0.00    +0.000 A 
BRANCH  20  22
ATOM     22  N   UNL     1      48.844   5.223  17.477  0.00  0.00    +0.000 N 
ATOM     23  C   UNL     1      49.992   4.720  18.235  0.00  0.00    +0.000 C 
ATOM     24  C   UNL     1      50.537   3.472  17.546  0.00  0.00    +0.000 C 
ATOM     25  C   UNL     1      49.437   2.428  17.346  0.00  0.00    +0.000 C 
ATOM     26  C   UNL     1      48.222   3.029  16.639  0.00  0.00    +0.000 C 
ATOM     27  C   UNL     1      47.724   4.294  17.344  0.00  0.00    +0.000 C 
ENDBRANCH  20  22
ENDBRANCH  15  16
ENDBRANCH   1  15
TORSDOF 5
ENDMDL
