MODEL 1
REMARK VINA RESULT:    -6.304      0.000      0.000
REMARK INTER + INTRA:          -8.266
REMARK INTER:                  -7.778
REMARK INTRA:                  -0.488
REMARK UNBOUND:                -0.488
REMARK  Name = 
REMARK  5 active torsions:
REMARK  status: ('A' for Active; 'I' for Inactive)
REMARK    1  A    between atoms: C_1  and  C_2
REMARK    2  A    between atoms: C_2  and  O_3
REMARK    3  A    between atoms: C_2  and  C_14
REMARK    4  A    between atoms: O_3  and  C_4
REMARK    5  A    between atoms: C_7  and  C_8
REMARK                            x       y       z     vdW  Elec       q    Type
REMARK                         _______ _______ _______ _____ _____    ______ ____
ROOT
ATOM      1  C   UNL     1      45.101   5.789  11.818  0.00  0.00    +0.000 A 
ATOM      2  N   UNL     1      44.292   6.545  11.039  0.00  0.00    +0.000 NA
ATOM      3  C   UNL     1      44.370   7.894  11.183  0.00  0.00    +0.000 A 
ATOM      4  C   UNL     1      45.214   8.536  12.077  0.00  0.00    +0.000 A 
ATOM      5  C   UNL     1      46.026   7.732  12.883  0.00  0.00    +0.000 A 
ATOM      6  C   UNL     1      45.986   6.343  12.743  0.00  0.00    +0.000 A 
ATOM      7  I   UNL     1      47.250   5.184  13.930  0.00  0.00    +0.000 I 
ENDROOT
BRANCH   4   8
ATOM      8  C   UNL     1      45.290  10.012  12.221  0.00  0.00    +0.000 C 
ATOM      9  N   UNL     1      46.501  10.599  12.447  0.00  0.00    +0.000 N 
ATOM     10  O   UNL     1      44.277  10.703  12.155  0.00  0.00    +0.000 OA
ATOM     11  H   UNL     1      47.367  10.119  12.639  0.00  0.00    +0.000 HD
ATOM     12  H   UNL     1      46.490  11.601  12.597  0.00  0.00    +0.000 HD
ENDBRANCH   4   8
BRANCH   1  13
ATOM     13  O   UNL     1      45.106   4.421  11.633  0.00  0.00    +0.000 OA
BRANCH  13  15
ATOM     14  C   UNL     1      43.412   2.741  11.247  0.00  0.00    +0.000 C 
ATOM     15  C   UNL     1      44.185   3.923  10.652  0.00  0.00    +0.000 C 
BRANCH  15  16
ATOM     16  C   UNL     1      44.938   3.419   9.435  0.00  0.00    +0.000 A 
ATOM     17  C   UNL     1      45.517   4.264   8.484  0.00  0.00    +0.000 A 
ATOM     18  C   UNL     1      46.315   3.728   7.476  0.00  0.00    +0.000 A 
ATOM     19  C   UNL     1      46.507   2.356   7.446  0.00  0.00    +0.000 A 
ATOM     20  N   UNL     1      45.945   1.502   8.327  0.00  0.00    +0.000 NA
ATOM     21  C   UNL     1      45.176   2.051   9.293  0.00  0.00    +0.000 A 
ENDBRANCH  15  16
ENDBRANCH  13  15
ENDBRANCH   1  13
TORSDOF 4
ENDMDL
MODEL 2
REMARK VINA RESULT:    -5.902      5.002      6.918
REMARK INTER + INTRA:          -7.770
REMARK INTER:                  -7.289
REMARK INTRA:                  -0.480
REMARK UNBOUND:                -0.488
REMARK  Name = 
REMARK  5 active torsions:
REMARK  status: ('A' for Active; 'I' for Inactive)
REMARK    1  A    between atoms: C_1  and  C_2
REMARK    2  A    between atoms: C_2  and  O_3
REMARK    3  A    between atoms: C_2  and  C_14
REMARK    4  A    between atoms: O_3  and  C_4
REMARK    5  A    between atoms: C_7  and  C_8
REMARK                            x       y       z     vdW  Elec       q    Type
REMARK                         _______ _______ _______ _____ _____    ______ ____
ROOT
ATOM      1  C   UNL     1      47.157   5.091  14.363  0.00  0.00    +0.000 A 
ATOM      2  N   UNL     1      46.403   3.991  14.132  0.00  0.00    +0.000 NA
ATOM      3  C   UNL     1      45.711   3.943  12.964  0.00  0.00    +0.000 A 
ATOM      4  C   UNL     1      45.723   4.949  12.008  0.00  0.00    +0.000 A 
ATOM      5  C   UNL     1      46.494   6.082  12.279  0.00  0.00    +0.000 A 
ATOM      6  C   UNL     1      47.236   6.152  13.461  0.00  0.00    +0.000 A 
ATOM      7  I   UNL     1      48.412   7.839  13.803  0.00  0.00    +0.000 I 
ENDROOT
BRANCH   4   8
ATOM      8  C   UNL     1      44.963   4.881  10.733  0.00  0.00    +0.000 C 
ATOM      9  N   UNL     1      45.478   5.472   9.617  0.00  0.00    +0.000 N 
ATOM     10  O   UNL     1      43.874   4.316  10.681  0.00  0.00    +0.000 OA
ATOM     11  H   UNL     1      46.296   6.061   9.581  0.00  0.00    +0.000 HD
ATOM     12  H   UNL     1      44.893   5.449   8.789  0.00  0.00    +0.000 HD
ENDBRANCH   4   8
BRANCH   1  13
ATOM     13  O   UNL     1      47.938   5.129  15.501  0.00  0.00    +0.000 OA
BRANCH  13  15
ATOM     14  C   UNL     1      47.131   4.539  17.702  0.00  0.00    +0.000 C 
ATOM     15  C   UNL     1      47.772   4.029  16.407  0.00  0.00    +0.000 C 
BRANCH  15  16
ATOM     16  C   UNL     1      49.122   3.434  16.759  0.00  0.00    +0.000 A 
ATOM     17  C   UNL     1      50.124   4.141  17.430  0.00  0.00    +0.000 A 
ATOM     18  C   UNL     1      51.278   3.480  17.845  0.00  0.00    +0.000 A 
ATOM     19  C   UNL     1      51.398   2.128  17.573  0.00  0.00    +0.000 A 
ATOM     20  N   UNL     1      50.469   1.413  16.904  0.00  0.00    +0.000 NA
ATOM     21  C   UNL     1      49.361   2.080  16.513  0.00  0.00    +0.000 A 
ENDBRANCH  15  16
ENDBRANCH  13  15
ENDBRANCH   1  13
TORSDOF 4
ENDMDL
MODEL 3
REMARK VINA RESULT:    -5.865      4.268      6.731
REMARK INTER + INTRA:          -7.724
REMARK INTER:                  -7.464
REMARK INTRA:                  -0.260
REMARK UNBOUND:                -0.488
REMARK  Name = 
REMARK  5 active torsions:
REMARK  status: ('A' for Active; 'I' for Inactive)
REMARK    1  A    between atoms: C_1  and  C_2
REMARK    2  A    between atoms: C_2  and  O_3
REMARK    3  A    between atoms: C_2  and  C_14
REMARK    4  A    between atoms: O_3  and  C_4
REMARK    5  A    between atoms: C_7  and  C_8
REMARK                            x       y       z     vdW  Elec       q    Type
REMARK                         _______ _______ _______ _____ _____    ______ ____
ROOT
ATOM      1  C   UNL     1      47.069   5.607  13.445  0.00  0.00    +0.000 A 
ATOM      2  N   UNL     1      46.034   4.793  13.760  0.00  0.00    +0.000 NA
ATOM      3  C   UNL     1      44.921   4.872  12.985  0.00  0.00    +0.000 A 
ATOM      4  C   UNL     1      44.779   5.733  11.907  0.00  0.00    +0.000 A 
ATOM      5  C   UNL     1      45.856   6.576  11.614  0.00  0.00    +0.000 A 
ATOM      6  C   UNL     1      47.023   6.503  12.378  0.00  0.00    +0.000 A 
ATOM      7  I   UNL     1      48.623   7.743  11.876  0.00  0.00    +0.000 I 
ENDROOT
BRANCH   4   8
ATOM      8  C   UNL     1      43.557   5.806  11.066  0.00  0.00    +0.000 C 
ATOM      9  N   UNL     1      42.662   6.814  11.275  0.00  0.00    +0.000 N 
ATOM     10  O   UNL     1      43.338   4.961  10.203  0.00  0.00    +0.000 OA
ATOM     11  H   UNL     1      42.685   7.481  12.031  0.00  0.00    +0.000 HD
ATOM     12  H   UNL     1      41.818   6.784  10.716  0.00  0.00    +0.000 HD
ENDBRANCH   4   8
BRANCH   1  13
ATOM     13  O   UNL     1      48.244   5.488  14.161  0.00  0.00    +0.000 OA
BRANCH  13  15
ATOM     14  C   UNL     1      49.535   6.964  15.573  0.00  0.00    +0.000 C 
ATOM     15  C   UNL     1      48.257   6.128  15.445  0.00  0.00    +0.000 C 
BRANCH  15  16
ATOM     16  C   UNL     1      48.270   5.088  16.549  0.00  0.00    +0.000 A 
ATOM     17  C   UNL     1      47.273   4.121  16.707  0.00  0.00    +0.000 A 
ATOM     18  C   UNL     1      47.431   3.112  17.655  0.00  0.00    +0.000 A 
ATOM     19  C   UNL     1      48.584   3.103  18.422  0.00  0.00    +0.000 A 
ATOM     20  N   UNL     1      49.559   4.032  18.322  0.00  0.00    +0.000 NA
ATOM     21  C   UNL     1      49.377   4.998  17.394  0.00  0.00    +0.000 A 
ENDBRANCH  15  16
ENDBRANCH  13  15
ENDBRANCH   1  13
TORSDOF 4
ENDMDL
MODEL 4
REMARK VINA RESULT:    -5.469      3.291      4.503
REMARK INTER + INTRA:          -7.236
REMARK INTER:                  -7.551
REMARK INTRA:                   0.315
REMARK UNBOUND:                -0.488
REMARK  Name = 
REMARK  5 active torsions:
REMARK  status: ('A' for Active; 'I' for Inactive)
REMARK    1  A    between atoms: C_1  and  C_2
REMARK    2  A    between atoms: C_2  and  O_3
REMARK    3  A    between atoms: C_2  and  C_14
REMARK    4  A    between atoms: O_3  and  C_4
REMARK    5  A    between atoms: C_7  and  C_8
REMARK                            x       y       z     vdW  Elec       q    Type
REMARK                         _______ _______ _______ _____ _____    ______ ____
ROOT
ATOM      1  C   UNL     1      46.995   5.628  12.833  0.00  0.00    +0.000 A 
ATOM      2  N   UNL     1      46.618   4.342  13.019  0.00  0.00    +0.000 NA
ATOM      3  C   UNL     1      46.798   3.812  14.257  0.00  0.00    +0.000 A 
ATOM      4  C   UNL     1      47.347   4.502  15.329  0.00  0.00    +0.000 A 
ATOM      5  C   UNL     1      47.744   5.824  15.105  0.00  0.00    +0.000 A 
ATOM      6  C   UNL     1      47.552   6.404  13.849  0.00  0.00    +0.000 A 
ATOM      7  I   UNL     1      48.114   8.393  13.573  0.00  0.00    +0.000 I 
ENDROOT
BRANCH   4   8
ATOM      8  C   UNL     1      47.534   3.911  16.679  0.00  0.00    +0.000 C 
ATOM      9  N   UNL     1      48.716   4.101  17.332  0.00  0.00    +0.000 N 
ATOM     10  O   UNL     1      46.646   3.242  17.200  0.00  0.00    +0.000 OA
ATOM     11  H   UNL     1      49.546   4.525  16.947  0.00  0.00    +0.000 HD
ATOM     12  H   UNL     1      48.815   3.628  18.223  0.00  0.00    +0.000 HD
ENDBRANCH   4   8
BRANCH   1  13
ATOM     13  O   UNL     1      46.745   6.219  11.610  0.00  0.00    +0.000 OA
BRANCH  13  15
ATOM     14  C   UNL     1      44.485   6.162  12.464  0.00  0.00    +0.000 C 
ATOM     15  C   UNL     1      45.367   6.275  11.216  0.00  0.00    +0.000 C 
BRANCH  15  16
ATOM     16  C   UNL     1      45.035   5.108  10.305  0.00  0.00    +0.000 A 
ATOM     17  C   UNL     1      45.656   4.893   9.072  0.00  0.00    +0.000 A 
ATOM     18  C   UNL     1      45.400   3.721   8.363  0.00  0.00    +0.000 A 
ATOM     19  C   UNL     1      44.524   2.798   8.909  0.00  0.00    +0.000 A 
ATOM     20  N   UNL     1      43.881   2.978  10.082  0.00  0.00    +0.000 NA
ATOM     21  C   UNL     1      44.148   4.124  10.747  0.00  0.00    +0.000 A 
ENDBRANCH  15  16
ENDBRANCH  13  15
ENDBRANCH   1  13
TORSDOF 4
ENDMDL
MODEL 5
REMARK VINA RESULT:    -5.366      4.471      6.229
REMARK INTER + INTRA:          -7.108
REMARK INTER:                  -6.603
REMARK INTRA:                  -0.505
REMARK UNBOUND:                -0.488
REMARK  Name = 
REMARK  5 active torsions:
REMARK  status: ('A' for Active; 'I' for Inactive)
REMARK    1  A    between atoms: C_1  and  C_2
REMARK    2  A    between atoms: C_2  and  O_3
REMARK    3  A    between atoms: C_2  and  C_14
REMARK    4  A    between atoms: O_3  and  C_4
REMARK    5  A    between atoms: C_7  and  C_8
REMARK                            x       y       z     vdW  Elec       q    Type
REMARK                         _______ _______ _______ _____ _____    ______ ____
ROOT
ATOM      1  C   UNL     1      47.373   5.467  14.865  0.00  0.00    +0.000 A 
ATOM      2  N   UNL     1      46.956   4.191  15.045  0.00  0.00    +0.000 NA
ATOM      3  C   UNL     1      47.547   3.477  16.039  0.00  0.00    +0.000 A 
ATOM      4  C   UNL     1      48.546   3.969  16.866  0.00  0.00    +0.000 A 
ATOM      5  C   UNL     1      48.971   5.283  16.646  0.00  0.00    +0.000 A 
ATOM      6  C   UNL     1      48.368   6.050  15.648  0.00  0.00    +0.000 A 
ATOM      7  I   UNL     1      48.998   8.021  15.388  0.00  0.00    +0.000 I 
ENDROOT
BRANCH   4   8
ATOM      8  C   UNL     1      49.180   3.177  17.950  0.00  0.00    +0.000 C 
ATOM      9  N   UNL     1      48.893   3.475  19.250  0.00  0.00    +0.000 N 
ATOM     10  O   UNL     1      49.969   2.273  17.689  0.00  0.00    +0.000 OA
ATOM     11  H   UNL     1      48.361   4.268  19.573  0.00  0.00    +0.000 HD
ATOM     12  H   UNL     1      49.396   2.945  19.952  0.00  0.00    +0.000 HD
ENDBRANCH   4   8
BRANCH   1  13
ATOM     13  O   UNL     1      46.732   6.243  13.921  0.00  0.00    +0.000 OA
BRANCH  13  15
ATOM     14  C   UNL     1      47.364   6.767  11.647  0.00  0.00    +0.000 C 
ATOM     15  C   UNL     1      46.738   5.727  12.582  0.00  0.00    +0.000 C 
BRANCH  15  16
ATOM     16  C   UNL     1      45.318   5.474  12.111  0.00  0.00    +0.000 A 
ATOM     17  C   UNL     1      45.002   5.012  10.831  0.00  0.00    +0.000 A 
ATOM     18  C   UNL     1      43.687   4.666  10.525  0.00  0.00    +0.000 A 
ATOM     19  C   UNL     1      42.724   4.799  11.510  0.00  0.00    +0.000 A 
ATOM     20  N   UNL     1      42.980   5.268  12.750  0.00  0.00    +0.000 NA
ATOM     21  C   UNL     1      44.263   5.595  13.018  0.00  0.00    +0.000 A 
ENDBRANCH  15  16
ENDBRANCH  13  15
ENDBRANCH   1  13
TORSDOF 4
ENDMDL
MODEL 6
REMARK VINA RESULT:    -5.269      2.767      3.212
REMARK INTER + INTRA:          -6.989
REMARK INTER:                  -6.524
REMARK INTRA:                  -0.465
REMARK UNBOUND:                -0.488
REMARK  Name = 
REMARK  5 active torsions:
REMARK  status: ('A' for Active; 'I' for Inactive)
REMARK    1  A    between atoms: C_1  and  C_2
REMARK    2  A    between atoms: C_2  and  O_3
REMARK    3  A    between atoms: C_2  and  C_14
REMARK    4  A    between atoms: O_3  and  C_4
REMARK    5  A    between atoms: C_7  and  C_8
REMARK                            x       y       z     vdW  Elec       q    Type
REMARK                         _______ _______ _______ _____ _____    ______ ____
ROOT
ATOM      1  C   UNL     1      46.908   5.833  12.947  0.00  0.00    +0.000 A 
ATOM      2  N   UNL     1      47.151   6.711  11.946  0.00  0.00    +0.000 NA
ATOM      3  C   UNL     1      48.206   7.554  12.099  0.00  0.00    +0.000 A 
ATOM      4  C   UNL     1      49.035   7.573  13.212  0.00  0.00    +0.000 A 
ATOM      5  C   UNL     1      48.751   6.668  14.238  0.00  0.00    +0.000 A 
ATOM      6  C   UNL     1      47.688   5.773  14.102  0.00  0.00    +0.000 A 
ATOM      7  I   UNL     1      47.330   4.406  15.635  0.00  0.00    +0.000 I 
ENDROOT
BRANCH   4   8
ATOM      8  C   UNL     1      50.188   8.498  13.363  0.00  0.00    +0.000 C 
ATOM      9  N   UNL     1      51.408   7.994  13.707  0.00  0.00    +0.000 N 
ATOM     10  O   UNL     1      50.048   9.707  13.200  0.00  0.00    +0.000 OA
ATOM     11  H   UNL     1      51.601   7.043  13.982  0.00  0.00    +0.000 HD
ATOM     12  H   UNL     1      52.146   8.673  13.856  0.00  0.00    +0.000 HD
ENDBRANCH   4   8
BRANCH   1  13
ATOM     13  O   UNL     1      45.897   4.908  12.781  0.00  0.00    +0.000 OA
BRANCH  13  15
ATOM     14  C   UNL     1      43.490   5.121  12.751  0.00  0.00    +0.000 C 
ATOM     15  C   UNL     1      44.791   5.332  11.971  0.00  0.00    +0.000 C 
BRANCH  15  16
ATOM     16  C   UNL     1      44.717   4.497  10.707  0.00  0.00    +0.000 A 
ATOM     17  C   UNL     1      45.283   4.889   9.491  0.00  0.00    +0.000 A 
ATOM     18  C   UNL     1      45.297   4.002   8.417  0.00  0.00    +0.000 A 
ATOM     19  C   UNL     1      44.739   2.747   8.590  0.00  0.00    +0.000 A 
ATOM     20  N   UNL     1      44.157   2.337   9.737  0.00  0.00    +0.000 NA
ATOM     21  C   UNL     1      44.157   3.219  10.762  0.00  0.00    +0.000 A 
ENDBRANCH  15  16
ENDBRANCH  13  15
ENDBRANCH   1  13
TORSDOF 4
ENDMDL
MODEL 7
REMARK VINA RESULT:    -5.255      4.838      7.524
REMARK INTER + INTRA:          -6.972
REMARK INTER:                  -6.435
REMARK INTRA:                  -0.537
REMARK UNBOUND:                -0.488
REMARK  Name = 
REMARK  5 active torsions:
REMARK  status: ('A' for Active; 'I' for Inactive)
REMARK    1  A    between atoms: C_1  and  C_2
REMARK    2  A    between atoms: C_2  and  O_3
REMARK    3  A    between atoms: C_2  and  C_14
REMARK    4  A    between atoms: O_3  and  C_4
REMARK    5  A    between atoms: C_7  and  C_8
REMARK                            x       y       z     vdW  Elec       q    Type
REMARK                         _______ _______ _______ _____ _____    ______ ____
ROOT
ATOM      1  C   UNL     1      47.622   5.747  13.868  0.00  0.00    +0.000 A 
ATOM      2  N   UNL     1      47.493   4.418  14.088  0.00  0.00    +0.000 NA
ATOM      3  C   UNL     1      46.474   3.777  13.457  0.00  0.00    +0.000 A 
ATOM      4  C   UNL     1      45.564   4.399  12.614  0.00  0.00    +0.000 A 
ATOM      5  C   UNL     1      45.709   5.776  12.418  0.00  0.00    +0.000 A 
ATOM      6  C   UNL     1      46.759   6.459  13.035  0.00  0.00    +0.000 A 
ATOM      7  I   UNL     1      46.968   8.502  12.675  0.00  0.00    +0.000 I 
ENDROOT
BRANCH   4   8
ATOM      8  C   UNL     1      44.458   3.685  11.928  0.00  0.00    +0.000 C 
ATOM      9  N   UNL     1      43.934   2.561  12.497  0.00  0.00    +0.000 N 
ATOM     10  O   UNL     1      44.025   4.085  10.850  0.00  0.00    +0.000 OA
ATOM     11  H   UNL     1      44.295   2.083  13.308  0.00  0.00    +0.000 HD
ATOM     12  H   UNL     1      43.222   2.079  11.960  0.00  0.00    +0.000 HD
ENDBRANCH   4   8
BRANCH   1  13
ATOM     13  O   UNL     1      48.698   6.407  14.427  0.00  0.00    +0.000 OA
BRANCH  13  15
ATOM     14  C   UNL     1      48.943   8.125  16.110  0.00  0.00    +0.000 C 
ATOM     15  C   UNL     1      48.611   6.654  15.838  0.00  0.00    +0.000 C 
BRANCH  15  16
ATOM     16  C   UNL     1      49.624   5.804  16.581  0.00  0.00    +0.000 A 
ATOM     17  C   UNL     1      50.980   6.129  16.675  0.00  0.00    +0.000 A 
ATOM     18  C   UNL     1      51.817   5.376  17.497  0.00  0.00    +0.000 A 
ATOM     19  C   UNL     1      51.271   4.314  18.198  0.00  0.00    +0.000 A 
ATOM     20  N   UNL     1      49.975   3.948  18.114  0.00  0.00    +0.000 NA
ATOM     21  C   UNL     1      49.187   4.696  17.310  0.00  0.00    +0.000 A 
ENDBRANCH  15  16
ENDBRANCH  13  15
ENDBRANCH   1  13
TORSDOF 4
ENDMDL
MODEL 8
REMARK VINA RESULT:    -5.167      4.433      6.733
REMARK INTER + INTRA:          -6.863
REMARK INTER:                  -6.500
REMARK INTRA:                  -0.363
REMARK UNBOUND:                -0.488
REMARK  Name = 
REMARK  5 active torsions:
REMARK  status: ('A' for Active; 'I' for Inactive)
REMARK    1  A    between atoms: C_1  and  C_2
REMARK    2  A    between atoms: C_2  and  O_3
REMARK    3  A    between atoms: C_2  and  C_14
REMARK    4  A    between atoms: O_3  and  C_4
REMARK    5  A    between atoms: C_7  and  C_8
REMARK                            x       y       z     vdW  Elec       q    Type
REMARK                         _______ _______ _______ _____ _____    ______ ____
ROOT
ATOM      1  C   UNL     1      48.394   6.275  14.941  0.00  0.00    +0.000 A 
ATOM      2  N   UNL     1      47.659   5.204  14.558  0.00  0.00    +0.000 NA
ATOM      3  C   UNL     1      47.392   4.262  15.500  0.00  0.00    +0.000 A 
ATOM      4  C   UNL     1      47.830   4.327  16.815  0.00  0.00    +0.000 A 
ATOM      5  C   UNL     1      48.602   5.434  17.180  0.00  0.00    +0.000 A 
ATOM      6  C   UNL     1      48.875   6.431  16.241  0.00  0.00    +0.000 A 
ATOM      7  I   UNL     1      49.988   8.089  16.841  0.00  0.00    +0.000 I 
ENDROOT
BRANCH   4   8
ATOM      8  C   UNL     1      47.527   3.290  17.835  0.00  0.00    +0.000 C 
ATOM      9  N   UNL     1      48.352   3.154  18.914  0.00  0.00    +0.000 N 
ATOM     10  O   UNL     1      46.557   2.548  17.707  0.00  0.00    +0.000 OA
ATOM     11  H   UNL     1      49.233   3.624  19.050  0.00  0.00    +0.000 HD
ATOM     12  H   UNL     1      48.135   2.394  19.548  0.00  0.00    +0.000 HD
ENDBRANCH   4   8
BRANCH   1  13
ATOM     13  O   UNL     1      48.607   7.289  14.029  0.00  0.00    +0.000 OA
BRANCH  13  15
ATOM     14  C   UNL     1      49.563   7.655  11.839  0.00  0.00    +0.000 C 
ATOM     15  C   UNL     1      48.490   6.918  12.648  0.00  0.00    +0.000 C 
BRANCH  15  16
ATOM     16  C   UNL     1      47.135   7.334  12.108  0.00  0.00    +0.000 A 
ATOM     17  C   UNL     1      46.235   6.441  11.518  0.00  0.00    +0.000 A 
ATOM     18  C   UNL     1      44.954   6.873  11.180  0.00  0.00    +0.000 A 
ATOM     19  C   UNL     1      44.612   8.190  11.438  0.00  0.00    +0.000 A 
ATOM     20  N   UNL     1      45.458   9.092  11.980  0.00  0.00    +0.000 NA
ATOM     21  C   UNL     1      46.693   8.645  12.297  0.00  0.00    +0.000 A 
ENDBRANCH  15  16
ENDBRANCH  13  15
ENDBRANCH   1  13
TORSDOF 4
ENDMDL
MODEL 9
REMARK VINA RESULT:    -5.160      3.580      6.851
REMARK INTER + INTRA:          -6.854
REMARK INTER:                  -6.242
REMARK INTRA:                  -0.612
REMARK UNBOUND:                -0.488
REMARK  Name = 
REMARK  5 active torsions:
REMARK  status: ('A' for Active; 'I' for Inactive)
REMARK    1  A    between atoms: C_1  and  C_2
REMARK    2  A    between atoms: C_2  and  O_3
REMARK    3  A    between atoms: C_2  and  C_14
REMARK    4  A    between atoms: O_3  and  C_4
REMARK    5  A    between atoms: C_7  and  C_8
REMARK                            x       y       z     vdW  Elec       q    Type
REMARK                         _______ _______ _______ _____ _____    ______ ____
ROOT
ATOM      1  C   UNL     1      47.165   5.861  12.729  0.00  0.00    +0.000 A 
ATOM      2  N   UNL     1      46.660   6.459  11.625  0.00  0.00    +0.000 NA
ATOM      3  C   UNL     1      45.358   6.210  11.322  0.00  0.00    +0.000 A 
ATOM      4  C   UNL     1      44.528   5.383  12.064  0.00  0.00    +0.000 A 
ATOM      5  C   UNL     1      45.080   4.764  13.190  0.00  0.00    +0.000 A 
ATOM      6  C   UNL     1      46.408   5.016  13.541  0.00  0.00    +0.000 A 
ATOM      7  I   UNL     1      47.176   4.111  15.255  0.00  0.00    +0.000 I 
ENDROOT
BRANCH   4   8
ATOM      8  C   UNL     1      43.106   5.124  11.723  0.00  0.00    +0.000 C 
ATOM      9  N   UNL     1      42.203   6.143  11.808  0.00  0.00    +0.000 N 
ATOM     10  O   UNL     1      42.736   4.003  11.383  0.00  0.00    +0.000 OA
ATOM     11  H   UNL     1      42.376   7.059  12.190  0.00  0.00    +0.000 HD
ATOM     12  H   UNL     1      41.236   5.899  11.622  0.00  0.00    +0.000 HD
ENDBRANCH   4   8
BRANCH   1  13
ATOM     13  O   UNL     1      48.457   6.162  13.110  0.00  0.00    +0.000 OA
BRANCH  13  15
ATOM     14  C   UNL     1      50.083   7.858  12.543  0.00  0.00    +0.000 C 
ATOM     15  C   UNL     1      48.756   7.559  13.248  0.00  0.00    +0.000 C 
BRANCH  15  16
ATOM     16  C   UNL     1      48.916   7.918  14.713  0.00  0.00    +0.000 A 
ATOM     17  C   UNL     1      48.238   8.975  15.325  0.00  0.00    +0.000 A 
ATOM     18  C   UNL     1      48.327   9.148  16.705  0.00  0.00    +0.000 A 
ATOM     19  C   UNL     1      49.101   8.259  17.432  0.00  0.00    +0.000 A 
ATOM     20  N   UNL     1      49.795   7.243  16.879  0.00  0.00    +0.000 NA
ATOM     21  C   UNL     1      49.689   7.099  15.539  0.00  0.00    +0.000 A 
ENDBRANCH  15  16
ENDBRANCH  13  15
ENDBRANCH   1  13
TORSDOF 4
ENDMDL
