MODEL 1
REMARK VINA RESULT:    -9.057      0.000      0.000
REMARK INTER + INTRA:         -12.477
REMARK INTER:                 -12.234
REMARK INTRA:                  -0.242
REMARK UNBOUND:                -0.242
REMARK  Name = 
REMARK  6 active torsions:
REMARK  status: ('A' for Active; 'I' for Inactive)
REMARK    1  A    between atoms: C_2  and  C_5
REMARK    2  A    between atoms: C_9  and  N_10
REMARK    3  A    between atoms: N_10  and  C_11
REMARK    4  A    between atoms: C_11  and  C_12
REMARK    5  A    between atoms: C_16  and  C_17
REMARK    6  A    between atoms: C_21  and  C_22
REMARK                            x       y       z     vdW  Elec       q    Type
REMARK                         _______ _______ _______ _____ _____    ______ ____
ROOT
ATOM      1  C   UNL     1      44.262   4.865  12.004  0.00  0.00    +0.000 A 
ATOM      2  C   UNL     1      44.170   6.143  11.457  0.00  0.00    +0.000 A 
ATOM      3  C   UNL     1      45.008   7.130  11.950  0.00  0.00    +0.000 A 
ATOM      4  N   UNL     1      45.926   6.930  12.923  0.00  0.00    +0.000 NA
ATOM      5  C   UNL     1      46.046   5.679  13.430  0.00  0.00    +0.000 A 
ATOM      6  C   UNL     1      45.229   4.636  12.991  0.00  0.00    +0.000 A 
ENDROOT
BRANCH   5   7
ATOM      7  C   UNL     1      47.073   5.491  14.476  0.00  0.00    +0.000 A 
ATOM      8  C   UNL     1      48.062   6.456  14.711  0.00  0.00    +0.000 A 
ATOM      9  C   UNL     1      49.026   6.224  15.676  0.00  0.00    +0.000 A 
ATOM     10  N   UNL     1      49.079   5.107  16.426  0.00  0.00    +0.000 NA
ATOM     11  C   UNL     1      48.114   4.164  16.227  0.00  0.00    +0.000 A 
ATOM     12  C   UNL     1      47.107   4.333  15.272  0.00  0.00    +0.000 A 
BRANCH  11  13
ATOM     13  C   UNL     1      48.147   2.886  17.054  0.00  0.00    +0.000 C 
ATOM     14  F   UNL     1      46.938   2.519  17.569  0.00  0.00    +0.000 F 
ATOM     15  F   UNL     1      48.587   1.810  16.341  0.00  0.00    +0.000 F 
ATOM     16  F   UNL     1      48.989   2.981  18.127  0.00  0.00    +0.000 F 
ENDBRANCH  11  13
ENDBRANCH   5   7
BRANCH   1  17
ATOM     17  C   UNL     1      43.343   3.749  11.574  0.00  0.00    +0.000 C 
BRANCH  17  18
ATOM     18  N   UNL     1      44.105   2.670  10.968  0.00  0.00    +0.000 N 
ATOM     19  H   UNL     1      44.713   2.179  11.622  0.00  0.00    +0.000 HD
BRANCH  18  24
ATOM     20  C   UNL     1      46.162   2.179   7.878  0.00  0.00    +0.000 A 
ATOM     21  C   UNL     1      45.958   3.424   7.309  0.00  0.00    +0.000 A 
ATOM     22  N   UNL     1      45.187   4.379   7.868  0.00  0.00    +0.000 NA
ATOM     23  C   UNL     1      44.592   4.072   9.050  0.00  0.00    +0.000 A 
ATOM     24  C   UNL     1      44.694   2.845   9.713  0.00  0.00    +0.000 A 
ATOM     25  C   UNL     1      45.528   1.906   9.102  0.00  0.00    +0.000 A 
BRANCH  20  27
ATOM     26  F   UNL     1      46.884  -0.098   7.707  0.00  0.00    +0.000 F 
ATOM     27  C   UNL     1      47.030   1.160   7.211  0.00  0.00    +0.000 C 
ATOM     28  F   UNL     1      48.356   1.455   7.327  0.00  0.00    +0.000 F 
ATOM     29  F   UNL     1      46.790   1.065   5.873  0.00  0.00    +0.000 F 
ENDBRANCH  20  27
ENDBRANCH  18  24
ENDBRANCH  17  18
ENDBRANCH   1  17
TORSDOF 6
ENDMDL
MODEL 2
REMARK VINA RESULT:    -8.709      3.865      5.377
REMARK INTER + INTRA:         -12.005
REMARK INTER:                 -11.367
REMARK INTRA:                  -0.639
REMARK UNBOUND:                -0.242
REMARK  Name = 
REMARK  6 active torsions:
REMARK  status: ('A' for Active; 'I' for Inactive)
REMARK    1  A    between atoms: C_2  and  C_5
REMARK    2  A    between atoms: C_9  and  N_10
REMARK    3  A    between atoms: N_10  and  C_11
REMARK    4  A    between atoms: C_11  and  C_12
REMARK    5  A    between atoms: C_16  and  C_17
REMARK    6  A    between atoms: C_21  and  C_22
REMARK                            x       y       z     vdW  Elec       q    Type
REMARK                         _______ _______ _______ _____ _____    ______ ____
ROOT
ATOM      1  C   UNL     1      45.189   4.002  12.464  0.00  0.00    +0.000 A 
ATOM      2  C   UNL     1      46.295   3.675  13.247  0.00  0.00    +0.000 A 
ATOM      3  C   UNL     1      47.158   4.693  13.620  0.00  0.00    +0.000 A 
ATOM      4  N   UNL     1      46.989   5.992  13.286  0.00  0.00    +0.000 NA
ATOM      5  C   UNL     1      45.894   6.319  12.558  0.00  0.00    +0.000 A 
ATOM      6  C   UNL     1      44.985   5.347  12.136  0.00  0.00    +0.000 A 
ENDROOT
BRANCH   5   7
ATOM      7  C   UNL     1      45.730   7.751  12.229  0.00  0.00    +0.000 A 
ATOM      8  C   UNL     1      46.684   8.703  12.609  0.00  0.00    +0.000 A 
ATOM      9  C   UNL     1      46.474  10.037  12.312  0.00  0.00    +0.000 A 
ATOM     10  N   UNL     1      45.387  10.496  11.663  0.00  0.00    +0.000 NA
ATOM     11  C   UNL     1      44.455   9.584  11.265  0.00  0.00    +0.000 A 
ATOM     12  C   UNL     1      44.604   8.218  11.529  0.00  0.00    +0.000 A 
BRANCH  11  13
ATOM     13  C   UNL     1      43.211  10.068  10.533  0.00  0.00    +0.000 C 
ATOM     14  F   UNL     1      43.405  10.325   9.207  0.00  0.00    +0.000 F 
ATOM     15  F   UNL     1      42.185   9.170  10.588  0.00  0.00    +0.000 F 
ATOM     16  F   UNL     1      42.712  11.225  11.062  0.00  0.00    +0.000 F 
ENDBRANCH  11  13
ENDBRANCH   5   7
BRANCH   1  17
ATOM     17  C   UNL     1      44.236   2.948  11.958  0.00  0.00    +0.000 C 
BRANCH  17  18
ATOM     18  N   UNL     1      43.740   3.304  10.640  0.00  0.00    +0.000 N 
ATOM     19  H   UNL     1      42.834   2.894  10.419  0.00  0.00    +0.000 HD
BRANCH  18  24
ATOM     20  C   UNL     1      46.169   2.279   7.981  0.00  0.00    +0.000 A 
ATOM     21  C   UNL     1      46.467   3.540   7.495  0.00  0.00    +0.000 A 
ATOM     22  N   UNL     1      45.911   4.672   7.973  0.00  0.00    +0.000 NA
ATOM     23  C   UNL     1      45.015   4.533   8.984  0.00  0.00    +0.000 A 
ATOM     24  C   UNL     1      44.607   3.320   9.545  0.00  0.00    +0.000 A 
ATOM     25  C   UNL     1      45.238   2.185   9.030  0.00  0.00    +0.000 A 
BRANCH  20  27
ATOM     26  F   UNL     1      46.402  -0.105   7.979  0.00  0.00    +0.000 F 
ATOM     27  C   UNL     1      46.820   1.059   7.411  0.00  0.00    +0.000 C 
ATOM     28  F   UNL     1      48.175   1.080   7.557  0.00  0.00    +0.000 F 
ATOM     29  F   UNL     1      46.596   0.926   6.074  0.00  0.00    +0.000 F 
ENDBRANCH  20  27
ENDBRANCH  18  24
ENDBRANCH  17  18
ENDBRANCH   1  17
TORSDOF 6
ENDMDL
MODEL 3
REMARK VINA RESULT:    -8.634      1.272      1.989
REMARK INTER + INTRA:         -11.904
REMARK INTER:                 -10.938
REMARK INTRA:                  -0.967
REMARK UNBOUND:                -0.242
REMARK  Name = 
REMARK  6 active torsions:
REMARK  status: ('A' for Active; 'I' for Inactive)
REMARK    1  A    between atoms: C_2  and  C_5
REMARK    2  A    between atoms: C_9  and  N_10
REMARK    3  A    between atoms: N_10  and  C_11
REMARK    4  A    between atoms: C_11  and  C_12
REMARK    5  A    between atoms: C_16  and  C_17
REMARK    6  A    between atoms: C_21  and  C_22
REMARK                            x       y       z     vdW  Elec       q    Type
REMARK                         _______ _______ _______ _____ _____    ______ ____
ROOT
ATOM      1  C   UNL     1      45.335   6.055  12.095  0.00  0.00    +0.000 A 
ATOM      2  C   UNL     1      45.957   7.035  11.323  0.00  0.00    +0.000 A 
ATOM      3  C   UNL     1      47.140   7.584  11.790  0.00  0.00    +0.000 A 
ATOM      4  N   UNL     1      47.744   7.220  12.944  0.00  0.00    +0.000 NA
ATOM      5  C   UNL     1      47.162   6.239  13.677  0.00  0.00    +0.000 A 
ATOM      6  C   UNL     1      45.964   5.646  13.277  0.00  0.00    +0.000 A 
ENDROOT
BRANCH   5   7
ATOM      7  C   UNL     1      47.859   5.852  14.922  0.00  0.00    +0.000 A 
ATOM      8  C   UNL     1      48.836   6.674  15.500  0.00  0.00    +0.000 A 
ATOM      9  C   UNL     1      49.489   6.256  16.644  0.00  0.00    +0.000 A 
ATOM     10  N   UNL     1      49.243   5.084  17.260  0.00  0.00    +0.000 NA
ATOM     11  C   UNL     1      48.282   4.278  16.726  0.00  0.00    +0.000 A 
ATOM     12  C   UNL     1      47.579   4.638  15.572  0.00  0.00    +0.000 A 
BRANCH  11  13
ATOM     13  C   UNL     1      47.981   2.943  17.394  0.00  0.00    +0.000 C 
ATOM     14  F   UNL     1      48.489   2.818  18.654  0.00  0.00    +0.000 F 
ATOM     15  F   UNL     1      46.643   2.703  17.511  0.00  0.00    +0.000 F 
ATOM     16  F   UNL     1      48.481   1.884  16.690  0.00  0.00    +0.000 F 
ENDBRANCH  11  13
ENDBRANCH   5   7
BRANCH   1  17
ATOM     17  C   UNL     1      44.012   5.451  11.696  0.00  0.00    +0.000 C 
BRANCH  17  18
ATOM     18  N   UNL     1      43.949   5.275  10.255  0.00  0.00    +0.000 N 
ATOM     19  H   UNL     1      43.042   5.506   9.853  0.00  0.00    +0.000 HD
BRANCH  18  24
ATOM     20  C   UNL     1      45.851   3.038   7.931  0.00  0.00    +0.000 A 
ATOM     21  C   UNL     1      45.452   1.823   8.461  0.00  0.00    +0.000 A 
ATOM     22  N   UNL     1      44.628   1.710   9.523  0.00  0.00    +0.000 NA
ATOM     23  C   UNL     1      44.185   2.868  10.079  0.00  0.00    +0.000 A 
ATOM     24  C   UNL     1      44.533   4.154   9.659  0.00  0.00    +0.000 A 
ATOM     25  C   UNL     1      45.365   4.209   8.538  0.00  0.00    +0.000 A 
BRANCH  20  27
ATOM     26  F   UNL     1      46.777   4.309   6.124  0.00  0.00    +0.000 F 
ATOM     27  C   UNL     1      46.766   3.100   6.750  0.00  0.00    +0.000 C 
ATOM     28  F   UNL     1      46.437   2.188   5.793  0.00  0.00    +0.000 F 
ATOM     29  F   UNL     1      48.062   2.837   7.080  0.00  0.00    +0.000 F 
ENDBRANCH  20  27
ENDBRANCH  18  24
ENDBRANCH  17  18
ENDBRANCH   1  17
TORSDOF 6
ENDMDL
MODEL 4
REMARK VINA RESULT:    -8.626      3.600      4.733
REMARK INTER + INTRA:         -11.893
REMARK INTER:                 -10.877
REMARK INTRA:                  -1.016
REMARK UNBOUND:                -0.242
REMARK  Name = 
REMARK  6 active torsions:
REMARK  status: ('A' for Active; 'I' for Inactive)
REMARK    1  A    between atoms: C_2  and  C_5
REMARK    2  A    between atoms: C_9  and  N_10
REMARK    3  A    between atoms: N_10  and  C_11
REMARK    4  A    between atoms: C_11  and  C_12
REMARK    5  A    between atoms: C_16  and  C_17
REMARK    6  A    between atoms: C_21  and  C_22
REMARK                            x       y       z     vdW  Elec       q    Type
REMARK                         _______ _______ _______ _____ _____    ______ ____
ROOT
ATOM      1  C   UNL     1      44.864   5.399  12.041  0.00  0.00    +0.000 A 
ATOM      2  C   UNL     1      45.264   4.497  13.025  0.00  0.00    +0.000 A 
ATOM      3  C   UNL     1      46.500   4.684  13.623  0.00  0.00    +0.000 A 
ATOM      4  N   UNL     1      47.342   5.699  13.324  0.00  0.00    +0.000 NA
ATOM      5  C   UNL     1      46.939   6.601  12.396  0.00  0.00    +0.000 A 
ATOM      6  C   UNL     1      45.712   6.472  11.743  0.00  0.00    +0.000 A 
ENDROOT
BRANCH   5   7
ATOM      7  C   UNL     1      47.875   7.708  12.109  0.00  0.00    +0.000 A 
ATOM      8  C   UNL     1      47.459   9.045  12.141  0.00  0.00    +0.000 A 
ATOM      9  C   UNL     1      48.358  10.048  11.831  0.00  0.00    +0.000 A 
ATOM     10  N   UNL     1      49.642   9.823  11.492  0.00  0.00    +0.000 NA
ATOM     11  C   UNL     1      50.074   8.530  11.474  0.00  0.00    +0.000 A 
ATOM     12  C   UNL     1      49.220   7.465  11.780  0.00  0.00    +0.000 A 
BRANCH  11  13
ATOM     13  C   UNL     1      51.518   8.238  11.090  0.00  0.00    +0.000 C 
ATOM     14  F   UNL     1      52.080   9.169  10.267  0.00  0.00    +0.000 F 
ATOM     15  F   UNL     1      52.344   8.157  12.173  0.00  0.00    +0.000 F 
ATOM     16  F   UNL     1      51.654   7.043  10.440  0.00  0.00    +0.000 F 
ENDBRANCH  11  13
ENDBRANCH   5   7
BRANCH   1  17
ATOM     17  C   UNL     1      43.565   5.233  11.292  0.00  0.00    +0.000 C 
BRANCH  17  18
ATOM     18  N   UNL     1      43.813   5.111   9.867  0.00  0.00    +0.000 N 
ATOM     19  H   UNL     1      43.017   5.373   9.287  0.00  0.00    +0.000 HD
BRANCH  18  24
ATOM     20  C   UNL     1      45.976   2.884   7.772  0.00  0.00    +0.000 A 
ATOM     21  C   UNL     1      45.634   1.676   8.356  0.00  0.00    +0.000 A 
ATOM     22  N   UNL     1      44.768   1.567   9.383  0.00  0.00    +0.000 NA
ATOM     23  C   UNL     1      44.220   2.720   9.848  0.00  0.00    +0.000 A 
ATOM     24  C   UNL     1      44.501   4.002   9.367  0.00  0.00    +0.000 A 
ATOM     25  C   UNL     1      45.382   4.051   8.284  0.00  0.00    +0.000 A 
BRANCH  20  27
ATOM     26  F   UNL     1      46.807   4.048   5.850  0.00  0.00    +0.000 F 
ATOM     27  C   UNL     1      46.942   2.943   6.632  0.00  0.00    +0.000 C 
ATOM     28  F   UNL     1      46.819   1.876   5.794  0.00  0.00    +0.000 F 
ATOM     29  F   UNL     1      48.240   2.935   7.048  0.00  0.00    +0.000 F 
ENDBRANCH  20  27
ENDBRANCH  18  24
ENDBRANCH  17  18
ENDBRANCH   1  17
TORSDOF 6
ENDMDL
MODEL 5
REMARK VINA RESULT:    -8.436      1.943      2.899
REMARK INTER + INTRA:         -11.637
REMARK INTER:                 -10.704
REMARK INTRA:                  -0.933
REMARK UNBOUND:                -0.242
REMARK  Name = 
REMARK  6 active torsions:
REMARK  status: ('A' for Active; 'I' for Inactive)
REMARK    1  A    between atoms: C_2  and  C_5
REMARK    2  A    between atoms: C_9  and  N_10
REMARK    3  A    between atoms: N_10  and  C_11
REMARK    4  A    between atoms: C_11  and  C_12
REMARK    5  A    between atoms: C_16  and  C_17
REMARK    6  A    between atoms: C_21  and  C_22
REMARK                            x       y       z     vdW  Elec       q    Type
REMARK                         _______ _______ _______ _____ _____    ______ ____
ROOT
ATOM      1  C   UNL     1      46.165   6.241  12.358  0.00  0.00    +0.000 A 
ATOM      2  C   UNL     1      47.266   6.892  11.805  0.00  0.00    +0.000 A 
ATOM      3  C   UNL     1      48.445   6.918  12.533  0.00  0.00    +0.000 A 
ATOM      4  N   UNL     1      48.604   6.337  13.744  0.00  0.00    +0.000 NA
ATOM      5  C   UNL     1      47.546   5.669  14.266  0.00  0.00    +0.000 A 
ATOM      6  C   UNL     1      46.322   5.608  13.597  0.00  0.00    +0.000 A 
ENDROOT
BRANCH   5   7
ATOM      7  C   UNL     1      47.760   5.028  15.581  0.00  0.00    +0.000 A 
ATOM      8  C   UNL     1      47.166   3.801  15.902  0.00  0.00    +0.000 A 
ATOM      9  C   UNL     1      47.363   3.254  17.157  0.00  0.00    +0.000 A 
ATOM     10  N   UNL     1      48.109   3.835  18.116  0.00  0.00    +0.000 NA
ATOM     11  C   UNL     1      48.713   5.020  17.818  0.00  0.00    +0.000 A 
ATOM     12  C   UNL     1      48.560   5.629  16.568  0.00  0.00    +0.000 A 
BRANCH  11  13
ATOM     13  C   UNL     1      49.560   5.707  18.880  0.00  0.00    +0.000 C 
ATOM     14  F   UNL     1      50.796   6.094  18.450  0.00  0.00    +0.000 F 
ATOM     15  F   UNL     1      48.971   6.835  19.374  0.00  0.00    +0.000 F 
ATOM     16  F   UNL     1      49.783   4.908  19.967  0.00  0.00    +0.000 F 
ENDBRANCH  11  13
ENDBRANCH   5   7
BRANCH   1  17
ATOM     17  C   UNL     1      44.825   6.221  11.666  0.00  0.00    +0.000 C 
BRANCH  17  18
ATOM     18  N   UNL     1      44.993   5.980  10.243  0.00  0.00    +0.000 N 
ATOM     19  H   UNL     1      44.432   6.594   9.654  0.00  0.00    +0.000 HD
BRANCH  18  24
ATOM     20  C   UNL     1      45.791   2.964   8.172  0.00  0.00    +0.000 A 
ATOM     21  C   UNL     1      44.909   2.080   8.768  0.00  0.00    +0.000 A 
ATOM     22  N   UNL     1      44.103   2.414   9.797  0.00  0.00    +0.000 NA
ATOM     23  C   UNL     1      44.187   3.693  10.249  0.00  0.00    +0.000 A 
ATOM     24  C   UNL     1      45.053   4.672   9.755  0.00  0.00    +0.000 A 
ATOM     25  C   UNL     1      45.842   4.277   8.672  0.00  0.00    +0.000 A 
BRANCH  20  27
ATOM     26  F   UNL     1      47.926   3.029   7.087  0.00  0.00    +0.000 F 
ATOM     27  C   UNL     1      46.659   2.536   7.031  0.00  0.00    +0.000 C 
ATOM     28  F   UNL     1      46.159   2.928   5.826  0.00  0.00    +0.000 F 
ATOM     29  F   UNL     1      46.787   1.181   6.954  0.00  0.00    +0.000 F 
ENDBRANCH  20  27
ENDBRANCH  18  24
ENDBRANCH  17  18
ENDBRANCH   1  17
TORSDOF 6
ENDMDL
MODEL 6
REMARK VINA RESULT:    -8.424      2.172      2.758
REMARK INTER + INTRA:         -11.621
REMARK INTER:                 -10.901
REMARK INTRA:                  -0.720
REMARK UNBOUND:                -0.242
REMARK  Name = 
REMARK  6 active torsions:
REMARK  status: ('A' for Active; 'I' for Inactive)
REMARK    1  A    between atoms: C_2  and  C_5
REMARK    2  A    between atoms: C_9  and  N_10
REMARK    3  A    between atoms: N_10  and  C_11
REMARK    4  A    between atoms: C_11  and  C_12
REMARK    5  A    between atoms: C_16  and  C_17
REMARK    6  A    between atoms: C_21  and  C_22
REMARK                            x       y       z     vdW  Elec       q    Type
REMARK                         _______ _______ _______ _____ _____    ______ ____
ROOT
ATOM      1  C   UNL     1      44.679   4.297  12.313  0.00  0.00    +0.000 A 
ATOM      2  C   UNL     1      43.601   5.174  12.421  0.00  0.00    +0.000 A 
ATOM      3  C   UNL     1      43.865   6.505  12.705  0.00  0.00    +0.000 A 
ATOM      4  N   UNL     1      45.107   7.014  12.870  0.00  0.00    +0.000 NA
ATOM      5  C   UNL     1      46.159   6.171  12.726  0.00  0.00    +0.000 A 
ATOM      6  C   UNL     1      45.972   4.816  12.451  0.00  0.00    +0.000 A 
ENDROOT
BRANCH   5   7
ATOM      7  C   UNL     1      47.502   6.766  12.892  0.00  0.00    +0.000 A 
ATOM      8  C   UNL     1      48.159   7.399  11.828  0.00  0.00    +0.000 A 
ATOM      9  C   UNL     1      49.430   7.910  12.017  0.00  0.00    +0.000 A 
ATOM     10  N   UNL     1      50.097   7.841  13.185  0.00  0.00    +0.000 NA
ATOM     11  C   UNL     1      49.468   7.247  14.239  0.00  0.00    +0.000 A 
ATOM     12  C   UNL     1      48.182   6.712  14.121  0.00  0.00    +0.000 A 
BRANCH  11  13
ATOM     13  C   UNL     1      50.195   7.148  15.574  0.00  0.00    +0.000 C 
ATOM     14  F   UNL     1      49.839   8.103  16.480  0.00  0.00    +0.000 F 
ATOM     15  F   UNL     1      49.988   5.952  16.198  0.00  0.00    +0.000 F 
ATOM     16  F   UNL     1      51.550   7.257  15.439  0.00  0.00    +0.000 F 
ENDBRANCH  11  13
ENDBRANCH   5   7
BRANCH   1  17
ATOM     17  C   UNL     1      44.480   2.821  12.071  0.00  0.00    +0.000 C 
BRANCH  17  18
ATOM     18  N   UNL     1      43.879   2.597  10.768  0.00  0.00    +0.000 N 
ATOM     19  H   UNL     1      43.323   1.745  10.713  0.00  0.00    +0.000 HD
BRANCH  18  24
ATOM     20  C   UNL     1      46.221   2.211   7.871  0.00  0.00    +0.000 A 
ATOM     21  C   UNL     1      46.186   3.518   7.418  0.00  0.00    +0.000 A 
ATOM     22  N   UNL     1      45.439   4.483   7.991  0.00  0.00    +0.000 NA
ATOM     23  C   UNL     1      44.692   4.122   9.067  0.00  0.00    +0.000 A 
ATOM     24  C   UNL     1      44.617   2.834   9.605  0.00  0.00    +0.000 A 
ATOM     25  C   UNL     1      45.434   1.883   8.989  0.00  0.00    +0.000 A 
BRANCH  20  27
ATOM     26  F   UNL     1      46.812   1.039   5.867  0.00  0.00    +0.000 F 
ATOM     27  C   UNL     1      47.071   1.183   7.195  0.00  0.00    +0.000 C 
ATOM     28  F   UNL     1      46.917  -0.057   7.741  0.00  0.00    +0.000 F 
ATOM     29  F   UNL     1      48.402   1.463   7.289  0.00  0.00    +0.000 F 
ENDBRANCH  20  27
ENDBRANCH  18  24
ENDBRANCH  17  18
ENDBRANCH   1  17
TORSDOF 6
ENDMDL
MODEL 7
REMARK VINA RESULT:    -8.336      3.181      3.984
REMARK INTER + INTRA:         -11.502
REMARK INTER:                 -10.563
REMARK INTRA:                  -0.939
REMARK UNBOUND:                -0.242
REMARK  Name = 
REMARK  6 active torsions:
REMARK  status: ('A' for Active; 'I' for Inactive)
REMARK    1  A    between atoms: C_2  and  C_5
REMARK    2  A    between atoms: C_9  and  N_10
REMARK    3  A    between atoms: N_10  and  C_11
REMARK    4  A    between atoms: C_11  and  C_12
REMARK    5  A    between atoms: C_16  and  C_17
REMARK    6  A    between atoms: C_21  and  C_22
REMARK                            x       y       z     vdW  Elec       q    Type
REMARK                         _______ _______ _______ _____ _____    ______ ____
ROOT
ATOM      1  C   UNL     1      45.431   5.545  12.280  0.00  0.00    +0.000 A 
ATOM      2  C   UNL     1      45.528   4.553  13.255  0.00  0.00    +0.000 A 
ATOM      3  C   UNL     1      46.697   4.471  13.993  0.00  0.00    +0.000 A 
ATOM      4  N   UNL     1      47.752   5.305  13.841  0.00  0.00    +0.000 NA
ATOM      5  C   UNL     1      47.645   6.295  12.922  0.00  0.00    +0.000 A 
ATOM      6  C   UNL     1      46.503   6.434  12.132  0.00  0.00    +0.000 A 
ENDROOT
BRANCH   5   7
ATOM      7  C   UNL     1      48.807   7.200  12.796  0.00  0.00    +0.000 A 
ATOM      8  C   UNL     1      49.060   7.907  11.613  0.00  0.00    +0.000 A 
ATOM      9  C   UNL     1      50.179   8.715  11.526  0.00  0.00    +0.000 A 
ATOM     10  N   UNL     1      51.064   8.875  12.527  0.00  0.00    +0.000 NA
ATOM     11  C   UNL     1      50.827   8.212  13.695  0.00  0.00    +0.000 A 
ATOM     12  C   UNL     1      49.714   7.381  13.855  0.00  0.00    +0.000 A 
BRANCH  11  13
ATOM     13  C   UNL     1      51.811   8.367  14.847  0.00  0.00    +0.000 C 
ATOM     14  F   UNL     1      52.124   7.199  15.478  0.00  0.00    +0.000 F 
ATOM     15  F   UNL     1      53.002   8.904  14.453  0.00  0.00    +0.000 F 
ATOM     16  F   UNL     1      51.343   9.199  15.825  0.00  0.00    +0.000 F 
ENDBRANCH  11  13
ENDBRANCH   5   7
BRANCH   1  17
ATOM     17  C   UNL     1      44.222   5.664  11.386  0.00  0.00    +0.000 C 
BRANCH  17  18
ATOM     18  N   UNL     1      44.608   5.538   9.991  0.00  0.00    +0.000 N 
ATOM     19  H   UNL     1      44.025   6.078   9.354  0.00  0.00    +0.000 HD
BRANCH  18  24
ATOM     20  C   UNL     1      46.046   2.836   7.835  0.00  0.00    +0.000 A 
ATOM     21  C   UNL     1      45.412   1.757   8.427  0.00  0.00    +0.000 A 
ATOM     22  N   UNL     1      44.576   1.872   9.479  0.00  0.00    +0.000 NA
ATOM     23  C   UNL     1      44.366   3.126   9.959  0.00  0.00    +0.000 A 
ATOM     24  C   UNL     1      44.964   4.291   9.472  0.00  0.00    +0.000 A 
ATOM     25  C   UNL     1      45.797   4.114   8.364  0.00  0.00    +0.000 A 
BRANCH  20  27
ATOM     26  F   UNL     1      46.872   1.418   6.090  0.00  0.00    +0.000 F 
ATOM     27  C   UNL     1      46.962   2.646   6.668  0.00  0.00    +0.000 C 
ATOM     28  F   UNL     1      48.273   2.802   7.009  0.00  0.00    +0.000 F 
ATOM     29  F   UNL     1      46.732   3.547   5.672  0.00  0.00    +0.000 F 
ENDBRANCH  20  27
ENDBRANCH  18  24
ENDBRANCH  17  18
ENDBRANCH   1  17
TORSDOF 6
ENDMDL
MODEL 8
REMARK VINA RESULT:    -8.278      1.769      7.986
REMARK INTER + INTRA:         -11.424
REMARK INTER:                 -10.478
REMARK INTRA:                  -0.946
REMARK UNBOUND:                -0.242
REMARK  Name = 
REMARK  6 active torsions:
REMARK  status: ('A' for Active; 'I' for Inactive)
REMARK    1  A    between atoms: C_2  and  C_5
REMARK    2  A    between atoms: C_9  and  N_10
REMARK    3  A    between atoms: N_10  and  C_11
REMARK    4  A    between atoms: C_11  and  C_12
REMARK    5  A    between atoms: C_16  and  C_17
REMARK    6  A    between atoms: C_21  and  C_22
REMARK                            x       y       z     vdW  Elec       q    Type
REMARK                         _______ _______ _______ _____ _____    ______ ____
ROOT
ATOM      1  C   UNL     1      47.139   7.721  13.100  0.00  0.00    +0.000 A 
ATOM      2  C   UNL     1      46.447   8.873  12.732  0.00  0.00    +0.000 A 
ATOM      3  C   UNL     1      45.265   8.730  12.022  0.00  0.00    +0.000 A 
ATOM      4  N   UNL     1      44.727   7.539  11.675  0.00  0.00    +0.000 NA
ATOM      5  C   UNL     1      45.377   6.415  12.067  0.00  0.00    +0.000 A 
ATOM      6  C   UNL     1      46.578   6.480  12.775  0.00  0.00    +0.000 A 
ENDROOT
BRANCH   5   7
ATOM      7  C   UNL     1      44.750   5.131  11.689  0.00  0.00    +0.000 A 
ATOM      8  C   UNL     1      43.831   4.490  12.530  0.00  0.00    +0.000 A 
ATOM      9  C   UNL     1      43.295   3.272  12.154  0.00  0.00    +0.000 A 
ATOM     10  N   UNL     1      43.604   2.643  11.004  0.00  0.00    +0.000 NA
ATOM     11  C   UNL     1      44.481   3.259  10.161  0.00  0.00    +0.000 A 
ATOM     12  C   UNL     1      45.059   4.493  10.475  0.00  0.00    +0.000 A 
BRANCH  11  13
ATOM     13  C   UNL     1      44.856   2.574   8.854  0.00  0.00    +0.000 C 
ATOM     14  F   UNL     1      44.400   3.209   7.736  0.00  0.00    +0.000 F 
ATOM     15  F   UNL     1      46.205   2.460   8.688  0.00  0.00    +0.000 F 
ATOM     16  F   UNL     1      44.371   1.299   8.775  0.00  0.00    +0.000 F 
ENDBRANCH  11  13
ENDBRANCH   5   7
BRANCH   1  17
ATOM     17  C   UNL     1      48.465   7.786  13.815  0.00  0.00    +0.000 C 
BRANCH  17  18
ATOM     18  N   UNL     1      48.283   7.585  15.242  0.00  0.00    +0.000 N 
ATOM     19  H   UNL     1      48.345   8.442  15.789  0.00  0.00    +0.000 HD
BRANCH  18  24
ATOM     20  C   UNL     1      48.831   4.338  17.025  0.00  0.00    +0.000 A 
ATOM     21  C   UNL     1      50.173   4.502  17.320  0.00  0.00    +0.000 A 
ATOM     22  N   UNL     1      50.886   5.587  16.956  0.00  0.00    +0.000 NA
ATOM     23  C   UNL     1      50.224   6.551  16.264  0.00  0.00    +0.000 A 
ATOM     24  C   UNL     1      48.881   6.495  15.880  0.00  0.00    +0.000 A 
ATOM     25  C   UNL     1      48.187   5.362  16.310  0.00  0.00    +0.000 A 
BRANCH  20  27
ATOM     26  F   UNL     1      48.423   1.992  16.758  0.00  0.00    +0.000 F 
ATOM     27  C   UNL     1      48.091   3.111  17.457  0.00  0.00    +0.000 C 
ATOM     28  F   UNL     1      46.742   3.248  17.325  0.00  0.00    +0.000 F 
ATOM     29  F   UNL     1      48.304   2.810  18.769  0.00  0.00    +0.000 F 
ENDBRANCH  20  27
ENDBRANCH  18  24
ENDBRANCH  17  18
ENDBRANCH   1  17
TORSDOF 6
ENDMDL
MODEL 9
REMARK VINA RESULT:    -7.938      3.483      4.167
REMARK INTER + INTRA:         -10.965
REMARK INTER:                 -10.612
REMARK INTRA:                  -0.353
REMARK UNBOUND:                -0.242
REMARK  Name = 
REMARK  6 active torsions:
REMARK  status: ('A' for Active; 'I' for Inactive)
REMARK    1  A    between atoms: C_2  and  C_5
REMARK    2  A    between atoms: C_9  and  N_10
REMARK    3  A    between atoms: N_10  and  C_11
REMARK    4  A    between atoms: C_11  and  C_12
REMARK    5  A    between atoms: C_16  and  C_17
REMARK    6  A    between atoms: C_21  and  C_22
REMARK                            x       y       z     vdW  Elec       q    Type
REMARK                         _______ _______ _______ _____ _____    ______ ____
ROOT
ATOM      1  C   UNL     1      44.505   4.762  11.873  0.00  0.00    +0.000 A 
ATOM      2  C   UNL     1      43.555   5.741  11.584  0.00  0.00    +0.000 A 
ATOM      3  C   UNL     1      43.919   7.070  11.728  0.00  0.00    +0.000 A 
ATOM      4  N   UNL     1      45.146   7.484  12.118  0.00  0.00    +0.000 NA
ATOM      5  C   UNL     1      46.083   6.535  12.362  0.00  0.00    +0.000 A 
ATOM      6  C   UNL     1      45.788   5.176  12.249  0.00  0.00    +0.000 A 
ENDROOT
BRANCH   5   7
ATOM      7  C   UNL     1      47.419   7.023  12.765  0.00  0.00    +0.000 A 
ATOM      8  C   UNL     1      48.034   6.582  13.944  0.00  0.00    +0.000 A 
ATOM      9  C   UNL     1      49.268   7.091  14.303  0.00  0.00    +0.000 A 
ATOM     10  N   UNL     1      49.939   8.006  13.577  0.00  0.00    +0.000 NA
ATOM     11  C   UNL     1      49.368   8.434  12.416  0.00  0.00    +0.000 A 
ATOM     12  C   UNL     1      48.124   7.960  11.989  0.00  0.00    +0.000 A 
BRANCH  11  13
ATOM     13  C   UNL     1      50.097   9.472  11.572  0.00  0.00    +0.000 C 
ATOM     14  F   UNL     1      49.290  10.172  10.724  0.00  0.00    +0.000 F 
ATOM     15  F   UNL     1      50.738  10.408  12.329  0.00  0.00    +0.000 F 
ATOM     16  F   UNL     1      51.064   8.916  10.783  0.00  0.00    +0.000 F 
ENDBRANCH  11  13
ENDBRANCH   5   7
BRANCH   1  17
ATOM     17  C   UNL     1      44.174   3.292  11.808  0.00  0.00    +0.000 C 
BRANCH  17  18
ATOM     18  N   UNL     1      43.746   2.927  10.469  0.00  0.00    +0.000 N 
ATOM     19  H   UNL     1      43.203   2.066  10.432  0.00  0.00    +0.000 HD
BRANCH  18  24
ATOM     20  C   UNL     1      46.318   2.224   7.840  0.00  0.00    +0.000 A 
ATOM     21  C   UNL     1      46.485   3.518   7.380  0.00  0.00    +0.000 A 
ATOM     22  N   UNL     1      45.800   4.574   7.866  0.00  0.00    +0.000 NA
ATOM     23  C   UNL     1      44.907   4.319   8.858  0.00  0.00    +0.000 A 
ATOM     24  C   UNL     1      44.625   3.058   9.390  0.00  0.00    +0.000 A 
ATOM     25  C   UNL     1      45.385   2.009   8.869  0.00  0.00    +0.000 A 
BRANCH  20  27
ATOM     26  F   UNL     1      48.440   1.349   7.154  0.00  0.00    +0.000 F 
ATOM     27  C   UNL     1      47.108   1.093   7.263  0.00  0.00    +0.000 C 
ATOM     28  F   UNL     1      46.690   0.756   6.010  0.00  0.00    +0.000 F 
ATOM     29  F   UNL     1      47.005  -0.047   8.003  0.00  0.00    +0.000 F 
ENDBRANCH  20  27
ENDBRANCH  18  24
ENDBRANCH  17  18
ENDBRANCH   1  17
TORSDOF 6
ENDMDL
