MODEL 1
REMARK VINA RESULT:    -7.903      0.000      0.000
REMARK INTER + INTRA:         -12.150
REMARK INTER:                 -11.136
REMARK INTRA:                  -1.014
REMARK UNBOUND:                -1.014
REMARK  Name = 
REMARK  8 active torsions:
REMARK  status: ('A' for Active; 'I' for Inactive)
REMARK    1  A    between atoms: C_1  and  O_2
REMARK    2  A    between atoms: O_2  and  C_3
REMARK    3  A    between atoms: C_5  and  C_6
REMARK    4  A    between atoms: C_6  and  N_7
REMARK    5  A    between atoms: C_8  and  C_10
REMARK    6  A    between atoms: C_17  and  C_18
REMARK    7  A    between atoms: C_18  and  N_19
REMARK    8  A    between atoms: C_20  and  C_22
REMARK                            x       y       z     vdW  Elec       q    Type
REMARK                         _______ _______ _______ _____ _____    ______ ____
ROOT
ATOM      1  C   UNL     1      45.310   8.123  12.241  0.00  0.00    +0.000 A 
ATOM      2  C   UNL     1      44.527   7.345  11.375  0.00  0.00    +0.000 A 
ATOM      3  C   UNL     1      44.897   6.033  11.041  0.00  0.00    +0.000 A 
ATOM      4  C   UNL     1      46.056   5.496  11.605  0.00  0.00    +0.000 A 
ATOM      5  C   UNL     1      46.845   6.264  12.465  0.00  0.00    +0.000 A 
ATOM      6  C   UNL     1      46.492   7.588  12.782  0.00  0.00    +0.000 A 
ENDROOT
BRANCH   1   8
ATOM      7  C   UNL     1      44.458  10.237  11.561  0.00  0.00    +0.000 C 
ATOM      8  O   UNL     1      45.010   9.416  12.585  0.00  0.00    +0.000 OA
ENDBRANCH   1   8
BRANCH   3   9
ATOM      9  C   UNL     1      44.032   5.206  10.124  0.00  0.00    +0.000 C 
BRANCH   9  10
ATOM     10  N   UNL     1      44.835   4.491   9.166  0.00  0.00    +0.000 N 
ATOM     11  C   UNL     1      45.043   3.131   9.248  0.00  0.00    +0.000 C 
ATOM     12  O   UNL     1      44.552   2.465  10.153  0.00  0.00    +0.000 OA
ATOM     13  H   UNL     1      45.215   4.986   8.370  0.00  0.00    +0.000 HD
BRANCH  11  14
ATOM     14  C   UNL     1      45.869   2.555   8.191  0.00  0.00    +0.000 A 
ATOM     15  C   UNL     1      46.272   1.236   8.068  0.00  0.00    +0.000 A 
ATOM     16  C   UNL     1      47.086   1.012   6.919  0.00  0.00    +0.000 A 
ATOM     17  C   UNL     1      47.285   2.168   6.197  0.00  0.00    +0.000 A 
ATOM     18  S   UNL     1      46.488   3.506   6.900  0.00  0.00    +0.000 S 
ENDBRANCH  11  14
ENDBRANCH   9  10
ENDBRANCH   3   9
BRANCH   6  19
ATOM     19  C   UNL     1      47.361   8.353  13.753  0.00  0.00    +0.000 C 
BRANCH  19  20
ATOM     20  N   UNL     1      47.747   7.506  14.859  0.00  0.00    +0.000 N 
ATOM     21  C   UNL     1      49.010   6.994  15.001  0.00  0.00    +0.000 C 
ATOM     22  O   UNL     1      49.869   7.102  14.133  0.00  0.00    +0.000 OA
ATOM     23  H   UNL     1      47.142   7.559  15.672  0.00  0.00    +0.000 HD
BRANCH  21  24
ATOM     24  C   UNL     1      49.275   6.260  16.247  0.00  0.00    +0.000 A 
ATOM     25  C   UNL     1      50.166   6.769  17.180  0.00  0.00    +0.000 A 
ATOM     26  S   UNL     1      50.321   5.800  18.577  0.00  0.00    +0.000 S 
ATOM     27  C   UNL     1      49.135   4.715  18.020  0.00  0.00    +0.000 A 
ATOM     28  N   UNL     1      48.702   3.687  18.799  0.00  0.00    +0.000 NA
ATOM     29  C   UNL     1      47.769   2.970  18.266  0.00  0.00    +0.000 A 
ATOM     30  N   UNL     1      47.258   3.163  17.008  0.00  0.00    +0.000 N 
ATOM     31  C   UNL     1      47.712   4.145  16.161  0.00  0.00    +0.000 A 
ATOM     32  O   UNL     1      47.323   4.213  15.001  0.00  0.00    +0.000 OA
ATOM     33  C   UNL     1      48.699   5.033  16.746  0.00  0.00    +0.000 A 
ATOM     34  H   UNL     1      46.565   2.537  16.630  0.00  0.00    +0.000 HD
ENDBRANCH  21  24
ENDBRANCH  19  20
ENDBRANCH   6  19
TORSDOF 7
ENDMDL
MODEL 2
REMARK VINA RESULT:    -7.737      1.829      2.601
REMARK INTER + INTRA:         -11.917
REMARK INTER:                 -10.697
REMARK INTRA:                  -1.220
REMARK UNBOUND:                -1.014
REMARK  Name = 
REMARK  8 active torsions:
REMARK  status: ('A' for Active; 'I' for Inactive)
REMARK    1  A    between atoms: C_1  and  O_2
REMARK    2  A    between atoms: O_2  and  C_3
REMARK    3  A    between atoms: C_5  and  C_6
REMARK    4  A    between atoms: C_6  and  N_7
REMARK    5  A    between atoms: C_8  and  C_10
REMARK    6  A    between atoms: C_17  and  C_18
REMARK    7  A    between atoms: C_18  and  N_19
REMARK    8  A    between atoms: C_20  and  C_22
REMARK                            x       y       z     vdW  Elec       q    Type
REMARK                         _______ _______ _______ _____ _____    ______ ____
ROOT
ATOM      1  C   UNL     1      46.870   5.467  13.203  0.00  0.00    +0.000 A 
ATOM      2  C   UNL     1      45.927   4.740  12.462  0.00  0.00    +0.000 A 
ATOM      3  C   UNL     1      45.074   5.376  11.545  0.00  0.00    +0.000 A 
ATOM      4  C   UNL     1      45.193   6.755  11.361  0.00  0.00    +0.000 A 
ATOM      5  C   UNL     1      46.127   7.489  12.097  0.00  0.00    +0.000 A 
ATOM      6  C   UNL     1      46.964   6.860  13.036  0.00  0.00    +0.000 A 
ENDROOT
BRANCH   1   8
ATOM      7  C   UNL     1      47.122   4.015  15.069  0.00  0.00    +0.000 C 
ATOM      8  O   UNL     1      47.712   4.903  14.126  0.00  0.00    +0.000 OA
ENDBRANCH   1   8
BRANCH   3   9
ATOM      9  C   UNL     1      44.081   4.575  10.744  0.00  0.00    +0.000 C 
BRANCH   9  10
ATOM     10  N   UNL     1      44.747   3.569   9.957  0.00  0.00    +0.000 N 
ATOM     11  C   UNL     1      45.413   3.869   8.788  0.00  0.00    +0.000 C 
ATOM     12  O   UNL     1      45.463   5.017   8.361  0.00  0.00    +0.000 OA
ATOM     13  H   UNL     1      44.782   2.617  10.298  0.00  0.00    +0.000 HD
BRANCH  11  14
ATOM     14  C   UNL     1      46.048   2.739   8.117  0.00  0.00    +0.000 A 
ATOM     15  C   UNL     1      45.941   1.400   8.451  0.00  0.00    +0.000 A 
ATOM     16  C   UNL     1      46.704   0.554   7.592  0.00  0.00    +0.000 A 
ATOM     17  C   UNL     1      47.375   1.272   6.628  0.00  0.00    +0.000 A 
ATOM     18  S   UNL     1      47.077   2.950   6.757  0.00  0.00    +0.000 S 
ENDBRANCH  11  14
ENDBRANCH   9  10
ENDBRANCH   3   9
BRANCH   6  19
ATOM     19  C   UNL     1      47.984   7.699  13.769  0.00  0.00    +0.000 C 
BRANCH  19  20
ATOM     20  N   UNL     1      47.907   7.456  15.192  0.00  0.00    +0.000 N 
ATOM     21  C   UNL     1      49.002   7.488  16.016  0.00  0.00    +0.000 C 
ATOM     22  O   UNL     1      50.147   7.591  15.589  0.00  0.00    +0.000 OA
ATOM     23  H   UNL     1      46.983   7.564  15.597  0.00  0.00    +0.000 HD
BRANCH  21  24
ATOM     24  C   UNL     1      48.736   7.349  17.455  0.00  0.00    +0.000 A 
ATOM     25  C   UNL     1      48.192   8.407  18.168  0.00  0.00    +0.000 A 
ATOM     26  S   UNL     1      47.920   8.052  19.816  0.00  0.00    +0.000 S 
ATOM     27  C   UNL     1      48.437   6.444  19.609  0.00  0.00    +0.000 A 
ATOM     28  N   UNL     1      48.357   5.545  20.626  0.00  0.00    +0.000 NA
ATOM     29  C   UNL     1      48.744   4.353  20.315  0.00  0.00    +0.000 A 
ATOM     30  N   UNL     1      49.241   3.987  19.090  0.00  0.00    +0.000 N 
ATOM     31  C   UNL     1      49.403   4.877  18.057  0.00  0.00    +0.000 A 
ATOM     32  O   UNL     1      49.964   4.547  17.017  0.00  0.00    +0.000 OA
ATOM     33  C   UNL     1      48.901   6.211  18.327  0.00  0.00    +0.000 A 
ATOM     34  H   UNL     1      49.573   3.050  18.926  0.00  0.00    +0.000 HD
ENDBRANCH  21  24
ENDBRANCH  19  20
ENDBRANCH   6  19
TORSDOF 7
ENDMDL
MODEL 3
REMARK VINA RESULT:    -7.270      2.671      3.934
REMARK INTER + INTRA:         -11.259
REMARK INTER:                  -9.813
REMARK INTRA:                  -1.446
REMARK UNBOUND:                -1.014
REMARK  Name = 
REMARK  8 active torsions:
REMARK  status: ('A' for Active; 'I' for Inactive)
REMARK    1  A    between atoms: C_1  and  O_2
REMARK    2  A    between atoms: O_2  and  C_3
REMARK    3  A    between atoms: C_5  and  C_6
REMARK    4  A    between atoms: C_6  and  N_7
REMARK    5  A    between atoms: C_8  and  C_10
REMARK    6  A    between atoms: C_17  and  C_18
REMARK    7  A    between atoms: C_18  and  N_19
REMARK    8  A    between atoms: C_20  and  C_22
REMARK                            x       y       z     vdW  Elec       q    Type
REMARK                         _______ _______ _______ _____ _____    ______ ____
ROOT
ATOM      1  C   UNL     1      47.151   4.923  13.951  0.00  0.00    +0.000 A 
ATOM      2  C   UNL     1      46.193   4.228  13.198  0.00  0.00    +0.000 A 
ATOM      3  C   UNL     1      45.516   4.843  12.133  0.00  0.00    +0.000 A 
ATOM      4  C   UNL     1      45.828   6.166  11.813  0.00  0.00    +0.000 A 
ATOM      5  C   UNL     1      46.778   6.869  12.559  0.00  0.00    +0.000 A 
ATOM      6  C   UNL     1      47.438   6.265  13.643  0.00  0.00    +0.000 A 
ENDROOT
BRANCH   1   8
ATOM      7  C   UNL     1      47.034   3.895  16.092  0.00  0.00    +0.000 C 
ATOM      8  O   UNL     1      47.826   4.380  15.014  0.00  0.00    +0.000 OA
ENDBRANCH   1   8
BRANCH   3   9
ATOM      9  C   UNL     1      44.505   4.073  11.325  0.00  0.00    +0.000 C 
BRANCH   9  10
ATOM     10  N   UNL     1      45.154   3.260  10.329  0.00  0.00    +0.000 N 
ATOM     11  C   UNL     1      45.304   3.674   9.023  0.00  0.00    +0.000 C 
ATOM     12  O   UNL     1      44.882   4.762   8.647  0.00  0.00    +0.000 OA
ATOM     13  H   UNL     1      45.569   2.379  10.603  0.00  0.00    +0.000 HD
BRANCH  11  14
ATOM     14  C   UNL     1      45.998   2.739   8.142  0.00  0.00    +0.000 A 
ATOM     15  C   UNL     1      46.128   1.371   8.309  0.00  0.00    +0.000 A 
ATOM     16  C   UNL     1      46.882   0.756   7.266  0.00  0.00    +0.000 A 
ATOM     17  C   UNL     1      47.308   1.673   6.332  0.00  0.00    +0.000 A 
ATOM     18  S   UNL     1      46.796   3.258   6.712  0.00  0.00    +0.000 S 
ENDBRANCH  11  14
ENDBRANCH   9  10
ENDBRANCH   3   9
BRANCH   6  19
ATOM     19  C   UNL     1      48.488   7.061  14.384  0.00  0.00    +0.000 C 
BRANCH  19  20
ATOM     20  N   UNL     1      48.109   7.228  15.769  0.00  0.00    +0.000 N 
ATOM     21  C   UNL     1      48.960   6.972  16.812  0.00  0.00    +0.000 C 
ATOM     22  O   UNL     1      50.059   6.452  16.655  0.00  0.00    +0.000 OA
ATOM     23  H   UNL     1      47.304   7.827  15.924  0.00  0.00    +0.000 HD
BRANCH  21  24
ATOM     24  C   UNL     1      48.464   7.316  18.152  0.00  0.00    +0.000 A 
ATOM     25  C   UNL     1      48.435   6.356  19.153  0.00  0.00    +0.000 A 
ATOM     26  S   UNL     1      47.862   6.946  20.649  0.00  0.00    +0.000 S 
ATOM     27  C   UNL     1      47.719   8.524  20.032  0.00  0.00    +0.000 A 
ATOM     28  N   UNL     1      47.371   9.564  20.838  0.00  0.00    +0.000 NA
ATOM     29  C   UNL     1      47.342  10.711  20.245  0.00  0.00    +0.000 A 
ATOM     30  N   UNL     1      47.591  10.908  18.911  0.00  0.00    +0.000 N 
ATOM     31  C   UNL     1      47.880   9.880  18.047  0.00  0.00    +0.000 A 
ATOM     32  O   UNL     1      47.976  10.072  16.841  0.00  0.00    +0.000 OA
ATOM     33  C   UNL     1      48.010   8.581  18.681  0.00  0.00    +0.000 A 
ATOM     34  H   UNL     1      47.504  11.823  18.498  0.00  0.00    +0.000 HD
ENDBRANCH  21  24
ENDBRANCH  19  20
ENDBRANCH   6  19
TORSDOF 7
ENDMDL
MODEL 4
REMARK VINA RESULT:    -7.046      1.822      2.110
REMARK INTER + INTRA:         -10.944
REMARK INTER:                  -9.930
REMARK INTRA:                  -1.013
REMARK UNBOUND:                -1.014
REMARK  Name = 
REMARK  8 active torsions:
REMARK  status: ('A' for Active; 'I' for Inactive)
REMARK    1  A    between atoms: C_1  and  O_2
REMARK    2  A    between atoms: O_2  and  C_3
REMARK    3  A    between atoms: C_5  and  C_6
REMARK    4  A    between atoms: C_6  and  N_7
REMARK    5  A    between atoms: C_8  and  C_10
REMARK    6  A    between atoms: C_17  and  C_18
REMARK    7  A    between atoms: C_18  and  N_19
REMARK    8  A    between atoms: C_20  and  C_22
REMARK                            x       y       z     vdW  Elec       q    Type
REMARK                         _______ _______ _______ _____ _____    ______ ____
ROOT
ATOM      1  C   UNL     1      45.644   7.261  12.700  0.00  0.00    +0.000 A 
ATOM      2  C   UNL     1      44.911   6.187  12.175  0.00  0.00    +0.000 A 
ATOM      3  C   UNL     1      45.322   4.859  12.374  0.00  0.00    +0.000 A 
ATOM      4  C   UNL     1      46.471   4.616  13.129  0.00  0.00    +0.000 A 
ATOM      5  C   UNL     1      47.210   5.680  13.653  0.00  0.00    +0.000 A 
ATOM      6  C   UNL     1      46.818   7.012  13.433  0.00  0.00    +0.000 A 
ENDROOT
BRANCH   1   8
ATOM      7  C   UNL     1      44.575   8.891  11.337  0.00  0.00    +0.000 C 
ATOM      8  O   UNL     1      45.303   8.577  12.519  0.00  0.00    +0.000 OA
ENDBRANCH   1   8
BRANCH   3   9
ATOM      9  C   UNL     1      44.509   3.718  11.819  0.00  0.00    +0.000 C 
BRANCH   9  10
ATOM     10  N   UNL     1      45.211   3.062  10.745  0.00  0.00    +0.000 N 
ATOM     11  C   UNL     1      44.976   3.360   9.420  0.00  0.00    +0.000 C 
ATOM     12  O   UNL     1      44.147   4.203   9.095  0.00  0.00    +0.000 OA
ATOM     13  H   UNL     1      45.944   2.400  10.965  0.00  0.00    +0.000 HD
BRANCH  11  14
ATOM     14  C   UNL     1      45.780   2.617   8.455  0.00  0.00    +0.000 A 
ATOM     15  C   UNL     1      45.998   1.250   8.423  0.00  0.00    +0.000 A 
ATOM     16  C   UNL     1      46.848   0.851   7.349  0.00  0.00    +0.000 A 
ATOM     17  C   UNL     1      47.258   1.925   6.592  0.00  0.00    +0.000 A 
ATOM     18  S   UNL     1      46.615   3.398   7.172  0.00  0.00    +0.000 S 
ENDBRANCH  11  14
ENDBRANCH   9  10
ENDBRANCH   3   9
BRANCH   6  19
ATOM     19  C   UNL     1      47.633   8.117  14.063  0.00  0.00    +0.000 C 
BRANCH  19  20
ATOM     20  N   UNL     1      48.895   7.602  14.543  0.00  0.00    +0.000 N 
ATOM     21  C   UNL     1      49.214   7.526  15.874  0.00  0.00    +0.000 C 
ATOM     22  O   UNL     1      48.510   8.016  16.750  0.00  0.00    +0.000 OA
ATOM     23  H   UNL     1      49.402   7.022  13.881  0.00  0.00    +0.000 HD
BRANCH  21  24
ATOM     24  C   UNL     1      50.481   6.857  16.200  0.00  0.00    +0.000 A 
ATOM     25  C   UNL     1      51.686   7.408  15.789  0.00  0.00    +0.000 A 
ATOM     26  S   UNL     1      53.052   6.513  16.287  0.00  0.00    +0.000 S 
ATOM     27  C   UNL     1      52.082   5.410  17.145  0.00  0.00    +0.000 A 
ATOM     28  N   UNL     1      52.638   4.428  17.905  0.00  0.00    +0.000 NA
ATOM     29  C   UNL     1      51.784   3.691  18.534  0.00  0.00    +0.000 A 
ATOM     30  N   UNL     1      50.422   3.822  18.440  0.00  0.00    +0.000 N 
ATOM     31  C   UNL     1      49.816   4.753  17.633  0.00  0.00    +0.000 A 
ATOM     32  O   UNL     1      48.600   4.763  17.476  0.00  0.00    +0.000 OA
ATOM     33  C   UNL     1      50.732   5.664  16.973  0.00  0.00    +0.000 A 
ATOM     34  H   UNL     1      49.807   3.182  18.918  0.00  0.00    +0.000 HD
ENDBRANCH  21  24
ENDBRANCH  19  20
ENDBRANCH   6  19
TORSDOF 7
ENDMDL
MODEL 5
REMARK VINA RESULT:    -7.036      2.580      3.640
REMARK INTER + INTRA:         -10.929
REMARK INTER:                  -9.814
REMARK INTRA:                  -1.115
REMARK UNBOUND:                -1.014
REMARK  Name = 
REMARK  8 active torsions:
REMARK  status: ('A' for Active; 'I' for Inactive)
REMARK    1  A    between atoms: C_1  and  O_2
REMARK    2  A    between atoms: O_2  and  C_3
REMARK    3  A    between atoms: C_5  and  C_6
REMARK    4  A    between atoms: C_6  and  N_7
REMARK    5  A    between atoms: C_8  and  C_10
REMARK    6  A    between atoms: C_17  and  C_18
REMARK    7  A    between atoms: C_18  and  N_19
REMARK    8  A    between atoms: C_20  and  C_22
REMARK                            x       y       z     vdW  Elec       q    Type
REMARK                         _______ _______ _______ _____ _____    ______ ____
ROOT
ATOM      1  C   UNL     1      47.483   5.876  13.236  0.00  0.00    +0.000 A 
ATOM      2  C   UNL     1      46.843   6.096  12.007  0.00  0.00    +0.000 A 
ATOM      3  C   UNL     1      45.628   5.464  11.696  0.00  0.00    +0.000 A 
ATOM      4  C   UNL     1      45.045   4.622  12.645  0.00  0.00    +0.000 A 
ATOM      5  C   UNL     1      45.677   4.392  13.870  0.00  0.00    +0.000 A 
ATOM      6  C   UNL     1      46.907   5.002  14.175  0.00  0.00    +0.000 A 
ENDROOT
BRANCH   1   8
ATOM      7  C   UNL     1      49.396   7.111  12.549  0.00  0.00    +0.000 C 
ATOM      8  O   UNL     1      48.680   6.447  13.584  0.00  0.00    +0.000 OA
ENDBRANCH   1   8
BRANCH   3   9
ATOM      9  C   UNL     1      44.946   5.729  10.379  0.00  0.00    +0.000 C 
BRANCH   9  10
ATOM     10  N   UNL     1      45.577   4.991   9.315  0.00  0.00    +0.000 N 
ATOM     11  C   UNL     1      45.176   3.721   8.961  0.00  0.00    +0.000 C 
ATOM     12  O   UNL     1      44.257   3.157   9.546  0.00  0.00    +0.000 OA
ATOM     13  H   UNL     1      46.301   5.435   8.766  0.00  0.00    +0.000 HD
BRANCH  11  14
ATOM     14  C   UNL     1      45.908   3.115   7.853  0.00  0.00    +0.000 A 
ATOM     15  C   UNL     1      46.272   3.718   6.661  0.00  0.00    +0.000 A 
ATOM     16  C   UNL     1      46.971   2.835   5.786  0.00  0.00    +0.000 A 
ATOM     17  C   UNL     1      47.120   1.581   6.333  0.00  0.00    +0.000 A 
ATOM     18  S   UNL     1      46.426   1.477   7.891  0.00  0.00    +0.000 S 
ENDBRANCH  11  14
ENDBRANCH   9  10
ENDBRANCH   3   9
BRANCH   6  19
ATOM     19  C   UNL     1      47.520   4.750  15.533  0.00  0.00    +0.000 C 
BRANCH  19  20
ATOM     20  N   UNL     1      47.917   5.998  16.145  0.00  0.00    +0.000 N 
ATOM     21  C   UNL     1      49.165   6.207  16.673  0.00  0.00    +0.000 C 
ATOM     22  O   UNL     1      49.991   5.310  16.790  0.00  0.00    +0.000 OA
ATOM     23  H   UNL     1      47.347   6.800  15.894  0.00  0.00    +0.000 HD
BRANCH  21  24
ATOM     24  C   UNL     1      49.451   7.572  17.139  0.00  0.00    +0.000 A 
ATOM     25  C   UNL     1      50.461   8.313  16.546  0.00  0.00    +0.000 A 
ATOM     26  S   UNL     1      50.626   9.884  17.194  0.00  0.00    +0.000 S 
ATOM     27  C   UNL     1      49.294   9.656  18.226  0.00  0.00    +0.000 A 
ATOM     28  N   UNL     1      48.821  10.672  18.997  0.00  0.00    +0.000 NA
ATOM     29  C   UNL     1      47.780  10.368  19.699  0.00  0.00    +0.000 A 
ATOM     30  N   UNL     1      47.193   9.129  19.730  0.00  0.00    +0.000 N 
ATOM     31  C   UNL     1      47.677   8.057  19.021  0.00  0.00    +0.000 A 
ATOM     32  O   UNL     1      47.205   6.935  19.164  0.00  0.00    +0.000 OA
ATOM     33  C   UNL     1      48.793   8.368  18.148  0.00  0.00    +0.000 A 
ATOM     34  H   UNL     1      46.410   8.943  20.337  0.00  0.00    +0.000 HD
ENDBRANCH  21  24
ENDBRANCH  19  20
ENDBRANCH   6  19
TORSDOF 7
ENDMDL
MODEL 6
REMARK VINA RESULT:    -6.406      2.336      3.242
REMARK INTER + INTRA:         -10.041
REMARK INTER:                  -9.099
REMARK INTRA:                  -0.942
REMARK UNBOUND:                -1.014
REMARK  Name = 
REMARK  8 active torsions:
REMARK  status: ('A' for Active; 'I' for Inactive)
REMARK    1  A    between atoms: C_1  and  O_2
REMARK    2  A    between atoms: O_2  and  C_3
REMARK    3  A    between atoms: C_5  and  C_6
REMARK    4  A    between atoms: C_6  and  N_7
REMARK    5  A    between atoms: C_8  and  C_10
REMARK    6  A    between atoms: C_17  and  C_18
REMARK    7  A    between atoms: C_18  and  N_19
REMARK    8  A    between atoms: C_20  and  C_22
REMARK                            x       y       z     vdW  Elec       q    Type
REMARK                         _______ _______ _______ _____ _____    ______ ____
ROOT
ATOM      1  C   UNL     1      47.145   6.768  12.093  0.00  0.00    +0.000 A 
ATOM      2  C   UNL     1      46.412   5.912  11.258  0.00  0.00    +0.000 A 
ATOM      3  C   UNL     1      45.018   6.033  11.134  0.00  0.00    +0.000 A 
ATOM      4  C   UNL     1      44.366   7.044  11.843  0.00  0.00    +0.000 A 
ATOM      5  C   UNL     1      45.087   7.899  12.681  0.00  0.00    +0.000 A 
ATOM      6  C   UNL     1      46.478   7.764  12.828  0.00  0.00    +0.000 A 
ENDROOT
BRANCH   1   8
ATOM      7  C   UNL     1      49.306   7.544  11.472  0.00  0.00    +0.000 C 
ATOM      8  O   UNL     1      48.502   6.682  12.269  0.00  0.00    +0.000 OA
ENDBRANCH   1   8
BRANCH   3   9
ATOM      9  C   UNL     1      44.251   5.116  10.218  0.00  0.00    +0.000 C 
BRANCH   9  10
ATOM     10  N   UNL     1      45.111   4.573   9.197  0.00  0.00    +0.000 N 
ATOM     11  C   UNL     1      45.093   3.239   8.852  0.00  0.00    +0.000 C 
ATOM     12  O   UNL     1      44.340   2.447   9.408  0.00  0.00    +0.000 OA
ATOM     13  H   UNL     1      45.709   5.197   8.670  0.00  0.00    +0.000 HD
BRANCH  11  14
ATOM     14  C   UNL     1      46.014   2.851   7.788  0.00  0.00    +0.000 A 
ATOM     15  C   UNL     1      46.427   3.623   6.715  0.00  0.00    +0.000 A 
ATOM     16  C   UNL     1      47.326   2.931   5.851  0.00  0.00    +0.000 A 
ATOM     17  C   UNL     1      47.573   1.649   6.286  0.00  0.00    +0.000 A 
ATOM     18  S   UNL     1      46.731   1.290   7.729  0.00  0.00    +0.000 S 
ENDBRANCH  11  14
ENDBRANCH   9  10
ENDBRANCH   3   9
BRANCH   6  19
ATOM     19  C   UNL     1      47.209   8.747  13.713  0.00  0.00    +0.000 C 
BRANCH  19  20
ATOM     20  N   UNL     1      47.617   8.109  14.945  0.00  0.00    +0.000 N 
ATOM     21  C   UNL     1      48.734   8.482  15.644  0.00  0.00    +0.000 C 
ATOM     22  O   UNL     1      49.547   9.291  15.209  0.00  0.00    +0.000 OA
ATOM     23  H   UNL     1      46.886   7.592  15.423  0.00  0.00    +0.000 HD
BRANCH  21  24
ATOM     24  C   UNL     1      48.937   7.823  16.943  0.00  0.00    +0.000 A 
ATOM     25  C   UNL     1      49.496   6.555  17.001  0.00  0.00    +0.000 A 
ATOM     26  S   UNL     1      49.686   5.964  18.591  0.00  0.00    +0.000 S 
ATOM     27  C   UNL     1      49.109   7.419  19.257  0.00  0.00    +0.000 A 
ATOM     28  N   UNL     1      49.108   7.624  20.602  0.00  0.00    +0.000 NA
ATOM     29  C   UNL     1      48.683   8.789  20.963  0.00  0.00    +0.000 A 
ATOM     30  N   UNL     1      48.220   9.753  20.104  0.00  0.00    +0.000 N 
ATOM     31  C   UNL     1      48.139   9.564  18.747  0.00  0.00    +0.000 A 
ATOM     32  O   UNL     1      47.607  10.396  18.020  0.00  0.00    +0.000 OA
ATOM     33  C   UNL     1      48.687   8.304  18.281  0.00  0.00    +0.000 A 
ATOM     34  H   UNL     1      47.855  10.625  20.454  0.00  0.00    +0.000 HD
ENDBRANCH  21  24
ENDBRANCH  19  20
ENDBRANCH   6  19
TORSDOF 7
ENDMDL
MODEL 7
REMARK VINA RESULT:    -6.076      1.938      2.426
REMARK INTER + INTRA:          -9.576
REMARK INTER:                  -8.467
REMARK INTRA:                  -1.109
REMARK UNBOUND:                -1.014
REMARK  Name = 
REMARK  8 active torsions:
REMARK  status: ('A' for Active; 'I' for Inactive)
REMARK    1  A    between atoms: C_1  and  O_2
REMARK    2  A    between atoms: O_2  and  C_3
REMARK    3  A    between atoms: C_5  and  C_6
REMARK    4  A    between atoms: C_6  and  N_7
REMARK    5  A    between atoms: C_8  and  C_10
REMARK    6  A    between atoms: C_17  and  C_18
REMARK    7  A    between atoms: C_18  and  N_19
REMARK    8  A    between atoms: C_20  and  C_22
REMARK                            x       y       z     vdW  Elec       q    Type
REMARK                         _______ _______ _______ _____ _____    ______ ____
ROOT
ATOM      1  C   UNL     1      46.938   8.495  12.448  0.00  0.00    +0.000 A 
ATOM      2  C   UNL     1      45.993   7.904  11.597  0.00  0.00    +0.000 A 
ATOM      3  C   UNL     1      45.844   6.509  11.531  0.00  0.00    +0.000 A 
ATOM      4  C   UNL     1      46.643   5.708  12.350  0.00  0.00    +0.000 A 
ATOM      5  C   UNL     1      47.591   6.287  13.198  0.00  0.00    +0.000 A 
ATOM      6  C   UNL     1      47.761   7.682  13.247  0.00  0.00    +0.000 A 
ENDROOT
BRANCH   1   8
ATOM      7  C   UNL     1      46.157  10.683  11.938  0.00  0.00    +0.000 C 
ATOM      8  O   UNL     1      47.142   9.848  12.537  0.00  0.00    +0.000 OA
ENDBRANCH   1   8
BRANCH   3   9
ATOM      9  C   UNL     1      44.809   5.894  10.626  0.00  0.00    +0.000 C 
BRANCH   9  10
ATOM     10  N   UNL     1      45.424   5.017   9.662  0.00  0.00    +0.000 N 
ATOM     11  C   UNL     1      45.141   3.669   9.607  0.00  0.00    +0.000 C 
ATOM     12  O   UNL     1      44.348   3.152  10.387  0.00  0.00    +0.000 OA
ATOM     13  H   UNL     1      46.041   5.407   8.962  0.00  0.00    +0.000 HD
BRANCH  11  14
ATOM     14  C   UNL     1      45.836   2.922   8.563  0.00  0.00    +0.000 A 
ATOM     15  C   UNL     1      45.981   1.548   8.472  0.00  0.00    +0.000 A 
ATOM     16  C   UNL     1      46.732   1.147   7.328  0.00  0.00    +0.000 A 
ATOM     17  C   UNL     1      47.143   2.226   6.579  0.00  0.00    +0.000 A 
ATOM     18  S   UNL     1      46.619   3.707   7.250  0.00  0.00    +0.000 S 
ENDBRANCH  11  14
ENDBRANCH   9  10
ENDBRANCH   3   9
BRANCH   6  19
ATOM     19  C   UNL     1      48.771   8.251  14.216  0.00  0.00    +0.000 C 
BRANCH  19  20
ATOM     20  N   UNL     1      48.778   7.487  15.443  0.00  0.00    +0.000 N 
ATOM     21  C   UNL     1      49.929   7.030  16.031  0.00  0.00    +0.000 C 
ATOM     22  O   UNL     1      51.026   7.116  15.492  0.00  0.00    +0.000 OA
ATOM     23  H   UNL     1      47.936   7.567  16.004  0.00  0.00    +0.000 HD
BRANCH  21  24
ATOM     24  C   UNL     1      49.773   6.382  17.342  0.00  0.00    +0.000 A 
ATOM     25  C   UNL     1      50.294   5.116  17.559  0.00  0.00    +0.000 A 
ATOM     26  S   UNL     1      50.048   4.539  19.148  0.00  0.00    +0.000 S 
ATOM     27  C   UNL     1      49.316   6.000  19.621  0.00  0.00    +0.000 A 
ATOM     28  N   UNL     1      48.955   6.218  20.914  0.00  0.00    +0.000 NA
ATOM     29  C   UNL     1      48.451   7.386  21.138  0.00  0.00    +0.000 A 
ATOM     30  N   UNL     1      48.238   8.341  20.177  0.00  0.00    +0.000 N 
ATOM     31  C   UNL     1      48.524   8.140  18.849  0.00  0.00    +0.000 A 
ATOM     32  O   UNL     1      48.209   8.965  17.999  0.00  0.00    +0.000 OA
ATOM     33  C   UNL     1      49.174   6.876  18.559  0.00  0.00    +0.000 A 
ATOM     34  H   UNL     1      47.794   9.217  20.408  0.00  0.00    +0.000 HD
ENDBRANCH  21  24
ENDBRANCH  19  20
ENDBRANCH   6  19
TORSDOF 7
ENDMDL
MODEL 8
REMARK VINA RESULT:    -5.976      3.402      4.742
REMARK INTER + INTRA:          -9.435
REMARK INTER:                  -8.805
REMARK INTRA:                  -0.630
REMARK UNBOUND:                -1.014
REMARK  Name = 
REMARK  8 active torsions:
REMARK  status: ('A' for Active; 'I' for Inactive)
REMARK    1  A    between atoms: C_1  and  O_2
REMARK    2  A    between atoms: O_2  and  C_3
REMARK    3  A    between atoms: C_5  and  C_6
REMARK    4  A    between atoms: C_6  and  N_7
REMARK    5  A    between atoms: C_8  and  C_10
REMARK    6  A    between atoms: C_17  and  C_18
REMARK    7  A    between atoms: C_18  and  N_19
REMARK    8  A    between atoms: C_20  and  C_22
REMARK                            x       y       z     vdW  Elec       q    Type
REMARK                         _______ _______ _______ _____ _____    ______ ____
ROOT
ATOM      1  C   UNL     1      45.393   7.533  12.370  0.00  0.00    +0.000 A 
ATOM      2  C   UNL     1      44.528   6.778  11.563  0.00  0.00    +0.000 A 
ATOM      3  C   UNL     1      44.694   5.392  11.416  0.00  0.00    +0.000 A 
ATOM      4  C   UNL     1      45.730   4.761  12.109  0.00  0.00    +0.000 A 
ATOM      5  C   UNL     1      46.599   5.504  12.911  0.00  0.00    +0.000 A 
ATOM      6  C   UNL     1      46.453   6.896  13.040  0.00  0.00    +0.000 A 
ENDROOT
BRANCH   1   8
ATOM      7  C   UNL     1      44.844   9.637  11.407  0.00  0.00    +0.000 C 
ATOM      8  O   UNL     1      45.292   8.890  12.533  0.00  0.00    +0.000 OA
ENDBRANCH   1   8
BRANCH   3   9
ATOM      9  C   UNL     1      43.743   4.596  10.560  0.00  0.00    +0.000 C 
BRANCH   9  10
ATOM     10  N   UNL     1      44.450   3.609   9.786  0.00  0.00    +0.000 N 
ATOM     11  C   UNL     1      45.314   3.951   8.767  0.00  0.00    +0.000 C 
ATOM     12  O   UNL     1      45.516   5.124   8.471  0.00  0.00    +0.000 OA
ATOM     13  H   UNL     1      44.361   2.631  10.029  0.00  0.00    +0.000 HD
BRANCH  11  14
ATOM     14  C   UNL     1      45.963   2.833   8.089  0.00  0.00    +0.000 A 
ATOM     15  C   UNL     1      45.944   1.501   8.466  0.00  0.00    +0.000 A 
ATOM     16  C   UNL     1      46.695   0.668   7.585  0.00  0.00    +0.000 A 
ATOM     17  C   UNL     1      47.269   1.387   6.562  0.00  0.00    +0.000 A 
ATOM     18  S   UNL     1      46.896   3.052   6.663  0.00  0.00    +0.000 S 
ENDBRANCH  11  14
ENDBRANCH   9  10
ENDBRANCH   3   9
BRANCH   6  19
ATOM     19  C   UNL     1      47.397   7.639  13.957  0.00  0.00    +0.000 C 
BRANCH  19  20
ATOM     20  N   UNL     1      48.499   8.194  13.204  0.00  0.00    +0.000 N 
ATOM     21  C   UNL     1      49.585   8.785  13.796  0.00  0.00    +0.000 C 
ATOM     22  O   UNL     1      49.641   9.010  14.999  0.00  0.00    +0.000 OA
ATOM     23  H   UNL     1      48.579   7.858  12.250  0.00  0.00    +0.000 HD
BRANCH  21  24
ATOM     24  C   UNL     1      50.677   9.181  12.895  0.00  0.00    +0.000 A 
ATOM     25  C   UNL     1      50.402   9.888  11.735  0.00  0.00    +0.000 A 
ATOM     26  S   UNL     1      51.795  10.290  10.833  0.00  0.00    +0.000 S 
ATOM     27  C   UNL     1      52.818   9.610  12.010  0.00  0.00    +0.000 A 
ATOM     28  N   UNL     1      54.170   9.709  11.906  0.00  0.00    +0.000 NA
ATOM     29  C   UNL     1      54.820   9.184  12.892  0.00  0.00    +0.000 A 
ATOM     30  N   UNL     1      54.241   8.535  13.952  0.00  0.00    +0.000 N 
ATOM     31  C   UNL     1      52.885   8.353  14.063  0.00  0.00    +0.000 A 
ATOM     32  O   UNL     1      52.408   7.663  14.957  0.00  0.00    +0.000 OA
ATOM     33  C   UNL     1      52.104   9.000  13.026  0.00  0.00    +0.000 A 
ATOM     34  H   UNL     1      54.807   8.103  14.666  0.00  0.00    +0.000 HD
ENDBRANCH  21  24
ENDBRANCH  19  20
ENDBRANCH   6  19
TORSDOF 7
ENDMDL
MODEL 9
REMARK VINA RESULT:    -5.869      3.693      4.965
REMARK INTER + INTRA:          -9.284
REMARK INTER:                  -8.047
REMARK INTRA:                  -1.237
REMARK UNBOUND:                -1.014
REMARK  Name = 
REMARK  8 active torsions:
REMARK  status: ('A' for Active; 'I' for Inactive)
REMARK    1  A    between atoms: C_1  and  O_2
REMARK    2  A    between atoms: O_2  and  C_3
REMARK    3  A    between atoms: C_5  and  C_6
REMARK    4  A    between atoms: C_6  and  N_7
REMARK    5  A    between atoms: C_8  and  C_10
REMARK    6  A    between atoms: C_17  and  C_18
REMARK    7  A    between atoms: C_18  and  N_19
REMARK    8  A    between atoms: C_20  and  C_22
REMARK                            x       y       z     vdW  Elec       q    Type
REMARK                         _______ _______ _______ _____ _____    ______ ____
ROOT
ATOM      1  C   UNL     1      47.659   8.162  12.944  0.00  0.00    +0.000 A 
ATOM      2  C   UNL     1      46.715   7.762  11.987  0.00  0.00    +0.000 A 
ATOM      3  C   UNL     1      46.225   6.447  11.953  0.00  0.00    +0.000 A 
ATOM      4  C   UNL     1      46.676   5.536  12.910  0.00  0.00    +0.000 A 
ATOM      5  C   UNL     1      47.620   5.923  13.865  0.00  0.00    +0.000 A 
ATOM      6  C   UNL     1      48.133   7.232  13.886  0.00  0.00    +0.000 A 
ENDROOT
BRANCH   1   8
ATOM      7  C   UNL     1      48.418  10.087  11.772  0.00  0.00    +0.000 C 
ATOM      8  O   UNL     1      48.188   9.425  13.011  0.00  0.00    +0.000 OA
ENDBRANCH   1   8
BRANCH   3   9
ATOM      9  C   UNL     1      45.196   6.042  10.929  0.00  0.00    +0.000 C 
BRANCH   9  10
ATOM     10  N   UNL     1      45.733   5.062  10.019  0.00  0.00    +0.000 N 
ATOM     11  C   UNL     1      44.979   4.016   9.534  0.00  0.00    +0.000 C 
ATOM     12  O   UNL     1      43.806   3.871   9.862  0.00  0.00    +0.000 OA
ATOM     13  H   UNL     1      46.678   5.172   9.675  0.00  0.00    +0.000 HD
BRANCH  11  14
ATOM     14  C   UNL     1      45.667   3.119   8.610  0.00  0.00    +0.000 A 
ATOM     15  C   UNL     1      45.751   1.740   8.689  0.00  0.00    +0.000 A 
ATOM     16  C   UNL     1      46.513   1.171   7.626  0.00  0.00    +0.000 A 
ATOM     17  C   UNL     1      46.992   2.133   6.766  0.00  0.00    +0.000 A 
ATOM     18  S   UNL     1      46.518   3.705   7.237  0.00  0.00    +0.000 S 
ENDBRANCH  11  14
ENDBRANCH   9  10
ENDBRANCH   3   9
BRANCH   6  19
ATOM     19  C   UNL     1      49.117   7.603  14.970  0.00  0.00    +0.000 C 
BRANCH  19  20
ATOM     20  N   UNL     1      50.473   7.480  14.484  0.00  0.00    +0.000 N 
ATOM     21  C   UNL     1      51.345   8.536  14.425  0.00  0.00    +0.000 C 
ATOM     22  O   UNL     1      51.000   9.690  14.650  0.00  0.00    +0.000 OA
ATOM     23  H   UNL     1      50.843   6.534  14.480  0.00  0.00    +0.000 HD
BRANCH  21  24
ATOM     24  C   UNL     1      52.724   8.216  14.030  0.00  0.00    +0.000 A 
ATOM     25  C   UNL     1      53.648   7.818  14.984  0.00  0.00    +0.000 A 
ATOM     26  S   UNL     1      55.186   7.457  14.338  0.00  0.00    +0.000 S 
ATOM     27  C   UNL     1      54.642   7.735  12.750  0.00  0.00    +0.000 A 
ATOM     28  N   UNL     1      55.448   7.498  11.680  0.00  0.00    +0.000 NA
ATOM     29  C   UNL     1      54.891   7.711  10.535  0.00  0.00    +0.000 A 
ATOM     30  N   UNL     1      53.613   8.179  10.363  0.00  0.00    +0.000 N 
ATOM     31  C   UNL     1      52.788   8.496  11.414  0.00  0.00    +0.000 A 
ATOM     32  O   UNL     1      51.699   9.027  11.229  0.00  0.00    +0.000 OA
ATOM     33  C   UNL     1      53.336   8.190  12.722  0.00  0.00    +0.000 A 
ATOM     34  H   UNL     1      53.252   8.373   9.442  0.00  0.00    +0.000 HD
ENDBRANCH  21  24
ENDBRANCH  19  20
ENDBRANCH   6  19
TORSDOF 7
ENDMDL
