MODEL 1
REMARK VINA RESULT:    -7.542      0.000      0.000
REMARK INTER + INTRA:         -11.249
REMARK INTER:                 -10.187
REMARK INTRA:                  -1.062
REMARK UNBOUND:                -1.062
REMARK  Name = 
REMARK  7 active torsions:
REMARK  status: ('A' for Active; 'I' for Inactive)
REMARK    1  A    between atoms: C_1  and  C_2
REMARK    2  A    between atoms: C_2  and  N_3
REMARK    3  A    between atoms: C_2  and  C_12
REMARK    4  A    between atoms: C_4  and  C_6
REMARK    5  A    between atoms: C_15  and  C_16
REMARK    6  A    between atoms: C_16  and  N_17
REMARK    7  A    between atoms: C_18  and  C_20
REMARK                            x       y       z     vdW  Elec       q    Type
REMARK                         _______ _______ _______ _____ _____    ______ ____
ROOT
ATOM      1  C   UNL     1      47.737   5.958  14.365  0.00  0.00    +0.000 A 
ATOM      2  C   UNL     1      47.072   4.722  14.376  0.00  0.00    +0.000 A 
ATOM      3  C   UNL     1      47.150   3.880  15.489  0.00  0.00    +0.000 A 
ATOM      4  C   UNL     1      47.889   4.259  16.617  0.00  0.00    +0.000 A 
ATOM      5  C   UNL     1      48.550   5.493  16.609  0.00  0.00    +0.000 A 
ATOM      6  C   UNL     1      48.468   6.336  15.500  0.00  0.00    +0.000 A 
ENDROOT
BRANCH   1   8
ATOM      7  C   UNL     1      49.079   7.080  12.549  0.00  0.00    +0.000 C 
ATOM      8  C   UNL     1      47.685   6.836  13.132  0.00  0.00    +0.000 C 
BRANCH   8   9
ATOM      9  N   UNL     1      46.794   6.251  12.138  0.00  0.00    +0.000 N 
ATOM     10  C   UNL     1      45.526   6.750  11.932  0.00  0.00    +0.000 C 
ATOM     11  O   UNL     1      45.078   7.681  12.594  0.00  0.00    +0.000 OA
ATOM     12  H   UNL     1      47.070   5.395  11.678  0.00  0.00    +0.000 HD
BRANCH  10  13
ATOM     13  C   UNL     1      44.726   6.029  10.818  0.00  0.00    +0.000 C 
ATOM     14  C   UNL     1      45.178   4.574  10.631  0.00  0.00    +0.000 C 
ATOM     15  C   UNL     1      44.768   3.686  11.805  0.00  0.00    +0.000 C 
ATOM     16  C   UNL     1      43.280   3.832  12.098  0.00  0.00    +0.000 C 
ATOM     17  C   UNL     1      42.864   5.296  12.223  0.00  0.00    +0.000 C 
ATOM     18  N   UNL     1      43.266   6.096  11.063  0.00  0.00    +0.000 NA
ATOM     19  H   UNL     1      42.980   7.060  11.213  0.00  0.00    +0.000 HD
ENDBRANCH  10  13
ENDBRANCH   8   9
ENDBRANCH   1   8
BRANCH   4  20
ATOM     20  C   UNL     1      48.047   3.330  17.790  0.00  0.00    +0.000 C 
BRANCH  20  21
ATOM     21  N   UNL     1      49.440   3.051  18.025  0.00  0.00    +0.000 N 
ATOM     22  C   UNL     1      50.161   2.236  17.195  0.00  0.00    +0.000 C 
ATOM     23  O   UNL     1      49.666   1.715  16.200  0.00  0.00    +0.000 OA
ATOM     24  H   UNL     1      49.803   3.271  18.948  0.00  0.00    +0.000 HD
BRANCH  22  25
ATOM     25  C   UNL     1      51.584   2.076  17.520  0.00  0.00    +0.000 A 
ATOM     26  C   UNL     1      52.115   0.803  17.678  0.00  0.00    +0.000 A 
ATOM     27  S   UNL     1      53.792   0.794  17.977  0.00  0.00    +0.000 S 
ATOM     28  C   UNL     1      53.860   2.493  17.964  0.00  0.00    +0.000 A 
ATOM     29  N   UNL     1      55.032   3.148  18.183  0.00  0.00    +0.000 NA
ATOM     30  C   UNL     1      54.934   4.434  18.181  0.00  0.00    +0.000 A 
ATOM     31  N   UNL     1      53.767   5.129  17.974  0.00  0.00    +0.000 N 
ATOM     32  C   UNL     1      52.569   4.510  17.717  0.00  0.00    +0.000 A 
ATOM     33  O   UNL     1      51.554   5.163  17.489  0.00  0.00    +0.000 OA
ATOM     34  C   UNL     1      52.624   3.060  17.720  0.00  0.00    +0.000 A 
ATOM     35  H   UNL     1      53.762   6.137  17.981  0.00  0.00    +0.000 HD
ENDBRANCH  22  25
ENDBRANCH  20  21
ENDBRANCH   4  20
TORSDOF 6
ENDMDL
MODEL 2
REMARK VINA RESULT:    -7.426      3.367      8.810
REMARK INTER + INTRA:         -11.092
REMARK INTER:                  -9.881
REMARK INTRA:                  -1.211
REMARK UNBOUND:                -1.062
REMARK  Name = 
REMARK  7 active torsions:
REMARK  status: ('A' for Active; 'I' for Inactive)
REMARK    1  A    between atoms: C_1  and  C_2
REMARK    2  A    between atoms: C_2  and  N_3
REMARK    3  A    between atoms: C_2  and  C_12
REMARK    4  A    between atoms: C_4  and  C_6
REMARK    5  A    between atoms: C_15  and  C_16
REMARK    6  A    between atoms: C_16  and  N_17
REMARK    7  A    between atoms: C_18  and  C_20
REMARK                            x       y       z     vdW  Elec       q    Type
REMARK                         _______ _______ _______ _____ _____    ______ ____
ROOT
ATOM      1  C   UNL     1      49.666   7.899  15.543  0.00  0.00    +0.000 A 
ATOM      2  C   UNL     1      50.180   7.379  14.345  0.00  0.00    +0.000 A 
ATOM      3  C   UNL     1      49.431   7.433  13.166  0.00  0.00    +0.000 A 
ATOM      4  C   UNL     1      48.157   8.014  13.159  0.00  0.00    +0.000 A 
ATOM      5  C   UNL     1      47.644   8.535  14.353  0.00  0.00    +0.000 A 
ATOM      6  C   UNL     1      48.394   8.487  15.529  0.00  0.00    +0.000 A 
ENDROOT
BRANCH   1   8
ATOM      7  C   UNL     1      50.618   9.141  17.521  0.00  0.00    +0.000 C 
ATOM      8  C   UNL     1      50.469   7.787  16.823  0.00  0.00    +0.000 C 
BRANCH   8   9
ATOM      9  N   UNL     1      49.862   6.802  17.710  0.00  0.00    +0.000 N 
ATOM     10  C   UNL     1      50.252   5.480  17.685  0.00  0.00    +0.000 C 
ATOM     11  O   UNL     1      51.097   5.066  16.897  0.00  0.00    +0.000 OA
ATOM     12  H   UNL     1      49.064   7.072  18.267  0.00  0.00    +0.000 HD
BRANCH  10  13
ATOM     13  C   UNL     1      49.525   4.577  18.713  0.00  0.00    +0.000 C 
ATOM     14  C   UNL     1      48.064   4.999  18.923  0.00  0.00    +0.000 C 
ATOM     15  C   UNL     1      47.193   4.689  17.706  0.00  0.00    +0.000 C 
ATOM     16  C   UNL     1      47.356   3.235  17.282  0.00  0.00    +0.000 C 
ATOM     17  C   UNL     1      48.825   2.843  17.137  0.00  0.00    +0.000 C 
ATOM     18  N   UNL     1      49.608   3.146  18.338  0.00  0.00    +0.000 NA
ATOM     19  H   UNL     1      50.576   2.882  18.175  0.00  0.00    +0.000 HD
ENDBRANCH  10  13
ENDBRANCH   8   9
ENDBRANCH   1   8
BRANCH   4  20
ATOM     20  C   UNL     1      47.308   8.009  11.916  0.00  0.00    +0.000 C 
BRANCH  20  21
ATOM     21  N   UNL     1      46.670   6.728  11.750  0.00  0.00    +0.000 N 
ATOM     22  C   UNL     1      45.310   6.610  11.646  0.00  0.00    +0.000 C 
ATOM     23  O   UNL     1      44.566   7.586  11.671  0.00  0.00    +0.000 OA
ATOM     24  H   UNL     1      47.228   5.907  11.960  0.00  0.00    +0.000 HD
BRANCH  22  25
ATOM     25  C   UNL     1      44.793   5.253  11.429  0.00  0.00    +0.000 A 
ATOM     26  C   UNL     1      44.069   4.624  12.433  0.00  0.00    +0.000 A 
ATOM     27  S   UNL     1      43.480   3.087  11.991  0.00  0.00    +0.000 S 
ATOM     28  C   UNL     1      44.219   3.182  10.463  0.00  0.00    +0.000 A 
ATOM     29  N   UNL     1      44.118   2.158   9.573  0.00  0.00    +0.000 NA
ATOM     30  C   UNL     1      44.755   2.347   8.468  0.00  0.00    +0.000 A 
ATOM     31  N   UNL     1      45.484   3.472   8.166  0.00  0.00    +0.000 N 
ATOM     32  C   UNL     1      45.584   4.543   9.021  0.00  0.00    +0.000 A 
ATOM     33  O   UNL     1      46.205   5.553   8.701  0.00  0.00    +0.000 OA
ATOM     34  C   UNL     1      44.894   4.374  10.285  0.00  0.00    +0.000 A 
ATOM     35  H   UNL     1      45.956   3.557   7.279  0.00  0.00    +0.000 HD
ENDBRANCH  22  25
ENDBRANCH  20  21
ENDBRANCH   4  20
TORSDOF 6
ENDMDL
MODEL 3
REMARK VINA RESULT:    -7.276      3.467      8.578
REMARK INTER + INTRA:         -10.890
REMARK INTER:                  -9.640
REMARK INTRA:                  -1.250
REMARK UNBOUND:                -1.062
REMARK  Name = 
REMARK  7 active torsions:
REMARK  status: ('A' for Active; 'I' for Inactive)
REMARK    1  A    between atoms: C_1  and  C_2
REMARK    2  A    between atoms: C_2  and  N_3
REMARK    3  A    between atoms: C_2  and  C_12
REMARK    4  A    between atoms: C_4  and  C_6
REMARK    5  A    between atoms: C_15  and  C_16
REMARK    6  A    between atoms: C_16  and  N_17
REMARK    7  A    between atoms: C_18  and  C_20
REMARK                            x       y       z     vdW  Elec       q    Type
REMARK                         _______ _______ _______ _____ _____    ______ ____
ROOT
ATOM      1  C   UNL     1      48.675   8.030  15.948  0.00  0.00    +0.000 A 
ATOM      2  C   UNL     1      49.028   6.918  15.167  0.00  0.00    +0.000 A 
ATOM      3  C   UNL     1      48.954   6.974  13.772  0.00  0.00    +0.000 A 
ATOM      4  C   UNL     1      48.533   8.145  13.130  0.00  0.00    +0.000 A 
ATOM      5  C   UNL     1      48.183   9.255  13.907  0.00  0.00    +0.000 A 
ATOM      6  C   UNL     1      48.262   9.202  15.299  0.00  0.00    +0.000 A 
ENDROOT
BRANCH   1   8
ATOM      7  C   UNL     1      47.905   9.058  18.118  0.00  0.00    +0.000 C 
ATOM      8  C   UNL     1      48.711   7.936  17.459  0.00  0.00    +0.000 C 
BRANCH   8   9
ATOM      9  N   UNL     1      48.240   6.626  17.891  0.00  0.00    +0.000 N 
ATOM     10  C   UNL     1      49.104   5.698  18.432  0.00  0.00    +0.000 C 
ATOM     11  O   UNL     1      50.307   5.914  18.542  0.00  0.00    +0.000 OA
ATOM     12  H   UNL     1      47.290   6.356  17.683  0.00  0.00    +0.000 HD
BRANCH  10  13
ATOM     13  C   UNL     1      48.430   4.371  18.865  0.00  0.00    +0.000 C 
ATOM     14  C   UNL     1      47.213   4.030  17.994  0.00  0.00    +0.000 C 
ATOM     15  C   UNL     1      47.613   3.620  16.577  0.00  0.00    +0.000 C 
ATOM     16  C   UNL     1      48.669   2.523  16.610  0.00  0.00    +0.000 C 
ATOM     17  C   UNL     1      49.835   2.880  17.529  0.00  0.00    +0.000 C 
ATOM     18  N   UNL     1      49.396   3.247  18.878  0.00  0.00    +0.000 NA
ATOM     19  H   UNL     1      50.210   3.492  19.435  0.00  0.00    +0.000 HD
ENDBRANCH  10  13
ENDBRANCH   8   9
ENDBRANCH   1   8
BRANCH   4  20
ATOM     20  C   UNL     1      48.372   8.195  11.634  0.00  0.00    +0.000 C 
BRANCH  20  21
ATOM     21  N   UNL     1      47.637   7.046  11.169  0.00  0.00    +0.000 N 
ATOM     22  C   UNL     1      46.274   6.977  11.266  0.00  0.00    +0.000 C 
ATOM     23  O   UNL     1      45.605   7.894  11.735  0.00  0.00    +0.000 OA
ATOM     24  H   UNL     1      48.169   6.199  11.000  0.00  0.00    +0.000 HD
BRANCH  22  25
ATOM     25  C   UNL     1      45.646   5.773  10.708  0.00  0.00    +0.000 A 
ATOM     26  C   UNL     1      45.781   5.490   9.356  0.00  0.00    +0.000 A 
ATOM     27  S   UNL     1      45.056   4.020   8.889  0.00  0.00    +0.000 S 
ATOM     28  C   UNL     1      44.486   3.736  10.466  0.00  0.00    +0.000 A 
ATOM     29  N   UNL     1      43.752   2.628  10.755  0.00  0.00    +0.000 NA
ATOM     30  C   UNL     1      43.356   2.556  11.980  0.00  0.00    +0.000 A 
ATOM     31  N   UNL     1      43.629   3.491  12.949  0.00  0.00    +0.000 N 
ATOM     32  C   UNL     1      44.394   4.606  12.709  0.00  0.00    +0.000 A 
ATOM     33  O   UNL     1      44.659   5.398  13.609  0.00  0.00    +0.000 OA
ATOM     34  C   UNL     1      44.856   4.740  11.340  0.00  0.00    +0.000 A 
ATOM     35  H   UNL     1      43.290   3.369  13.890  0.00  0.00    +0.000 HD
ENDBRANCH  22  25
ENDBRANCH  20  21
ENDBRANCH   4  20
TORSDOF 6
ENDMDL
MODEL 4
REMARK VINA RESULT:    -6.924      3.050      4.802
REMARK INTER + INTRA:         -10.415
REMARK INTER:                  -8.985
REMARK INTRA:                  -1.430
REMARK UNBOUND:                -1.062
REMARK  Name = 
REMARK  7 active torsions:
REMARK  status: ('A' for Active; 'I' for Inactive)
REMARK    1  A    between atoms: C_1  and  C_2
REMARK    2  A    between atoms: C_2  and  N_3
REMARK    3  A    between atoms: C_2  and  C_12
REMARK    4  A    between atoms: C_4  and  C_6
REMARK    5  A    between atoms: C_15  and  C_16
REMARK    6  A    between atoms: C_16  and  N_17
REMARK    7  A    between atoms: C_18  and  C_20
REMARK                            x       y       z     vdW  Elec       q    Type
REMARK                         _______ _______ _______ _____ _____    ______ ____
ROOT
ATOM      1  C   UNL     1      45.738   8.179  12.034  0.00  0.00    +0.000 A 
ATOM      2  C   UNL     1      46.336   9.249  12.718  0.00  0.00    +0.000 A 
ATOM      3  C   UNL     1      47.660   9.162  13.158  0.00  0.00    +0.000 A 
ATOM      4  C   UNL     1      48.415   8.008  12.917  0.00  0.00    +0.000 A 
ATOM      5  C   UNL     1      47.821   6.941  12.233  0.00  0.00    +0.000 A 
ATOM      6  C   UNL     1      46.501   7.029  11.788  0.00  0.00    +0.000 A 
ENDROOT
BRANCH   1   8
ATOM      7  C   UNL     1      44.028   9.487  10.719  0.00  0.00    +0.000 C 
ATOM      8  C   UNL     1      44.287   8.268  11.609  0.00  0.00    +0.000 C 
BRANCH   8   9
ATOM      9  N   UNL     1      43.883   7.036  10.943  0.00  0.00    +0.000 N 
ATOM     10  C   UNL     1      43.373   5.971  11.655  0.00  0.00    +0.000 C 
ATOM     11  O   UNL     1      43.268   5.997  12.877  0.00  0.00    +0.000 OA
ATOM     12  H   UNL     1      44.090   6.921   9.961  0.00  0.00    +0.000 HD
BRANCH  10  13
ATOM     13  C   UNL     1      42.968   4.754  10.786  0.00  0.00    +0.000 C 
ATOM     14  C   UNL     1      43.883   4.585   9.565  0.00  0.00    +0.000 C 
ATOM     15  C   UNL     1      45.285   4.119   9.954  0.00  0.00    +0.000 C 
ATOM     16  C   UNL     1      45.217   2.884  10.843  0.00  0.00    +0.000 C 
ATOM     17  C   UNL     1      44.256   3.076  12.015  0.00  0.00    +0.000 C 
ATOM     18  N   UNL     1      42.923   3.505  11.583  0.00  0.00    +0.000 NA
ATOM     19  H   UNL     1      42.337   3.635  12.404  0.00  0.00    +0.000 HD
ENDBRANCH  10  13
ENDBRANCH   8   9
ENDBRANCH   1   8
BRANCH   4  20
ATOM     20  C   UNL     1      49.815   7.869  13.453  0.00  0.00    +0.000 C 
BRANCH  20  21
ATOM     21  N   UNL     1      49.847   6.915  14.532  0.00  0.00    +0.000 N 
ATOM     22  C   UNL     1      49.623   7.288  15.829  0.00  0.00    +0.000 C 
ATOM     23  O   UNL     1      49.366   8.447  16.141  0.00  0.00    +0.000 OA
ATOM     24  H   UNL     1      50.280   6.017  14.337  0.00  0.00    +0.000 HD
BRANCH  22  25
ATOM     25  C   UNL     1      49.634   6.208  16.824  0.00  0.00    +0.000 A 
ATOM     26  C   UNL     1      50.582   6.218  17.838  0.00  0.00    +0.000 A 
ATOM     27  S   UNL     1      50.409   4.937  18.949  0.00  0.00    +0.000 S 
ATOM     28  C   UNL     1      49.095   4.291  18.083  0.00  0.00    +0.000 A 
ATOM     29  N   UNL     1      48.477   3.152  18.497  0.00  0.00    +0.000 NA
ATOM     30  C   UNL     1      47.520   2.755  17.729  0.00  0.00    +0.000 A 
ATOM     31  N   UNL     1      47.119   3.396  16.583  0.00  0.00    +0.000 N 
ATOM     32  C   UNL     1      47.692   4.566  16.147  0.00  0.00    +0.000 A 
ATOM     33  O   UNL     1      47.277   5.139  15.143  0.00  0.00    +0.000 OA
ATOM     34  C   UNL     1      48.783   5.049  16.971  0.00  0.00    +0.000 A 
ATOM     35  H   UNL     1      46.358   3.032  16.029  0.00  0.00    +0.000 HD
ENDBRANCH  22  25
ENDBRANCH  20  21
ENDBRANCH   4  20
TORSDOF 6
ENDMDL
MODEL 5
REMARK VINA RESULT:    -6.662      2.871      4.891
REMARK INTER + INTRA:         -10.060
REMARK INTER:                  -9.207
REMARK INTRA:                  -0.854
REMARK UNBOUND:                -1.062
REMARK  Name = 
REMARK  7 active torsions:
REMARK  status: ('A' for Active; 'I' for Inactive)
REMARK    1  A    between atoms: C_1  and  C_2
REMARK    2  A    between atoms: C_2  and  N_3
REMARK    3  A    between atoms: C_2  and  C_12
REMARK    4  A    between atoms: C_4  and  C_6
REMARK    5  A    between atoms: C_15  and  C_16
REMARK    6  A    between atoms: C_16  and  N_17
REMARK    7  A    between atoms: C_18  and  C_20
REMARK                            x       y       z     vdW  Elec       q    Type
REMARK                         _______ _______ _______ _____ _____    ______ ____
ROOT
ATOM      1  C   UNL     1      45.353   5.523  12.426  0.00  0.00    +0.000 A 
ATOM      2  C   UNL     1      46.412   5.150  13.269  0.00  0.00    +0.000 A 
ATOM      3  C   UNL     1      47.564   5.937  13.357  0.00  0.00    +0.000 A 
ATOM      4  C   UNL     1      47.678   7.116  12.609  0.00  0.00    +0.000 A 
ATOM      5  C   UNL     1      46.621   7.490  11.770  0.00  0.00    +0.000 A 
ATOM      6  C   UNL     1      45.469   6.708  11.687  0.00  0.00    +0.000 A 
ENDROOT
BRANCH   1   8
ATOM      7  C   UNL     1      42.882   5.301  12.877  0.00  0.00    +0.000 C 
ATOM      8  C   UNL     1      44.134   4.632  12.304  0.00  0.00    +0.000 C 
BRANCH   8   9
ATOM      9  N   UNL     1      43.934   4.246  10.913  0.00  0.00    +0.000 N 
ATOM     10  C   UNL     1      44.616   3.183  10.360  0.00  0.00    +0.000 C 
ATOM     11  O   UNL     1      45.443   2.539  10.998  0.00  0.00    +0.000 OA
ATOM     12  H   UNL     1      43.374   4.839  10.317  0.00  0.00    +0.000 HD
BRANCH  10  13
ATOM     13  C   UNL     1      44.260   2.893   8.880  0.00  0.00    +0.000 C 
ATOM     14  C   UNL     1      44.807   3.969   7.932  0.00  0.00    +0.000 C 
ATOM     15  C   UNL     1      46.329   3.910   7.807  0.00  0.00    +0.000 C 
ATOM     16  C   UNL     1      46.788   2.499   7.461  0.00  0.00    +0.000 C 
ATOM     17  C   UNL     1      46.179   1.456   8.395  0.00  0.00    +0.000 C 
ATOM     18  N   UNL     1      44.718   1.546   8.462  0.00  0.00    +0.000 NA
ATOM     19  H   UNL     1      44.374   0.843   9.111  0.00  0.00    +0.000 HD
ENDBRANCH  10  13
ENDBRANCH   8   9
ENDBRANCH   1   8
BRANCH   4  20
ATOM     20  C   UNL     1      48.943   7.932  12.632  0.00  0.00    +0.000 C 
BRANCH  20  21
ATOM     21  N   UNL     1      49.902   7.343  13.531  0.00  0.00    +0.000 N 
ATOM     22  C   UNL     1      50.136   7.863  14.775  0.00  0.00    +0.000 C 
ATOM     23  O   UNL     1      49.531   8.844  15.198  0.00  0.00    +0.000 OA
ATOM     24  H   UNL     1      50.570   6.693  13.128  0.00  0.00    +0.000 HD
BRANCH  22  25
ATOM     25  C   UNL     1      51.103   7.137  15.609  0.00  0.00    +0.000 A 
ATOM     26  C   UNL     1      52.460   7.399  15.475  0.00  0.00    +0.000 A 
ATOM     27  S   UNL     1      53.435   6.527  16.567  0.00  0.00    +0.000 S 
ATOM     28  C   UNL     1      52.084   5.726  17.221  0.00  0.00    +0.000 A 
ATOM     29  N   UNL     1      52.230   4.804  18.210  0.00  0.00    +0.000 NA
ATOM     30  C   UNL     1      51.128   4.249  18.587  0.00  0.00    +0.000 A 
ATOM     31  N   UNL     1      49.889   4.534  18.068  0.00  0.00    +0.000 N 
ATOM     32  C   UNL     1      49.693   5.482  17.092  0.00  0.00    +0.000 A 
ATOM     33  O   UNL     1      48.566   5.746  16.684  0.00  0.00    +0.000 OA
ATOM     34  C   UNL     1      50.904   6.128  16.625  0.00  0.00    +0.000 A 
ATOM     35  H   UNL     1      49.067   4.064  18.413  0.00  0.00    +0.000 HD
ENDBRANCH  22  25
ENDBRANCH  20  21
ENDBRANCH   4  20
TORSDOF 6
ENDMDL
MODEL 6
REMARK VINA RESULT:    -6.589      5.723      9.492
REMARK INTER + INTRA:          -9.962
REMARK INTER:                  -8.839
REMARK INTRA:                  -1.124
REMARK UNBOUND:                -1.062
REMARK  Name = 
REMARK  7 active torsions:
REMARK  status: ('A' for Active; 'I' for Inactive)
REMARK    1  A    between atoms: C_1  and  C_2
REMARK    2  A    between atoms: C_2  and  N_3
REMARK    3  A    between atoms: C_2  and  C_12
REMARK    4  A    between atoms: C_4  and  C_6
REMARK    5  A    between atoms: C_15  and  C_16
REMARK    6  A    between atoms: C_16  and  N_17
REMARK    7  A    between atoms: C_18  and  C_20
REMARK                            x       y       z     vdW  Elec       q    Type
REMARK                         _______ _______ _______ _____ _____    ______ ____
ROOT
ATOM      1  C   UNL     1      50.449   8.612  12.552  0.00  0.00    +0.000 A 
ATOM      2  C   UNL     1      49.907   7.594  11.751  0.00  0.00    +0.000 A 
ATOM      3  C   UNL     1      48.524   7.489  11.572  0.00  0.00    +0.000 A 
ATOM      4  C   UNL     1      47.657   8.403  12.183  0.00  0.00    +0.000 A 
ATOM      5  C   UNL     1      48.196   9.420  12.979  0.00  0.00    +0.000 A 
ATOM      6  C   UNL     1      49.576   9.529  13.154  0.00  0.00    +0.000 A 
ENDROOT
BRANCH   1   8
ATOM      7  C   UNL     1      52.315   8.376  14.232  0.00  0.00    +0.000 C 
ATOM      8  C   UNL     1      51.945   8.681  12.778  0.00  0.00    +0.000 C 
BRANCH   8   9
ATOM      9  N   UNL     1      52.633   7.781  11.861  0.00  0.00    +0.000 N 
ATOM     10  C   UNL     1      53.771   8.176  11.190  0.00  0.00    +0.000 C 
ATOM     11  O   UNL     1      54.236   9.306  11.306  0.00  0.00    +0.000 OA
ATOM     12  H   UNL     1      52.201   6.899  11.627  0.00  0.00    +0.000 HD
BRANCH  10  13
ATOM     13  C   UNL     1      54.389   7.085  10.279  0.00  0.00    +0.000 C 
ATOM     14  C   UNL     1      53.318   6.180   9.653  0.00  0.00    +0.000 C 
ATOM     15  C   UNL     1      52.494   6.910   8.593  0.00  0.00    +0.000 C 
ATOM     16  C   UNL     1      53.401   7.583   7.571  0.00  0.00    +0.000 C 
ATOM     17  C   UNL     1      54.483   8.429   8.238  0.00  0.00    +0.000 C 
ATOM     18  N   UNL     1      55.254   7.675   9.230  0.00  0.00    +0.000 NA
ATOM     19  H   UNL     1      55.942   8.294   9.652  0.00  0.00    +0.000 HD
ENDBRANCH  10  13
ENDBRANCH   8   9
ENDBRANCH   1   8
BRANCH   4  20
ATOM     20  C   UNL     1      46.164   8.255  12.063  0.00  0.00    +0.000 C 
BRANCH  20  21
ATOM     21  N   UNL     1      45.812   6.877  11.840  0.00  0.00    +0.000 N 
ATOM     22  C   UNL     1      44.552   6.509  11.452  0.00  0.00    +0.000 C 
ATOM     23  O   UNL     1      43.663   7.332  11.256  0.00  0.00    +0.000 OA
ATOM     24  H   UNL     1      46.444   6.175  12.214  0.00  0.00    +0.000 HD
BRANCH  22  25
ATOM     25  C   UNL     1      44.342   5.076  11.210  0.00  0.00    +0.000 A 
ATOM     26  C   UNL     1      43.594   4.329  12.110  0.00  0.00    +0.000 A 
ATOM     27  S   UNL     1      43.383   2.704  11.642  0.00  0.00    +0.000 S 
ATOM     28  C   UNL     1      44.331   2.925  10.247  0.00  0.00    +0.000 A 
ATOM     29  N   UNL     1      44.571   1.893   9.394  0.00  0.00    +0.000 NA
ATOM     30  C   UNL     1      45.333   2.192   8.397  0.00  0.00    +0.000 A 
ATOM     31  N   UNL     1      45.877   3.433   8.171  0.00  0.00    +0.000 N 
ATOM     32  C   UNL     1      45.634   4.510   8.987  0.00  0.00    +0.000 A 
ATOM     33  O   UNL     1      46.097   5.618   8.730  0.00  0.00    +0.000 OA
ATOM     34  C   UNL     1      44.790   4.224  10.132  0.00  0.00    +0.000 A 
ATOM     35  H   UNL     1      46.463   3.598   7.367  0.00  0.00    +0.000 HD
ENDBRANCH  22  25
ENDBRANCH  20  21
ENDBRANCH   4  20
TORSDOF 6
ENDMDL
MODEL 7
REMARK VINA RESULT:    -6.561      1.681      2.565
REMARK INTER + INTRA:          -9.924
REMARK INTER:                  -9.030
REMARK INTRA:                  -0.894
REMARK UNBOUND:                -1.062
REMARK  Name = 
REMARK  7 active torsions:
REMARK  status: ('A' for Active; 'I' for Inactive)
REMARK    1  A    between atoms: C_1  and  C_2
REMARK    2  A    between atoms: C_2  and  N_3
REMARK    3  A    between atoms: C_2  and  C_12
REMARK    4  A    between atoms: C_4  and  C_6
REMARK    5  A    between atoms: C_15  and  C_16
REMARK    6  A    between atoms: C_16  and  N_17
REMARK    7  A    between atoms: C_18  and  C_20
REMARK                            x       y       z     vdW  Elec       q    Type
REMARK                         _______ _______ _______ _____ _____    ______ ____
ROOT
ATOM      1  C   UNL     1      48.072   7.305  13.696  0.00  0.00    +0.000 A 
ATOM      2  C   UNL     1      48.550   8.351  14.500  0.00  0.00    +0.000 A 
ATOM      3  C   UNL     1      48.853   8.133  15.847  0.00  0.00    +0.000 A 
ATOM      4  C   UNL     1      48.692   6.863  16.416  0.00  0.00    +0.000 A 
ATOM      5  C   UNL     1      48.218   5.818  15.614  0.00  0.00    +0.000 A 
ATOM      6  C   UNL     1      47.920   6.034  14.268  0.00  0.00    +0.000 A 
ENDROOT
BRANCH   1   8
ATOM      7  C   UNL     1      48.930   7.858  11.390  0.00  0.00    +0.000 C 
ATOM      8  C   UNL     1      47.698   7.569  12.252  0.00  0.00    +0.000 C 
BRANCH   8   9
ATOM      9  N   UNL     1      46.934   6.448  11.719  0.00  0.00    +0.000 N 
ATOM     10  C   UNL     1      45.630   6.606  11.300  0.00  0.00    +0.000 C 
ATOM     11  O   UNL     1      45.044   7.681  11.387  0.00  0.00    +0.000 OA
ATOM     12  H   UNL     1      47.330   5.521  11.767  0.00  0.00    +0.000 HD
BRANCH  10  13
ATOM     13  C   UNL     1      44.978   5.319  10.734  0.00  0.00    +0.000 C 
ATOM     14  C   UNL     1      45.243   4.098  11.625  0.00  0.00    +0.000 C 
ATOM     15  C   UNL     1      44.476   4.168  12.945  0.00  0.00    +0.000 C 
ATOM     16  C   UNL     1      42.997   4.437  12.697  0.00  0.00    +0.000 C 
ATOM     17  C   UNL     1      42.782   5.627  11.764  0.00  0.00    +0.000 C 
ATOM     18  N   UNL     1      43.524   5.498  10.508  0.00  0.00    +0.000 NA
ATOM     19  H   UNL     1      43.358   6.325   9.940  0.00  0.00    +0.000 HD
ENDBRANCH  10  13
ENDBRANCH   8   9
ENDBRANCH   1   8
BRANCH   4  20
ATOM     20  C   UNL     1      48.939   6.632  17.882  0.00  0.00    +0.000 C 
BRANCH  20  21
ATOM     21  N   UNL     1      50.170   5.909  18.076  0.00  0.00    +0.000 N 
ATOM     22  C   UNL     1      50.181   4.603  18.484  0.00  0.00    +0.000 C 
ATOM     23  O   UNL     1      49.147   3.974  18.688  0.00  0.00    +0.000 OA
ATOM     24  H   UNL     1      51.020   6.460  18.142  0.00  0.00    +0.000 HD
BRANCH  22  25
ATOM     25  C   UNL     1      51.501   3.970  18.593  0.00  0.00    +0.000 A 
ATOM     26  C   UNL     1      52.524   4.623  19.267  0.00  0.00    +0.000 A 
ATOM     27  S   UNL     1      53.965   3.719  19.366  0.00  0.00    +0.000 S 
ATOM     28  C   UNL     1      53.293   2.444  18.463  0.00  0.00    +0.000 A 
ATOM     29  N   UNL     1      54.025   1.338  18.164  0.00  0.00    +0.000 NA
ATOM     30  C   UNL     1      53.403   0.466  17.444  0.00  0.00    +0.000 A 
ATOM     31  N   UNL     1      52.111   0.597  16.997  0.00  0.00    +0.000 N 
ATOM     32  C   UNL     1      51.326   1.681  17.304  0.00  0.00    +0.000 A 
ATOM     33  O   UNL     1      50.158   1.745  16.928  0.00  0.00    +0.000 OA
ATOM     34  C   UNL     1      51.983   2.698  18.103  0.00  0.00    +0.000 A 
ATOM     35  H   UNL     1      51.684  -0.127  16.440  0.00  0.00    +0.000 HD
ENDBRANCH  22  25
ENDBRANCH  20  21
ENDBRANCH   4  20
TORSDOF 6
ENDMDL
MODEL 8
REMARK VINA RESULT:    -6.219      6.003      7.530
REMARK INTER + INTRA:          -9.462
REMARK INTER:                  -8.563
REMARK INTRA:                  -0.899
REMARK UNBOUND:                -1.062
REMARK  Name = 
REMARK  7 active torsions:
REMARK  status: ('A' for Active; 'I' for Inactive)
REMARK    1  A    between atoms: C_1  and  C_2
REMARK    2  A    between atoms: C_2  and  N_3
REMARK    3  A    between atoms: C_2  and  C_12
REMARK    4  A    between atoms: C_4  and  C_6
REMARK    5  A    between atoms: C_15  and  C_16
REMARK    6  A    between atoms: C_16  and  N_17
REMARK    7  A    between atoms: C_18  and  C_20
REMARK                            x       y       z     vdW  Elec       q    Type
REMARK                         _______ _______ _______ _____ _____    ______ ____
ROOT
ATOM      1  C   UNL     1      45.109   5.937  12.382  0.00  0.00    +0.000 A 
ATOM      2  C   UNL     1      44.630   7.059  11.689  0.00  0.00    +0.000 A 
ATOM      3  C   UNL     1      45.337   8.265  11.710  0.00  0.00    +0.000 A 
ATOM      4  C   UNL     1      46.541   8.371  12.417  0.00  0.00    +0.000 A 
ATOM      5  C   UNL     1      47.021   7.251  13.107  0.00  0.00    +0.000 A 
ATOM      6  C   UNL     1      46.319   6.046  13.082  0.00  0.00    +0.000 A 
ENDROOT
BRANCH   1   8
ATOM      7  C   UNL     1      43.017   4.795  13.209  0.00  0.00    +0.000 C 
ATOM      8  C   UNL     1      44.305   4.653  12.393  0.00  0.00    +0.000 C 
BRANCH   8   9
ATOM      9  N   UNL     1      44.018   4.230  11.028  0.00  0.00    +0.000 N 
ATOM     10  C   UNL     1      44.712   3.195  10.439  0.00  0.00    +0.000 C 
ATOM     11  O   UNL     1      45.621   2.608  11.018  0.00  0.00    +0.000 OA
ATOM     12  H   UNL     1      43.382   4.781  10.469  0.00  0.00    +0.000 HD
BRANCH  10  13
ATOM     13  C   UNL     1      44.259   2.859   8.995  0.00  0.00    +0.000 C 
ATOM     14  C   UNL     1      44.658   3.952   7.994  0.00  0.00    +0.000 C 
ATOM     15  C   UNL     1      46.166   3.986   7.747  0.00  0.00    +0.000 C 
ATOM     16  C   UNL     1      46.685   2.601   7.381  0.00  0.00    +0.000 C 
ATOM     17  C   UNL     1      46.220   1.537   8.373  0.00  0.00    +0.000 C 
ATOM     18  N   UNL     1      44.766   1.537   8.557  0.00  0.00    +0.000 NA
ATOM     19  H   UNL     1      44.521   0.824   9.240  0.00  0.00    +0.000 HD
ENDBRANCH  10  13
ENDBRANCH   8   9
ENDBRANCH   1   8
BRANCH   4  20
ATOM     20  C   UNL     1      47.272   9.683  12.514  0.00  0.00    +0.000 C 
BRANCH  20  21
ATOM     21  N   UNL     1      48.474   9.647  11.720  0.00  0.00    +0.000 N 
ATOM     22  C   UNL     1      49.481  10.556  11.899  0.00  0.00    +0.000 C 
ATOM     23  O   UNL     1      49.423  11.436  12.753  0.00  0.00    +0.000 OA
ATOM     24  H   UNL     1      48.446   9.092  10.870  0.00  0.00    +0.000 HD
BRANCH  22  25
ATOM     25  C   UNL     1      50.672  10.375  11.060  0.00  0.00    +0.000 A 
ATOM     26  C   UNL     1      51.265  11.479  10.461  0.00  0.00    +0.000 A 
ATOM     27  S   UNL     1      52.678  11.105   9.584  0.00  0.00    +0.000 S 
ATOM     28  C   UNL     1      52.517   9.446   9.926  0.00  0.00    +0.000 A 
ATOM     29  N   UNL     1      53.412   8.543   9.442  0.00  0.00    +0.000 NA
ATOM     30  C   UNL     1      53.151   7.318   9.748  0.00  0.00    +0.000 A 
ATOM     31  N   UNL     1      52.076   6.910  10.499  0.00  0.00    +0.000 N 
ATOM     32  C   UNL     1      51.167   7.790  11.034  0.00  0.00    +0.000 A 
ATOM     33  O   UNL     1      50.243   7.396  11.741  0.00  0.00    +0.000 OA
ATOM     34  C   UNL     1      51.410   9.183  10.709  0.00  0.00    +0.000 A 
ATOM     35  H   UNL     1      51.933   5.933  10.704  0.00  0.00    +0.000 HD
ENDBRANCH  22  25
ENDBRANCH  20  21
ENDBRANCH   4  20
TORSDOF 6
ENDMDL
MODEL 9
REMARK VINA RESULT:    -6.053      3.235      9.469
REMARK INTER + INTRA:          -9.238
REMARK INTER:                  -8.618
REMARK INTRA:                  -0.620
REMARK UNBOUND:                -1.062
REMARK  Name = 
REMARK  7 active torsions:
REMARK  status: ('A' for Active; 'I' for Inactive)
REMARK    1  A    between atoms: C_1  and  C_2
REMARK    2  A    between atoms: C_2  and  N_3
REMARK    3  A    between atoms: C_2  and  C_12
REMARK    4  A    between atoms: C_4  and  C_6
REMARK    5  A    between atoms: C_15  and  C_16
REMARK    6  A    between atoms: C_16  and  N_17
REMARK    7  A    between atoms: C_18  and  C_20
REMARK                            x       y       z     vdW  Elec       q    Type
REMARK                         _______ _______ _______ _____ _____    ______ ____
ROOT
ATOM      1  C   UNL     1      49.665   7.910  15.911  0.00  0.00    +0.000 A 
ATOM      2  C   UNL     1      48.926   6.787  15.505  0.00  0.00    +0.000 A 
ATOM      3  C   UNL     1      48.207   6.803  14.306  0.00  0.00    +0.000 A 
ATOM      4  C   UNL     1      48.219   7.938  13.485  0.00  0.00    +0.000 A 
ATOM      5  C   UNL     1      48.957   9.057  13.888  0.00  0.00    +0.000 A 
ATOM      6  C   UNL     1      49.680   9.040  15.081  0.00  0.00    +0.000 A 
ENDROOT
BRANCH   1   8
ATOM      7  C   UNL     1      49.914   9.014  18.164  0.00  0.00    +0.000 C 
ATOM      8  C   UNL     1      50.397   7.895  17.237  0.00  0.00    +0.000 C 
BRANCH   8   9
ATOM      9  N   UNL     1      50.259   6.590  17.871  0.00  0.00    +0.000 N 
ATOM     10  C   UNL     1      51.160   5.577  17.626  0.00  0.00    +0.000 C 
ATOM     11  O   UNL     1      52.095   5.713  16.842  0.00  0.00    +0.000 OA
ATOM     12  H   UNL     1      49.425   6.393  18.406  0.00  0.00    +0.000 HD
BRANCH  10  13
ATOM     13  C   UNL     1      50.880   4.267  18.406  0.00  0.00    +0.000 C 
ATOM     14  C   UNL     1      51.970   3.211  18.174  0.00  0.00    +0.000 C 
ATOM     15  C   UNL     1      53.290   3.587  18.846  0.00  0.00    +0.000 C 
ATOM     16  C   UNL     1      53.070   3.929  20.314  0.00  0.00    +0.000 C 
ATOM     17  C   UNL     1      51.943   4.941  20.503  0.00  0.00    +0.000 C 
ATOM     18  N   UNL     1      50.697   4.522  19.854  0.00  0.00    +0.000 NA
ATOM     19  H   UNL     1      49.993   5.242  19.997  0.00  0.00    +0.000 HD
ENDBRANCH  10  13
ENDBRANCH   8   9
ENDBRANCH   1   8
BRANCH   4  20
ATOM     20  C   UNL     1      47.387   7.999  12.232  0.00  0.00    +0.000 C 
BRANCH  20  21
ATOM     21  N   UNL     1      46.707   6.746  12.020  0.00  0.00    +0.000 N 
ATOM     22  C   UNL     1      45.405   6.696  11.602  0.00  0.00    +0.000 C 
ATOM     23  O   UNL     1      44.755   7.711  11.368  0.00  0.00    +0.000 OA
ATOM     24  H   UNL     1      47.134   5.918  12.423  0.00  0.00    +0.000 HD
BRANCH  22  25
ATOM     25  C   UNL     1      44.849   5.357  11.376  0.00  0.00    +0.000 A 
ATOM     26  C   UNL     1      44.074   4.759  12.361  0.00  0.00    +0.000 A 
ATOM     27  S   UNL     1      43.445   3.241  11.909  0.00  0.00    +0.000 S 
ATOM     28  C   UNL     1      44.232   3.301  10.402  0.00  0.00    +0.000 A 
ATOM     29  N   UNL     1      44.122   2.276   9.515  0.00  0.00    +0.000 NA
ATOM     30  C   UNL     1      44.797   2.438   8.428  0.00  0.00    +0.000 A 
ATOM     31  N   UNL     1      45.573   3.536   8.143  0.00  0.00    +0.000 N 
ATOM     32  C   UNL     1      45.685   4.607   8.995  0.00  0.00    +0.000 A 
ATOM     33  O   UNL     1      46.348   5.594   8.689  0.00  0.00    +0.000 OA
ATOM     34  C   UNL     1      44.952   4.469  10.240  0.00  0.00    +0.000 A 
ATOM     35  H   UNL     1      46.072   3.599   7.270  0.00  0.00    +0.000 HD
ENDBRANCH  22  25
ENDBRANCH  20  21
ENDBRANCH   4  20
TORSDOF 6
ENDMDL
