MODEL 1
REMARK VINA RESULT:    -7.230      0.000      0.000
REMARK INTER + INTRA:         -12.313
REMARK INTER:                 -10.822
REMARK INTRA:                  -1.491
REMARK UNBOUND:                -1.491
REMARK  Name = 
REMARK  9 active torsions:
REMARK  status: ('A' for Active; 'I' for Inactive)
REMARK    1  A    between atoms: N_1  and  C_2
REMARK    2  A    between atoms: C_2  and  C_3
REMARK    3  A    between atoms: C_3  and  N_4
REMARK    4  A    between atoms: N_4  and  C_5
REMARK    5  A    between atoms: C_5  and  C_6
REMARK    6  A    between atoms: C_9  and  C_10
REMARK    7  A    between atoms: C_10  and  N_11
REMARK    8  A    between atoms: N_11  and  C_12
REMARK    9  A    between atoms: C_20  and  C_22
REMARK                            x       y       z     vdW  Elec       q    Type
REMARK                         _______ _______ _______ _____ _____    ______ ____
ROOT
ATOM      1  N   UNL     1      45.698   7.105  12.260  0.00  0.00    +0.000 N 
ATOM      2  C   UNL     1      44.526   6.566  11.669  0.00  0.00    +0.000 C 
ATOM      3  O   UNL     1      43.594   7.303  11.357  0.00  0.00    +0.000 OA
ENDROOT
BRANCH   2   4
ATOM      4  C   UNL     1      44.366   5.104  11.474  0.00  0.00    +0.000 A 
ATOM      5  C   UNL     1      43.704   4.247  12.329  0.00  0.00    +0.000 A 
ATOM      6  S   UNL     1      43.499   2.656  11.768  0.00  0.00    +0.000 S 
ATOM      7  C   UNL     1      44.301   3.037  10.332  0.00  0.00    +0.000 A 
ATOM      8  N   UNL     1      44.441   2.092   9.370  0.00  0.00    +0.000 NA
ATOM      9  C   UNL     1      45.072   2.508   8.317  0.00  0.00    +0.000 A 
ATOM     10  N   UNL     1      45.578   3.764   8.160  0.00  0.00    +0.000 N 
ATOM     11  C   UNL     1      45.550   4.725   9.151  0.00  0.00    +0.000 A 
ATOM     12  O   UNL     1      46.212   5.755   9.053  0.00  0.00    +0.000 OA
ATOM     13  C   UNL     1      44.763   4.343  10.307  0.00  0.00    +0.000 A 
ATOM     14  H   UNL     1      46.133   3.997   7.343  0.00  0.00    +0.000 HD
ENDBRANCH   2   4
BRANCH   1  15
ATOM     15  C   UNL     1      45.732   8.591  12.273  0.00  0.00    +0.000 C 
BRANCH  15  16
ATOM     16  C   UNL     1      47.068   9.364  12.150  0.00  0.00    +0.000 C 
BRANCH  16  17
ATOM     17  N   UNL     1      47.567   9.979  13.385  0.00  0.00    +0.000 NA
ATOM     18  H   UNL     1      47.231  10.941  13.433  0.00  0.00    +0.000 HD
ATOM     19  H   UNL     1      48.584  10.025  13.369  0.00  0.00    +0.000 HD
ENDBRANCH  16  17
ENDBRANCH  15  16
ENDBRANCH   1  15
BRANCH   1  20
ATOM     20  C   UNL     1      46.968   6.378  12.347  0.00  0.00    +0.000 C 
BRANCH  20  21
ATOM     21  C   UNL     1      47.362   5.938  13.749  0.00  0.00    +0.000 A 
ATOM     22  C   UNL     1      48.277   6.634  14.554  0.00  0.00    +0.000 A 
ATOM     23  C   UNL     1      48.592   6.203  15.841  0.00  0.00    +0.000 A 
ATOM     24  C   UNL     1      48.092   4.990  16.312  0.00  0.00    +0.000 A 
ATOM     25  C   UNL     1      47.152   4.302  15.542  0.00  0.00    +0.000 A 
ATOM     26  C   UNL     1      46.766   4.793  14.294  0.00  0.00    +0.000 A 
BRANCH  24  27
ATOM     27  C   UNL     1      48.705   4.364  17.536  0.00  0.00    +0.000 C 
BRANCH  27  28
ATOM     28  N   UNL     1      50.155   4.519  17.573  0.00  0.00    +0.000 NA
ATOM     29  H   UNL     1      50.374   5.328  18.155  0.00  0.00    +0.000 HD
BRANCH  28  30
ATOM     30  C   UNL     1      50.823   3.324  18.121  0.00  0.00    +0.000 C 
ATOM     31  C   UNL     1      50.765   2.132  17.147  0.00  0.00    +0.000 C 
ATOM     32  C   UNL     1      51.639   0.977  17.620  0.00  0.00    +0.000 C 
ATOM     33  C   UNL     1      53.058   1.443  17.919  0.00  0.00    +0.000 C 
ATOM     34  N   UNL     1      53.059   2.507  18.922  0.00  0.00    +0.000 NA
ATOM     35  C   UNL     1      52.296   3.668  18.447  0.00  0.00    +0.000 C 
ATOM     36  H   UNL     1      54.020   2.796  19.100  0.00  0.00    +0.000 HD
ENDBRANCH  28  30
ENDBRANCH  27  28
ENDBRANCH  24  27
ENDBRANCH  20  21
ENDBRANCH   1  20
TORSDOF 9
ENDMDL
MODEL 2
REMARK VINA RESULT:    -7.151      3.646      8.482
REMARK INTER + INTRA:         -12.195
REMARK INTER:                 -10.837
REMARK INTRA:                  -1.358
REMARK UNBOUND:                -1.491
REMARK  Name = 
REMARK  9 active torsions:
REMARK  status: ('A' for Active; 'I' for Inactive)
REMARK    1  A    between atoms: N_1  and  C_2
REMARK    2  A    between atoms: C_2  and  C_3
REMARK    3  A    between atoms: C_3  and  N_4
REMARK    4  A    between atoms: N_4  and  C_5
REMARK    5  A    between atoms: C_5  and  C_6
REMARK    6  A    between atoms: C_9  and  C_10
REMARK    7  A    between atoms: C_10  and  N_11
REMARK    8  A    between atoms: N_11  and  C_12
REMARK    9  A    between atoms: C_20  and  C_22
REMARK                            x       y       z     vdW  Elec       q    Type
REMARK                         _______ _______ _______ _____ _____    ______ ____
ROOT
ATOM      1  N   UNL     1      48.664   7.400  13.949  0.00  0.00    +0.000 N 
ATOM      2  C   UNL     1      49.342   6.995  15.129  0.00  0.00    +0.000 C 
ATOM      3  O   UNL     1      50.549   7.191  15.248  0.00  0.00    +0.000 OA
ENDROOT
BRANCH   2   4
ATOM      4  C   UNL     1      48.633   6.274  16.214  0.00  0.00    +0.000 A 
ATOM      5  C   UNL     1      48.282   4.939  16.195  0.00  0.00    +0.000 A 
ATOM      6  S   UNL     1      47.654   4.319  17.647  0.00  0.00    +0.000 S 
ATOM      7  C   UNL     1      47.818   5.828  18.386  0.00  0.00    +0.000 A 
ATOM      8  N   UNL     1      47.479   5.978  19.691  0.00  0.00    +0.000 NA
ATOM      9  C   UNL     1      47.652   7.180  20.140  0.00  0.00    +0.000 A 
ATOM     10  N   UNL     1      48.114   8.229  19.400  0.00  0.00    +0.000 N 
ATOM     11  C   UNL     1      48.373   8.148  18.046  0.00  0.00    +0.000 A 
ATOM     12  O   UNL     1      48.564   9.160  17.377  0.00  0.00    +0.000 OA
ATOM     13  C   UNL     1      48.294   6.799  17.520  0.00  0.00    +0.000 A 
ATOM     14  H   UNL     1      48.147   9.163  19.795  0.00  0.00    +0.000 HD
ENDBRANCH   2   4
BRANCH   1  15
ATOM     15  C   UNL     1      49.503   8.207  13.024  0.00  0.00    +0.000 C 
BRANCH  15  16
ATOM     16  C   UNL     1      49.888   7.676  11.622  0.00  0.00    +0.000 C 
BRANCH  16  17
ATOM     17  N   UNL     1      51.302   7.336  11.433  0.00  0.00    +0.000 NA
ATOM     18  H   UNL     1      51.858   7.843  12.122  0.00  0.00    +0.000 HD
ATOM     19  H   UNL     1      51.619   7.645  10.517  0.00  0.00    +0.000 HD
ENDBRANCH  16  17
ENDBRANCH  15  16
ENDBRANCH   1  15
BRANCH   1  20
ATOM     20  C   UNL     1      47.207   7.522  13.856  0.00  0.00    +0.000 C 
BRANCH  20  21
ATOM     21  C   UNL     1      46.543   6.573  12.871  0.00  0.00    +0.000 A 
ATOM     22  C   UNL     1      46.247   6.912  11.541  0.00  0.00    +0.000 A 
ATOM     23  C   UNL     1      45.656   5.999  10.669  0.00  0.00    +0.000 A 
ATOM     24  C   UNL     1      45.230   4.759  11.142  0.00  0.00    +0.000 A 
ATOM     25  C   UNL     1      45.549   4.389  12.450  0.00  0.00    +0.000 A 
ATOM     26  C   UNL     1      46.231   5.272  13.288  0.00  0.00    +0.000 A 
BRANCH  24  27
ATOM     27  C   UNL     1      44.290   3.933  10.305  0.00  0.00    +0.000 C 
BRANCH  27  28
ATOM     28  N   UNL     1      44.333   4.299   8.894  0.00  0.00    +0.000 NA
ATOM     29  H   UNL     1      44.908   5.137   8.799  0.00  0.00    +0.000 HD
BRANCH  28  30
ATOM     30  C   UNL     1      44.896   3.221   8.062  0.00  0.00    +0.000 C 
ATOM     31  C   UNL     1      46.066   3.714   7.190  0.00  0.00    +0.000 C 
ATOM     32  C   UNL     1      46.781   2.559   6.501  0.00  0.00    +0.000 C 
ATOM     33  C   UNL     1      47.187   1.483   7.501  0.00  0.00    +0.000 C 
ATOM     34  N   UNL     1      46.022   0.981   8.230  0.00  0.00    +0.000 NA
ATOM     35  C   UNL     1      45.371   2.065   8.976  0.00  0.00    +0.000 C 
ATOM     36  H   UNL     1      46.326   0.266   8.890  0.00  0.00    +0.000 HD
ENDBRANCH  28  30
ENDBRANCH  27  28
ENDBRANCH  24  27
ENDBRANCH  20  21
ENDBRANCH   1  20
TORSDOF 9
ENDMDL
MODEL 3
REMARK VINA RESULT:    -7.097      2.312      2.994
REMARK INTER + INTRA:         -12.114
REMARK INTER:                 -10.444
REMARK INTRA:                  -1.670
REMARK UNBOUND:                -1.491
REMARK  Name = 
REMARK  9 active torsions:
REMARK  status: ('A' for Active; 'I' for Inactive)
REMARK    1  A    between atoms: N_1  and  C_2
REMARK    2  A    between atoms: C_2  and  C_3
REMARK    3  A    between atoms: C_3  and  N_4
REMARK    4  A    between atoms: N_4  and  C_5
REMARK    5  A    between atoms: C_5  and  C_6
REMARK    6  A    between atoms: C_9  and  C_10
REMARK    7  A    between atoms: C_10  and  N_11
REMARK    8  A    between atoms: N_11  and  C_12
REMARK    9  A    between atoms: C_20  and  C_22
REMARK                            x       y       z     vdW  Elec       q    Type
REMARK                         _______ _______ _______ _____ _____    ______ ____
ROOT
ATOM      1  N   UNL     1      45.961   7.183  12.144  0.00  0.00    +0.000 N 
ATOM      2  C   UNL     1      44.744   6.717  11.582  0.00  0.00    +0.000 C 
ATOM      3  O   UNL     1      43.876   7.515  11.237  0.00  0.00    +0.000 OA
ENDROOT
BRANCH   2   4
ATOM      4  C   UNL     1      44.460   5.267  11.456  0.00  0.00    +0.000 A 
ATOM      5  C   UNL     1      43.779   4.499  12.377  0.00  0.00    +0.000 A 
ATOM      6  S   UNL     1      43.420   2.909  11.894  0.00  0.00    +0.000 S 
ATOM      7  C   UNL     1      44.174   3.169  10.406  0.00  0.00    +0.000 A 
ATOM      8  N   UNL     1      44.190   2.180   9.478  0.00  0.00    +0.000 NA
ATOM      9  C   UNL     1      44.795   2.504   8.380  0.00  0.00    +0.000 A 
ATOM     10  N   UNL     1      45.389   3.709   8.145  0.00  0.00    +0.000 N 
ATOM     11  C   UNL     1      45.488   4.706   9.096  0.00  0.00    +0.000 A 
ATOM     12  O   UNL     1      46.223   5.675   8.922  0.00  0.00    +0.000 OA
ATOM     13  C   UNL     1      44.735   4.432  10.304  0.00  0.00    +0.000 A 
ATOM     14  H   UNL     1      45.918   3.866   7.294  0.00  0.00    +0.000 HD
ENDBRANCH   2   4
BRANCH   1  15
ATOM     15  C   UNL     1      46.121   8.659  12.087  0.00  0.00    +0.000 C 
BRANCH  15  16
ATOM     16  C   UNL     1      47.507   9.324  12.268  0.00  0.00    +0.000 C 
BRANCH  16  17
ATOM     17  N   UNL     1      47.760   9.927  13.581  0.00  0.00    +0.000 NA
ATOM     18  H   UNL     1      46.870  10.052  14.064  0.00  0.00    +0.000 HD
ATOM     19  H   UNL     1      48.165  10.855  13.470  0.00  0.00    +0.000 HD
ENDBRANCH  16  17
ENDBRANCH  15  16
ENDBRANCH   1  15
BRANCH   1  20
ATOM     20  C   UNL     1      47.165   6.355  12.263  0.00  0.00    +0.000 C 
BRANCH  20  21
ATOM     21  C   UNL     1      47.396   5.749  13.638  0.00  0.00    +0.000 A 
ATOM     22  C   UNL     1      46.886   4.503  14.035  0.00  0.00    +0.000 A 
ATOM     23  C   UNL     1      47.142   3.979  15.301  0.00  0.00    +0.000 A 
ATOM     24  C   UNL     1      47.814   4.747  16.251  0.00  0.00    +0.000 A 
ATOM     25  C   UNL     1      48.360   5.972  15.864  0.00  0.00    +0.000 A 
ATOM     26  C   UNL     1      48.185   6.446  14.564  0.00  0.00    +0.000 A 
BRANCH  24  27
ATOM     27  C   UNL     1      47.776   4.332  17.697  0.00  0.00    +0.000 C 
BRANCH  27  28
ATOM     28  N   UNL     1      46.777   5.071  18.462  0.00  0.00    +0.000 NA
ATOM     29  H   UNL     1      46.105   4.402  18.838  0.00  0.00    +0.000 HD
BRANCH  28  30
ATOM     30  C   UNL     1      47.383   5.834  19.568  0.00  0.00    +0.000 C 
ATOM     31  C   UNL     1      48.804   5.340  19.901  0.00  0.00    +0.000 C 
ATOM     32  C   UNL     1      49.504   6.265  20.888  0.00  0.00    +0.000 C 
ATOM     33  C   UNL     1      49.465   7.713  20.414  0.00  0.00    +0.000 C 
ATOM     34  N   UNL     1      48.087   8.159  20.209  0.00  0.00    +0.000 NA
ATOM     35  C   UNL     1      47.421   7.335  19.192  0.00  0.00    +0.000 C 
ATOM     36  H   UNL     1      48.094   9.128  19.892  0.00  0.00    +0.000 HD
ENDBRANCH  28  30
ENDBRANCH  27  28
ENDBRANCH  24  27
ENDBRANCH  20  21
ENDBRANCH   1  20
TORSDOF 9
ENDMDL
MODEL 4
REMARK VINA RESULT:    -7.048      3.815      8.455
REMARK INTER + INTRA:         -12.041
REMARK INTER:                 -10.742
REMARK INTRA:                  -1.299
REMARK UNBOUND:                -1.491
REMARK  Name = 
REMARK  9 active torsions:
REMARK  status: ('A' for Active; 'I' for Inactive)
REMARK    1  A    between atoms: N_1  and  C_2
REMARK    2  A    between atoms: C_2  and  C_3
REMARK    3  A    between atoms: C_3  and  N_4
REMARK    4  A    between atoms: N_4  and  C_5
REMARK    5  A    between atoms: C_5  and  C_6
REMARK    6  A    between atoms: C_9  and  C_10
REMARK    7  A    between atoms: C_10  and  N_11
REMARK    8  A    between atoms: N_11  and  C_12
REMARK    9  A    between atoms: C_20  and  C_22
REMARK                            x       y       z     vdW  Elec       q    Type
REMARK                         _______ _______ _______ _____ _____    ______ ____
ROOT
ATOM      1  N   UNL     1      48.917   7.236  13.815  0.00  0.00    +0.000 N 
ATOM      2  C   UNL     1      49.808   7.525  14.882  0.00  0.00    +0.000 C 
ATOM      3  O   UNL     1      51.023   7.471  14.706  0.00  0.00    +0.000 OA
ENDROOT
BRANCH   2   4
ATOM      4  C   UNL     1      49.304   7.834  16.242  0.00  0.00    +0.000 A 
ATOM      5  C   UNL     1      49.291   9.082  16.829  0.00  0.00    +0.000 A 
ATOM      6  S   UNL     1      48.478   9.192  18.317  0.00  0.00    +0.000 S 
ATOM      7  C   UNL     1      48.099   7.547  18.253  0.00  0.00    +0.000 A 
ATOM      8  N   UNL     1      47.359   6.989  19.243  0.00  0.00    +0.000 NA
ATOM      9  C   UNL     1      47.135   5.724  19.078  0.00  0.00    +0.000 A 
ATOM     10  N   UNL     1      47.597   4.982  18.030  0.00  0.00    +0.000 N 
ATOM     11  C   UNL     1      48.438   5.484  17.057  0.00  0.00    +0.000 A 
ATOM     12  O   UNL     1      49.010   4.735  16.268  0.00  0.00    +0.000 OA
ATOM     13  C   UNL     1      48.632   6.918  17.140  0.00  0.00    +0.000 A 
ATOM     14  H   UNL     1      47.453   3.979  18.007  0.00  0.00    +0.000 HD
ENDBRANCH   2   4
BRANCH   1  15
ATOM     15  C   UNL     1      49.592   7.062  12.502  0.00  0.00    +0.000 C 
BRANCH  15  16
ATOM     16  C   UNL     1      49.931   8.278  11.607  0.00  0.00    +0.000 C 
BRANCH  16  17
ATOM     17  N   UNL     1      51.292   8.312  11.063  0.00  0.00    +0.000 NA
ATOM     18  H   UNL     1      51.903   8.780  11.732  0.00  0.00    +0.000 HD
ATOM     19  H   UNL     1      51.316   8.866  10.209  0.00  0.00    +0.000 HD
ENDBRANCH  16  17
ENDBRANCH  15  16
ENDBRANCH   1  15
BRANCH   1  20
ATOM     20  C   UNL     1      47.498   7.600  13.826  0.00  0.00    +0.000 C 
BRANCH  20  21
ATOM     21  C   UNL     1      46.607   6.744  12.939  0.00  0.00    +0.000 A 
ATOM     22  C   UNL     1      46.420   5.366  13.122  0.00  0.00    +0.000 A 
ATOM     23  C   UNL     1      45.576   4.627  12.294  0.00  0.00    +0.000 A 
ATOM     24  C   UNL     1      44.991   5.228  11.181  0.00  0.00    +0.000 A 
ATOM     25  C   UNL     1      45.135   6.605  11.003  0.00  0.00    +0.000 A 
ATOM     26  C   UNL     1      45.901   7.357  11.894  0.00  0.00    +0.000 A 
BRANCH  24  27
ATOM     27  C   UNL     1      44.383   4.363  10.109  0.00  0.00    +0.000 C 
BRANCH  27  28
ATOM     28  N   UNL     1      44.892   4.683   8.781  0.00  0.00    +0.000 NA
ATOM     29  H   UNL     1      45.732   5.252   8.889  0.00  0.00    +0.000 HD
BRANCH  28  30
ATOM     30  C   UNL     1      45.216   3.471   8.007  0.00  0.00    +0.000 C 
ATOM     31  C   UNL     1      46.445   3.674   7.102  0.00  0.00    +0.000 C 
ATOM     32  C   UNL     1      46.905   2.364   6.475  0.00  0.00    +0.000 C 
ATOM     33  C   UNL     1      47.106   1.285   7.531  0.00  0.00    +0.000 C 
ATOM     34  N   UNL     1      45.878   1.065   8.294  0.00  0.00    +0.000 NA
ATOM     35  C   UNL     1      45.467   2.295   8.982  0.00  0.00    +0.000 C 
ATOM     36  H   UNL     1      46.044   0.340   8.991  0.00  0.00    +0.000 HD
ENDBRANCH  28  30
ENDBRANCH  27  28
ENDBRANCH  24  27
ENDBRANCH  20  21
ENDBRANCH   1  20
TORSDOF 9
ENDMDL
MODEL 5
REMARK VINA RESULT:    -6.643      3.133      8.297
REMARK INTER + INTRA:         -11.434
REMARK INTER:                 -10.150
REMARK INTRA:                  -1.284
REMARK UNBOUND:                -1.491
REMARK  Name = 
REMARK  9 active torsions:
REMARK  status: ('A' for Active; 'I' for Inactive)
REMARK    1  A    between atoms: N_1  and  C_2
REMARK    2  A    between atoms: C_2  and  C_3
REMARK    3  A    between atoms: C_3  and  N_4
REMARK    4  A    between atoms: N_4  and  C_5
REMARK    5  A    between atoms: C_5  and  C_6
REMARK    6  A    between atoms: C_9  and  C_10
REMARK    7  A    between atoms: C_10  and  N_11
REMARK    8  A    between atoms: N_11  and  C_12
REMARK    9  A    between atoms: C_20  and  C_22
REMARK                            x       y       z     vdW  Elec       q    Type
REMARK                         _______ _______ _______ _____ _____    ______ ____
ROOT
ATOM      1  N   UNL     1      48.833   7.639  15.385  0.00  0.00    +0.000 N 
ATOM      2  C   UNL     1      48.636   7.213  16.725  0.00  0.00    +0.000 C 
ATOM      3  O   UNL     1      48.220   8.002  17.570  0.00  0.00    +0.000 OA
ENDROOT
BRANCH   2   4
ATOM      4  C   UNL     1      48.986   5.838  17.154  0.00  0.00    +0.000 A 
ATOM      5  C   UNL     1      48.096   4.794  17.309  0.00  0.00    +0.000 A 
ATOM      6  S   UNL     1      48.787   3.272  17.619  0.00  0.00    +0.000 S 
ATOM      7  C   UNL     1      50.336   3.942  17.564  0.00  0.00    +0.000 A 
ATOM      8  N   UNL     1      51.420   3.143  17.723  0.00  0.00    +0.000 NA
ATOM      9  C   UNL     1      52.548   3.775  17.659  0.00  0.00    +0.000 A 
ATOM     10  N   UNL     1      52.678   5.120  17.468  0.00  0.00    +0.000 N 
ATOM     11  C   UNL     1      51.604   5.985  17.404  0.00  0.00    +0.000 A 
ATOM     12  O   UNL     1      51.767   7.201  17.462  0.00  0.00    +0.000 OA
ATOM     13  C   UNL     1      50.319   5.314  17.366  0.00  0.00    +0.000 A 
ATOM     14  H   UNL     1      53.590   5.560  17.511  0.00  0.00    +0.000 HD
ENDBRANCH   2   4
BRANCH   1  15
ATOM     15  C   UNL     1      48.324   9.008  15.111  0.00  0.00    +0.000 C 
BRANCH  15  16
ATOM     16  C   UNL     1      49.199  10.059  14.386  0.00  0.00    +0.000 C 
BRANCH  16  17
ATOM     17  N   UNL     1      48.588  11.379  14.196  0.00  0.00    +0.000 NA
ATOM     18  H   UNL     1      49.118  11.889  13.490  0.00  0.00    +0.000 HD
ATOM     19  H   UNL     1      48.649  11.921  15.056  0.00  0.00    +0.000 HD
ENDBRANCH  16  17
ENDBRANCH  15  16
ENDBRANCH   1  15
BRANCH   1  20
ATOM     20  C   UNL     1      48.990   6.714  14.259  0.00  0.00    +0.000 C 
BRANCH  20  21
ATOM     21  C   UNL     1      47.690   6.246  13.625  0.00  0.00    +0.000 A 
ATOM     22  C   UNL     1      46.952   5.144  14.085  0.00  0.00    +0.000 A 
ATOM     23  C   UNL     1      45.753   4.765  13.484  0.00  0.00    +0.000 A 
ATOM     24  C   UNL     1      45.323   5.405  12.323  0.00  0.00    +0.000 A 
ATOM     25  C   UNL     1      46.022   6.526  11.871  0.00  0.00    +0.000 A 
ATOM     26  C   UNL     1      47.168   6.961  12.538  0.00  0.00    +0.000 A 
BRANCH  24  27
ATOM     27  C   UNL     1      44.240   4.774  11.489  0.00  0.00    +0.000 C 
BRANCH  27  28
ATOM     28  N   UNL     1      44.274   5.222  10.102  0.00  0.00    +0.000 NA
ATOM     29  H   UNL     1      45.054   5.871   9.995  0.00  0.00    +0.000 HD
BRANCH  28  30
ATOM     30  C   UNL     1      44.437   4.098   9.163  0.00  0.00    +0.000 C 
ATOM     31  C   UNL     1      45.706   4.245   8.301  0.00  0.00    +0.000 C 
ATOM     32  C   UNL     1      45.986   2.984   7.493  0.00  0.00    +0.000 C 
ATOM     33  C   UNL     1      46.002   1.748   8.383  0.00  0.00    +0.000 C 
ATOM     34  N   UNL     1      44.736   1.605   9.102  0.00  0.00    +0.000 NA
ATOM     35  C   UNL     1      44.491   2.772   9.959  0.00  0.00    +0.000 C 
ATOM     36  H   UNL     1      44.778   0.771   9.687  0.00  0.00    +0.000 HD
ENDBRANCH  28  30
ENDBRANCH  27  28
ENDBRANCH  24  27
ENDBRANCH  20  21
ENDBRANCH   1  20
TORSDOF 9
ENDMDL
MODEL 6
REMARK VINA RESULT:    -6.417      3.241      8.202
REMARK INTER + INTRA:         -11.096
REMARK INTER:                  -9.752
REMARK INTRA:                  -1.345
REMARK UNBOUND:                -1.491
REMARK  Name = 
REMARK  9 active torsions:
REMARK  status: ('A' for Active; 'I' for Inactive)
REMARK    1  A    between atoms: N_1  and  C_2
REMARK    2  A    between atoms: C_2  and  C_3
REMARK    3  A    between atoms: C_3  and  N_4
REMARK    4  A    between atoms: N_4  and  C_5
REMARK    5  A    between atoms: C_5  and  C_6
REMARK    6  A    between atoms: C_9  and  C_10
REMARK    7  A    between atoms: C_10  and  N_11
REMARK    8  A    between atoms: N_11  and  C_12
REMARK    9  A    between atoms: C_20  and  C_22
REMARK                            x       y       z     vdW  Elec       q    Type
REMARK                         _______ _______ _______ _____ _____    ______ ____
ROOT
ATOM      1  N   UNL     1      48.856   7.022  17.111  0.00  0.00    +0.000 N 
ATOM      2  C   UNL     1      48.303   5.964  17.879  0.00  0.00    +0.000 C 
ATOM      3  O   UNL     1      47.639   6.210  18.884  0.00  0.00    +0.000 OA
ENDROOT
BRANCH   2   4
ATOM      4  C   UNL     1      48.561   4.546  17.532  0.00  0.00    +0.000 A 
ATOM      5  C   UNL     1      47.708   3.724  16.825  0.00  0.00    +0.000 A 
ATOM      6  S   UNL     1      48.334   2.203  16.394  0.00  0.00    +0.000 S 
ATOM      7  C   UNL     1      49.800   2.571  17.148  0.00  0.00    +0.000 A 
ATOM      8  N   UNL     1      50.816   1.674  17.114  0.00  0.00    +0.000 NA
ATOM      9  C   UNL     1      51.886   2.074  17.725  0.00  0.00    +0.000 A 
ATOM     10  N   UNL     1      52.013   3.269  18.369  0.00  0.00    +0.000 N 
ATOM     11  C   UNL     1      50.974   4.167  18.518  0.00  0.00    +0.000 A 
ATOM     12  O   UNL     1      51.064   5.116  19.293  0.00  0.00    +0.000 OA
ATOM     13  C   UNL     1      49.789   3.813  17.763  0.00  0.00    +0.000 A 
ATOM     14  H   UNL     1      52.852   3.483  18.898  0.00  0.00    +0.000 HD
ENDBRANCH   2   4
BRANCH   1  15
ATOM     15  C   UNL     1      48.401   8.372  17.536  0.00  0.00    +0.000 C 
BRANCH  15  16
ATOM     16  C   UNL     1      49.229   9.638  17.209  0.00  0.00    +0.000 C 
BRANCH  16  17
ATOM     17  N   UNL     1      48.560  10.642  16.376  0.00  0.00    +0.000 NA
ATOM     18  H   UNL     1      49.193  10.927  15.629  0.00  0.00    +0.000 HD
ATOM     19  H   UNL     1      48.361  11.477  16.924  0.00  0.00    +0.000 HD
ENDBRANCH  16  17
ENDBRANCH  15  16
ENDBRANCH   1  15
BRANCH   1  20
ATOM     20  C   UNL     1      49.354   6.853  15.743  0.00  0.00    +0.000 C 
BRANCH  20  21
ATOM     21  C   UNL     1      48.296   6.961  14.656  0.00  0.00    +0.000 A 
ATOM     22  C   UNL     1      47.929   8.169  14.043  0.00  0.00    +0.000 A 
ATOM     23  C   UNL     1      46.968   8.215  13.035  0.00  0.00    +0.000 A 
ATOM     24  C   UNL     1      46.256   7.065  12.699  0.00  0.00    +0.000 A 
ATOM     25  C   UNL     1      46.631   5.847  13.269  0.00  0.00    +0.000 A 
ATOM     26  C   UNL     1      47.664   5.794  14.206  0.00  0.00    +0.000 A 
BRANCH  24  27
ATOM     27  C   UNL     1      44.997   7.188  11.882  0.00  0.00    +0.000 C 
BRANCH  27  28
ATOM     28  N   UNL     1      43.903   6.390  12.423  0.00  0.00    +0.000 NA
ATOM     29  H   UNL     1      43.108   7.008  12.586  0.00  0.00    +0.000 HD
BRANCH  28  30
ATOM     30  C   UNL     1      43.504   5.307  11.506  0.00  0.00    +0.000 C 
ATOM     31  C   UNL     1      44.512   5.123  10.356  0.00  0.00    +0.000 C 
ATOM     32  C   UNL     1      44.213   3.871   9.541  0.00  0.00    +0.000 C 
ATOM     33  C   UNL     1      44.090   2.644  10.437  0.00  0.00    +0.000 C 
ATOM     34  N   UNL     1      43.050   2.837  11.448  0.00  0.00    +0.000 NA
ATOM     35  C   UNL     1      43.366   3.988  12.303  0.00  0.00    +0.000 C 
ATOM     36  H   UNL     1      42.993   2.002  12.029  0.00  0.00    +0.000 HD
ENDBRANCH  28  30
ENDBRANCH  27  28
ENDBRANCH  24  27
ENDBRANCH  20  21
ENDBRANCH   1  20
TORSDOF 9
ENDMDL
MODEL 7
REMARK VINA RESULT:    -6.349      3.795      8.387
REMARK INTER + INTRA:         -10.994
REMARK INTER:                 -10.166
REMARK INTRA:                  -0.829
REMARK UNBOUND:                -1.491
REMARK  Name = 
REMARK  9 active torsions:
REMARK  status: ('A' for Active; 'I' for Inactive)
REMARK    1  A    between atoms: N_1  and  C_2
REMARK    2  A    between atoms: C_2  and  C_3
REMARK    3  A    between atoms: C_3  and  N_4
REMARK    4  A    between atoms: N_4  and  C_5
REMARK    5  A    between atoms: C_5  and  C_6
REMARK    6  A    between atoms: C_9  and  C_10
REMARK    7  A    between atoms: C_10  and  N_11
REMARK    8  A    between atoms: N_11  and  C_12
REMARK    9  A    between atoms: C_20  and  C_22
REMARK                            x       y       z     vdW  Elec       q    Type
REMARK                         _______ _______ _______ _____ _____    ______ ____
ROOT
ATOM      1  N   UNL     1      47.947   6.759  14.645  0.00  0.00    +0.000 N 
ATOM      2  C   UNL     1      49.246   7.329  14.693  0.00  0.00    +0.000 C 
ATOM      3  O   UNL     1      50.200   6.665  15.093  0.00  0.00    +0.000 OA
ENDROOT
BRANCH   2   4
ATOM      4  C   UNL     1      49.477   8.748  14.329  0.00  0.00    +0.000 A 
ATOM      5  C   UNL     1      49.274   9.833  15.156  0.00  0.00    +0.000 A 
ATOM      6  S   UNL     1      49.804  11.332  14.555  0.00  0.00    +0.000 S 
ATOM      7  C   UNL     1      50.337  10.595  13.132  0.00  0.00    +0.000 A 
ATOM      8  N   UNL     1      50.942  11.341  12.175  0.00  0.00    +0.000 NA
ATOM      9  C   UNL     1      51.306  10.660  11.135  0.00  0.00    +0.000 A 
ATOM     10  N   UNL     1      51.101   9.322  10.970  0.00  0.00    +0.000 N 
ATOM     11  C   UNL     1      50.399   8.544  11.870  0.00  0.00    +0.000 A 
ATOM     12  O   UNL     1      50.043   7.405  11.578  0.00  0.00    +0.000 OA
ATOM     13  C   UNL     1      50.064   9.237  13.098  0.00  0.00    +0.000 A 
ATOM     14  H   UNL     1      51.338   8.868  10.094  0.00  0.00    +0.000 HD
ENDBRANCH   2   4
BRANCH   1  15
ATOM     15  C   UNL     1      47.922   5.301  14.934  0.00  0.00    +0.000 C 
BRANCH  15  16
ATOM     16  C   UNL     1      47.721   4.773  16.375  0.00  0.00    +0.000 C 
BRANCH  16  17
ATOM     17  N   UNL     1      46.738   3.695  16.530  0.00  0.00    +0.000 NA
ATOM     18  H   UNL     1      45.953   4.041  17.081  0.00  0.00    +0.000 HD
ATOM     19  H   UNL     1      47.144   2.921  17.053  0.00  0.00    +0.000 HD
ENDBRANCH  16  17
ENDBRANCH  15  16
ENDBRANCH   1  15
BRANCH   1  20
ATOM     20  C   UNL     1      46.838   7.337  13.880  0.00  0.00    +0.000 C 
BRANCH  20  21
ATOM     21  C   UNL     1      46.274   6.442  12.788  0.00  0.00    +0.000 A 
ATOM     22  C   UNL     1      46.561   6.603  11.424  0.00  0.00    +0.000 A 
ATOM     23  C   UNL     1      46.036   5.744  10.460  0.00  0.00    +0.000 A 
ATOM     24  C   UNL     1      45.106   4.771  10.826  0.00  0.00    +0.000 A 
ATOM     25  C   UNL     1      44.837   4.570  12.181  0.00  0.00    +0.000 A 
ATOM     26  C   UNL     1      45.444   5.371  13.149  0.00  0.00    +0.000 A 
BRANCH  24  27
ATOM     27  C   UNL     1      44.287   4.095   9.760  0.00  0.00    +0.000 C 
BRANCH  27  28
ATOM     28  N   UNL     1      44.755   4.409   8.415  0.00  0.00    +0.000 NA
ATOM     29  H   UNL     1      45.515   5.085   8.492  0.00  0.00    +0.000 HD
BRANCH  28  30
ATOM     30  C   UNL     1      45.232   3.211   7.703  0.00  0.00    +0.000 C 
ATOM     31  C   UNL     1      46.438   3.519   6.797  0.00  0.00    +0.000 C 
ATOM     32  C   UNL     1      47.061   2.247   6.236  0.00  0.00    +0.000 C 
ATOM     33  C   UNL     1      47.379   1.251   7.344  0.00  0.00    +0.000 C 
ATOM     34  N   UNL     1      46.178   0.919   8.110  0.00  0.00    +0.000 NA
ATOM     35  C   UNL     1      45.613   2.122   8.735  0.00  0.00    +0.000 C 
ATOM     36  H   UNL     1      46.423   0.253   8.842  0.00  0.00    +0.000 HD
ENDBRANCH  28  30
ENDBRANCH  27  28
ENDBRANCH  24  27
ENDBRANCH  20  21
ENDBRANCH   1  20
TORSDOF 9
ENDMDL
MODEL 8
REMARK VINA RESULT:    -6.197      3.994      9.237
REMARK INTER + INTRA:         -10.767
REMARK INTER:                  -9.169
REMARK INTRA:                  -1.598
REMARK UNBOUND:                -1.491
REMARK  Name = 
REMARK  9 active torsions:
REMARK  status: ('A' for Active; 'I' for Inactive)
REMARK    1  A    between atoms: N_1  and  C_2
REMARK    2  A    between atoms: C_2  and  C_3
REMARK    3  A    between atoms: C_3  and  N_4
REMARK    4  A    between atoms: N_4  and  C_5
REMARK    5  A    between atoms: C_5  and  C_6
REMARK    6  A    between atoms: C_9  and  C_10
REMARK    7  A    between atoms: C_10  and  N_11
REMARK    8  A    between atoms: N_11  and  C_12
REMARK    9  A    between atoms: C_20  and  C_22
REMARK                            x       y       z     vdW  Elec       q    Type
REMARK                         _______ _______ _______ _____ _____    ______ ____
ROOT
ATOM      1  N   UNL     1      48.010   5.747  17.112  0.00  0.00    +0.000 N 
ATOM      2  C   UNL     1      48.192   6.817  18.027  0.00  0.00    +0.000 C 
ATOM      3  O   UNL     1      47.822   6.705  19.194  0.00  0.00    +0.000 OA
ENDROOT
BRANCH   2   4
ATOM      4  C   UNL     1      48.769   8.112  17.590  0.00  0.00    +0.000 A 
ATOM      5  C   UNL     1      48.050   9.202  17.147  0.00  0.00    +0.000 A 
ATOM      6  S   UNL     1      48.944  10.626  16.897  0.00  0.00    +0.000 S 
ATOM      7  C   UNL     1      50.363   9.843  17.373  0.00  0.00    +0.000 A 
ATOM      8  N   UNL     1      51.529  10.533  17.417  0.00  0.00    +0.000 NA
ATOM      9  C   UNL     1      52.542   9.822  17.799  0.00  0.00    +0.000 A 
ATOM     10  N   UNL     1      52.487   8.497  18.118  0.00  0.00    +0.000 N 
ATOM     11  C   UNL     1      51.345   7.731  17.988  0.00  0.00    +0.000 A 
ATOM     12  O   UNL     1      51.393   6.505  18.065  0.00  0.00    +0.000 OA
ATOM     13  C   UNL     1      50.162   8.503  17.665  0.00  0.00    +0.000 A 
ATOM     14  H   UNL     1      53.335   7.982  18.329  0.00  0.00    +0.000 HD
ENDBRANCH   2   4
BRANCH   1  15
ATOM     15  C   UNL     1      47.526   4.493  17.747  0.00  0.00    +0.000 C 
BRANCH  15  16
ATOM     16  C   UNL     1      48.501   3.533  18.471  0.00  0.00    +0.000 C 
BRANCH  16  17
ATOM     17  N   UNL     1      48.494   3.599  19.936  0.00  0.00    +0.000 NA
ATOM     18  H   UNL     1      49.358   3.188  20.289  0.00  0.00    +0.000 HD
ATOM     19  H   UNL     1      47.731   3.038  20.309  0.00  0.00    +0.000 HD
ENDBRANCH  16  17
ENDBRANCH  15  16
ENDBRANCH   1  15
BRANCH   1  20
ATOM     20  C   UNL     1      48.710   5.653  15.828  0.00  0.00    +0.000 C 
BRANCH  20  21
ATOM     21  C   UNL     1      47.822   5.788  14.601  0.00  0.00    +0.000 A 
ATOM     22  C   UNL     1      46.899   4.811  14.196  0.00  0.00    +0.000 A 
ATOM     23  C   UNL     1      46.092   4.988  13.074  0.00  0.00    +0.000 A 
ATOM     24  C   UNL     1      46.276   6.099  12.252  0.00  0.00    +0.000 A 
ATOM     25  C   UNL     1      47.162   7.100  12.657  0.00  0.00    +0.000 A 
ATOM     26  C   UNL     1      47.895   6.960  13.836  0.00  0.00    +0.000 A 
BRANCH  24  27
ATOM     27  C   UNL     1      45.665   6.109  10.876  0.00  0.00    +0.000 C 
BRANCH  27  28
ATOM     28  N   UNL     1      44.390   5.404  10.829  0.00  0.00    +0.000 NA
ATOM     29  H   UNL     1      43.654   6.087  10.645  0.00  0.00    +0.000 HD
BRANCH  28  30
ATOM     30  C   UNL     1      44.371   4.368   9.781  0.00  0.00    +0.000 C 
ATOM     31  C   UNL     1      45.505   4.561   8.757  0.00  0.00    +0.000 C 
ATOM     32  C   UNL     1      45.615   3.373   7.809  0.00  0.00    +0.000 C 
ATOM     33  C   UNL     1      45.713   2.060   8.576  0.00  0.00    +0.000 C 
ATOM     34  N   UNL     1      44.560   1.884   9.459  0.00  0.00    +0.000 NA
ATOM     35  C   UNL     1      44.488   2.973  10.441  0.00  0.00    +0.000 C 
ATOM     36  H   UNL     1      44.654   0.999   9.956  0.00  0.00    +0.000 HD
ENDBRANCH  28  30
ENDBRANCH  27  28
ENDBRANCH  24  27
ENDBRANCH  20  21
ENDBRANCH   1  20
TORSDOF 9
ENDMDL
MODEL 9
REMARK VINA RESULT:    -6.073      3.751      8.342
REMARK INTER + INTRA:         -10.580
REMARK INTER:                  -9.110
REMARK INTRA:                  -1.470
REMARK UNBOUND:                -1.491
REMARK  Name = 
REMARK  9 active torsions:
REMARK  status: ('A' for Active; 'I' for Inactive)
REMARK    1  A    between atoms: N_1  and  C_2
REMARK    2  A    between atoms: C_2  and  C_3
REMARK    3  A    between atoms: C_3  and  N_4
REMARK    4  A    between atoms: N_4  and  C_5
REMARK    5  A    between atoms: C_5  and  C_6
REMARK    6  A    between atoms: C_9  and  C_10
REMARK    7  A    between atoms: C_10  and  N_11
REMARK    8  A    between atoms: N_11  and  C_12
REMARK    9  A    between atoms: C_20  and  C_22
REMARK                            x       y       z     vdW  Elec       q    Type
REMARK                         _______ _______ _______ _____ _____    ______ ____
ROOT
ATOM      1  N   UNL     1      48.855   7.986  14.823  0.00  0.00    +0.000 N 
ATOM      2  C   UNL     1      49.134   9.360  14.596  0.00  0.00    +0.000 C 
ATOM      3  O   UNL     1      49.200  10.143  15.541  0.00  0.00    +0.000 OA
ENDROOT
BRANCH   2   4
ATOM      4  C   UNL     1      49.288   9.896  13.222  0.00  0.00    +0.000 A 
ATOM      5  C   UNL     1      48.293  10.498  12.479  0.00  0.00    +0.000 A 
ATOM      6  S   UNL     1      48.787  11.200  11.012  0.00  0.00    +0.000 S 
ATOM      7  C   UNL     1      50.382  10.724  11.298  0.00  0.00    +0.000 A 
ATOM      8  N   UNL     1      51.352  11.054  10.410  0.00  0.00    +0.000 NA
ATOM      9  C   UNL     1      52.531  10.634  10.744  0.00  0.00    +0.000 A 
ATOM     10  N   UNL     1      52.810   9.909  11.865  0.00  0.00    +0.000 N 
ATOM     11  C   UNL     1      51.841   9.462  12.742  0.00  0.00    +0.000 A 
ATOM     12  O   UNL     1      52.105   8.627  13.604  0.00  0.00    +0.000 OA
ATOM     13  C   UNL     1      50.521   9.995  12.469  0.00  0.00    +0.000 A 
ATOM     14  H   UNL     1      53.742   9.541  12.022  0.00  0.00    +0.000 HD
ENDBRANCH   2   4
BRANCH   1  15
ATOM     15  C   UNL     1      48.846   7.607  16.260  0.00  0.00    +0.000 C 
BRANCH  15  16
ATOM     16  C   UNL     1      49.621   6.367  16.767  0.00  0.00    +0.000 C 
BRANCH  16  17
ATOM     17  N   UNL     1      49.533   6.102  18.207  0.00  0.00    +0.000 NA
ATOM     18  H   UNL     1      50.423   5.722  18.528  0.00  0.00    +0.000 HD
ATOM     19  H   UNL     1      48.829   5.389  18.390  0.00  0.00    +0.000 HD
ENDBRANCH  16  17
ENDBRANCH  15  16
ENDBRANCH   1  15
BRANCH   1  20
ATOM     20  C   UNL     1      49.091   6.938  13.827  0.00  0.00    +0.000 C 
BRANCH  20  21
ATOM     21  C   UNL     1      47.838   6.373  13.177  0.00  0.00    +0.000 A 
ATOM     22  C   UNL     1      47.148   5.251  13.662  0.00  0.00    +0.000 A 
ATOM     23  C   UNL     1      45.990   4.781  13.044  0.00  0.00    +0.000 A 
ATOM     24  C   UNL     1      45.560   5.351  11.847  0.00  0.00    +0.000 A 
ATOM     25  C   UNL     1      46.209   6.490  11.369  0.00  0.00    +0.000 A 
ATOM     26  C   UNL     1      47.309   7.014  12.049  0.00  0.00    +0.000 A 
BRANCH  24  27
ATOM     27  C   UNL     1      44.538   4.627  11.011  0.00  0.00    +0.000 C 
BRANCH  27  28
ATOM     28  N   UNL     1      44.614   4.993   9.601  0.00  0.00    +0.000 NA
ATOM     29  H   UNL     1      45.403   5.628   9.478  0.00  0.00    +0.000 HD
BRANCH  28  30
ATOM     30  C   UNL     1      44.794   3.814   8.735  0.00  0.00    +0.000 C 
ATOM     31  C   UNL     1      46.008   3.963   7.799  0.00  0.00    +0.000 C 
ATOM     32  C   UNL     1      46.318   2.664   7.067  0.00  0.00    +0.000 C 
ATOM     33  C   UNL     1      46.446   1.497   8.039  0.00  0.00    +0.000 C 
ATOM     34  N   UNL     1      45.227   1.341   8.831  0.00  0.00    +0.000 NA
ATOM     35  C   UNL     1      44.960   2.553   9.617  0.00  0.00    +0.000 C 
ATOM     36  H   UNL     1      45.344   0.555   9.470  0.00  0.00    +0.000 HD
ENDBRANCH  28  30
ENDBRANCH  27  28
ENDBRANCH  24  27
ENDBRANCH  20  21
ENDBRANCH   1  20
TORSDOF 9
ENDMDL
