MODEL 1
REMARK VINA RESULT:    -8.923      0.000      0.000
REMARK INTER + INTRA:         -11.787
REMARK INTER:                 -11.532
REMARK INTRA:                  -0.256
REMARK UNBOUND:                -0.256
REMARK  Name = 
REMARK  6 active torsions:
REMARK  status: ('A' for Active; 'I' for Inactive)
REMARK    1  A    between atoms: C_1  and  C_2
REMARK    2  A    between atoms: C_2  and  N_3
REMARK    3  A    between atoms: C_2  and  C_16
REMARK    4  A    between atoms: C_4  and  C_6
REMARK    5  A    between atoms: C_19  and  O_20
REMARK    6  A    between atoms: O_20  and  C_21
REMARK                            x       y       z     vdW  Elec       q    Type
REMARK                         _______ _______ _______ _____ _____    ______ ____
ROOT
ATOM      1  C   UNL     1      43.493   3.829  13.526  0.00  0.00    +0.000 C 
ATOM      2  C   UNL     1      44.071   5.096  12.882  0.00  0.00    +0.000 C 
ENDROOT
BRANCH   2   3
ATOM      3  C   UNL     1      44.416   4.829  11.424  0.00  0.00    +0.000 A 
ATOM      4  C   UNL     1      45.366   5.625  10.769  0.00  0.00    +0.000 A 
ATOM      5  C   UNL     1      45.669   5.412   9.421  0.00  0.00    +0.000 A 
ATOM      6  C   UNL     1      45.071   4.359   8.724  0.00  0.00    +0.000 A 
ATOM      7  C   UNL     1      44.108   3.575   9.359  0.00  0.00    +0.000 A 
ATOM      8  C   UNL     1      43.784   3.805  10.699  0.00  0.00    +0.000 A 
BRANCH   6   9
ATOM      9  O   UNL     1      45.310   4.067   7.401  0.00  0.00    +0.000 OA
BRANCH   9  10
ATOM     10  C   UNL     1      46.266   3.141   7.053  0.00  0.00    +0.000 A 
ATOM     11  C   UNL     1      46.549   1.982   7.774  0.00  0.00    +0.000 A 
ATOM     12  C   UNL     1      47.552   1.154   7.303  0.00  0.00    +0.000 A 
ATOM     13  N   UNL     1      48.235   1.373   6.158  0.00  0.00    +0.000 NA
ATOM     14  C   UNL     1      47.894   2.470   5.450  0.00  0.00    +0.000 A 
ATOM     15  C   UNL     1      46.926   3.373   5.850  0.00  0.00    +0.000 A 
ENDBRANCH   9  10
ENDBRANCH   6   9
ENDBRANCH   2   3
BRANCH   2  16
ATOM     16  N   UNL     1      45.240   5.602  13.584  0.00  0.00    +0.000 N 
ATOM     17  C   UNL     1      46.284   4.788  13.947  0.00  0.00    +0.000 C 
ATOM     18  O   UNL     1      46.330   3.597  13.651  0.00  0.00    +0.000 OA
ATOM     19  H   UNL     1      45.116   6.470  14.096  0.00  0.00    +0.000 HD
BRANCH  17  20
ATOM     20  C   UNL     1      47.395   5.425  14.663  0.00  0.00    +0.000 A 
ATOM     21  C   UNL     1      48.122   6.430  14.040  0.00  0.00    +0.000 A 
ATOM     22  S   UNL     1      49.376   7.064  15.003  0.00  0.00    +0.000 S 
ATOM     23  C   UNL     1      49.022   5.981  16.270  0.00  0.00    +0.000 A 
ATOM     24  N   UNL     1      49.770   5.965  17.403  0.00  0.00    +0.000 NA
ATOM     25  C   UNL     1      49.414   5.068  18.263  0.00  0.00    +0.000 A 
ATOM     26  N   UNL     1      48.365   4.201  18.097  0.00  0.00    +0.000 N 
ATOM     27  C   UNL     1      47.550   4.216  16.988  0.00  0.00    +0.000 A 
ATOM     28  O   UNL     1      46.571   3.482  16.901  0.00  0.00    +0.000 OA
ATOM     29  C   UNL     1      47.935   5.176  15.973  0.00  0.00    +0.000 A 
ATOM     30  H   UNL     1      48.125   3.538  18.821  0.00  0.00    +0.000 HD
ENDBRANCH  17  20
ENDBRANCH   2  16
TORSDOF 5
ENDMDL
MODEL 2
REMARK VINA RESULT:    -8.671      2.022      2.781
REMARK INTER + INTRA:         -11.461
REMARK INTER:                 -10.582
REMARK INTRA:                  -0.879
REMARK UNBOUND:                -0.256
REMARK  Name = 
REMARK  6 active torsions:
REMARK  status: ('A' for Active; 'I' for Inactive)
REMARK    1  A    between atoms: C_1  and  C_2
REMARK    2  A    between atoms: C_2  and  N_3
REMARK    3  A    between atoms: C_2  and  C_16
REMARK    4  A    between atoms: C_4  and  C_6
REMARK    5  A    between atoms: C_19  and  O_20
REMARK    6  A    between atoms: O_20  and  C_21
REMARK                            x       y       z     vdW  Elec       q    Type
REMARK                         _______ _______ _______ _____ _____    ______ ____
ROOT
ATOM      1  C   UNL     1      45.631   8.094  12.926  0.00  0.00    +0.000 C 
ATOM      2  C   UNL     1      46.557   6.876  12.823  0.00  0.00    +0.000 C 
ENDROOT
BRANCH   2   3
ATOM      3  C   UNL     1      46.047   5.922  11.752  0.00  0.00    +0.000 A 
ATOM      4  C   UNL     1      45.496   4.686  12.116  0.00  0.00    +0.000 A 
ATOM      5  C   UNL     1      45.053   3.787  11.141  0.00  0.00    +0.000 A 
ATOM      6  C   UNL     1      45.100   4.136   9.790  0.00  0.00    +0.000 A 
ATOM      7  C   UNL     1      45.668   5.353   9.414  0.00  0.00    +0.000 A 
ATOM      8  C   UNL     1      46.136   6.242  10.387  0.00  0.00    +0.000 A 
BRANCH   6   9
ATOM      9  O   UNL     1      44.683   3.323   8.761  0.00  0.00    +0.000 OA
BRANCH   9  10
ATOM     10  C   UNL     1      45.602   2.676   7.968  0.00  0.00    +0.000 A 
ATOM     11  C   UNL     1      46.216   3.231   6.848  0.00  0.00    +0.000 A 
ATOM     12  C   UNL     1      47.111   2.447   6.142  0.00  0.00    +0.000 A 
ATOM     13  N   UNL     1      47.465   1.194   6.505  0.00  0.00    +0.000 NA
ATOM     14  C   UNL     1      46.899   0.707   7.630  0.00  0.00    +0.000 A 
ATOM     15  C   UNL     1      45.975   1.402   8.388  0.00  0.00    +0.000 A 
ENDBRANCH   9  10
ENDBRANCH   6   9
ENDBRANCH   2   3
BRANCH   2  16
ATOM     16  N   UNL     1      46.704   6.170  14.087  0.00  0.00    +0.000 N 
ATOM     17  C   UNL     1      47.933   5.911  14.640  0.00  0.00    +0.000 C 
ATOM     18  O   UNL     1      48.982   6.308  14.142  0.00  0.00    +0.000 OA
ATOM     19  H   UNL     1      45.925   5.583  14.366  0.00  0.00    +0.000 HD
BRANCH  17  20
ATOM     20  C   UNL     1      47.938   5.179  15.911  0.00  0.00    +0.000 A 
ATOM     21  C   UNL     1      47.463   3.875  15.951  0.00  0.00    +0.000 A 
ATOM     22  S   UNL     1      47.536   3.166  17.498  0.00  0.00    +0.000 S 
ATOM     23  C   UNL     1      48.161   4.598  18.182  0.00  0.00    +0.000 A 
ATOM     24  N   UNL     1      48.411   4.682  19.513  0.00  0.00    +0.000 NA
ATOM     25  C   UNL     1      48.845   5.837  19.900  0.00  0.00    +0.000 A 
ATOM     26  N   UNL     1      49.067   6.905  19.070  0.00  0.00    +0.000 N 
ATOM     27  C   UNL     1      48.874   6.848  17.709  0.00  0.00    +0.000 A 
ATOM     28  O   UNL     1      49.156   7.793  16.980  0.00  0.00    +0.000 OA
ATOM     29  C   UNL     1      48.346   5.586  17.230  0.00  0.00    +0.000 A 
ATOM     30  H   UNL     1      49.430   7.775  19.435  0.00  0.00    +0.000 HD
ENDBRANCH  17  20
ENDBRANCH   2  16
TORSDOF 5
ENDMDL
MODEL 3
REMARK VINA RESULT:    -8.594      2.553      3.373
REMARK INTER + INTRA:         -11.362
REMARK INTER:                 -10.190
REMARK INTRA:                  -1.172
REMARK UNBOUND:                -0.256
REMARK  Name = 
REMARK  6 active torsions:
REMARK  status: ('A' for Active; 'I' for Inactive)
REMARK    1  A    between atoms: C_1  and  C_2
REMARK    2  A    between atoms: C_2  and  N_3
REMARK    3  A    between atoms: C_2  and  C_16
REMARK    4  A    between atoms: C_4  and  C_6
REMARK    5  A    between atoms: C_19  and  O_20
REMARK    6  A    between atoms: O_20  and  C_21
REMARK                            x       y       z     vdW  Elec       q    Type
REMARK                         _______ _______ _______ _____ _____    ______ ____
ROOT
ATOM      1  C   UNL     1      45.557   4.768  13.956  0.00  0.00    +0.000 C 
ATOM      2  C   UNL     1      45.502   5.845  12.865  0.00  0.00    +0.000 C 
ENDROOT
BRANCH   2   3
ATOM      3  C   UNL     1      45.308   5.197  11.501  0.00  0.00    +0.000 A 
ATOM      4  C   UNL     1      44.558   4.018  11.384  0.00  0.00    +0.000 A 
ATOM      5  C   UNL     1      44.398   3.394  10.142  0.00  0.00    +0.000 A 
ATOM      6  C   UNL     1      44.937   3.973   8.991  0.00  0.00    +0.000 A 
ATOM      7  C   UNL     1      45.704   5.133   9.099  0.00  0.00    +0.000 A 
ATOM      8  C   UNL     1      45.887   5.742  10.343  0.00  0.00    +0.000 A 
BRANCH   6   9
ATOM      9  O   UNL     1      44.827   3.439   7.727  0.00  0.00    +0.000 OA
BRANCH   9  10
ATOM     10  C   UNL     1      45.908   2.831   7.132  0.00  0.00    +0.000 A 
ATOM     11  C   UNL     1      46.537   3.285   5.975  0.00  0.00    +0.000 A 
ATOM     12  C   UNL     1      47.607   2.554   5.488  0.00  0.00    +0.000 A 
ATOM     13  N   UNL     1      48.110   1.459   6.097  0.00  0.00    +0.000 NA
ATOM     14  C   UNL     1      47.518   1.080   7.249  0.00  0.00    +0.000 A 
ATOM     15  C   UNL     1      46.428   1.727   7.802  0.00  0.00    +0.000 A 
ENDBRANCH   9  10
ENDBRANCH   6   9
ENDBRANCH   2   3
BRANCH   2  16
ATOM     16  N   UNL     1      46.685   6.691  12.848  0.00  0.00    +0.000 N 
ATOM     17  C   UNL     1      46.613   8.050  13.026  0.00  0.00    +0.000 C 
ATOM     18  O   UNL     1      45.561   8.633  13.271  0.00  0.00    +0.000 OA
ATOM     19  H   UNL     1      47.497   6.318  12.367  0.00  0.00    +0.000 HD
BRANCH  17  20
ATOM     20  C   UNL     1      47.881   8.787  12.972  0.00  0.00    +0.000 A 
ATOM     21  C   UNL     1      47.958   9.962  12.237  0.00  0.00    +0.000 A 
ATOM     22  S   UNL     1      49.496  10.693  12.275  0.00  0.00    +0.000 S 
ATOM     23  C   UNL     1      50.128   9.436  13.238  0.00  0.00    +0.000 A 
ATOM     24  N   UNL     1      51.436   9.427  13.601  0.00  0.00    +0.000 NA
ATOM     25  C   UNL     1      51.787   8.396  14.297  0.00  0.00    +0.000 A 
ATOM     26  N   UNL     1      50.941   7.386  14.676  0.00  0.00    +0.000 N 
ATOM     27  C   UNL     1      49.599   7.380  14.374  0.00  0.00    +0.000 A 
ATOM     28  O   UNL     1      48.850   6.504  14.793  0.00  0.00    +0.000 OA
ATOM     29  C   UNL     1      49.164   8.495  13.556  0.00  0.00    +0.000 A 
ATOM     30  H   UNL     1      51.277   6.618  15.242  0.00  0.00    +0.000 HD
ENDBRANCH  17  20
ENDBRANCH   2  16
TORSDOF 5
ENDMDL
MODEL 4
REMARK VINA RESULT:    -8.553      1.823      2.576
REMARK INTER + INTRA:         -11.309
REMARK INTER:                 -10.436
REMARK INTRA:                  -0.874
REMARK UNBOUND:                -0.256
REMARK  Name = 
REMARK  6 active torsions:
REMARK  status: ('A' for Active; 'I' for Inactive)
REMARK    1  A    between atoms: C_1  and  C_2
REMARK    2  A    between atoms: C_2  and  N_3
REMARK    3  A    between atoms: C_2  and  C_16
REMARK    4  A    between atoms: C_4  and  C_6
REMARK    5  A    between atoms: C_19  and  O_20
REMARK    6  A    between atoms: O_20  and  C_21
REMARK                            x       y       z     vdW  Elec       q    Type
REMARK                         _______ _______ _______ _____ _____    ______ ____
ROOT
ATOM      1  C   UNL     1      45.374   9.008  12.890  0.00  0.00    +0.000 C 
ATOM      2  C   UNL     1      46.414   7.907  12.647  0.00  0.00    +0.000 C 
ENDROOT
BRANCH   2   3
ATOM      3  C   UNL     1      45.812   6.799  11.795  0.00  0.00    +0.000 A 
ATOM      4  C   UNL     1      44.658   6.129  12.226  0.00  0.00    +0.000 A 
ATOM      5  C   UNL     1      44.113   5.088  11.469  0.00  0.00    +0.000 A 
ATOM      6  C   UNL     1      44.679   4.741  10.239  0.00  0.00    +0.000 A 
ATOM      7  C   UNL     1      45.840   5.385   9.812  0.00  0.00    +0.000 A 
ATOM      8  C   UNL     1      46.401   6.408  10.581  0.00  0.00    +0.000 A 
BRANCH   6   9
ATOM      9  O   UNL     1      44.210   3.738   9.423  0.00  0.00    +0.000 OA
BRANCH   9  10
ATOM     10  C   UNL     1      45.077   3.025   8.628  0.00  0.00    +0.000 A 
ATOM     11  C   UNL     1      45.505   1.724   8.886  0.00  0.00    +0.000 A 
ATOM     12  C   UNL     1      46.393   1.144   7.997  0.00  0.00    +0.000 A 
ATOM     13  N   UNL     1      46.827   1.743   6.866  0.00  0.00    +0.000 NA
ATOM     14  C   UNL     1      46.346   2.979   6.613  0.00  0.00    +0.000 A 
ATOM     15  C   UNL     1      45.477   3.653   7.451  0.00  0.00    +0.000 A 
ENDBRANCH   9  10
ENDBRANCH   6   9
ENDBRANCH   2   3
BRANCH   2  16
ATOM     16  N   UNL     1      46.945   7.351  13.882  0.00  0.00    +0.000 N 
ATOM     17  C   UNL     1      48.256   6.961  14.003  0.00  0.00    +0.000 C 
ATOM     18  O   UNL     1      49.079   7.111  13.104  0.00  0.00    +0.000 OA
ATOM     19  H   UNL     1      46.268   6.941  14.518  0.00  0.00    +0.000 HD
BRANCH  17  20
ATOM     20  C   UNL     1      48.657   6.403  15.299  0.00  0.00    +0.000 A 
ATOM     21  C   UNL     1      49.681   7.007  16.015  0.00  0.00    +0.000 A 
ATOM     22  S   UNL     1      50.026   6.238  17.496  0.00  0.00    +0.000 S 
ATOM     23  C   UNL     1      48.849   5.039  17.209  0.00  0.00    +0.000 A 
ATOM     24  N   UNL     1      48.659   4.024  18.089  0.00  0.00    +0.000 NA
ATOM     25  C   UNL     1      47.762   3.167  17.727  0.00  0.00    +0.000 A 
ATOM     26  N   UNL     1      47.028   3.247  16.571  0.00  0.00    +0.000 N 
ATOM     27  C   UNL     1      47.152   4.284  15.676  0.00  0.00    +0.000 A 
ATOM     28  O   UNL     1      46.428   4.372  14.690  0.00  0.00    +0.000 OA
ATOM     29  C   UNL     1      48.177   5.251  16.017  0.00  0.00    +0.000 A 
ATOM     30  H   UNL     1      46.324   2.553  16.359  0.00  0.00    +0.000 HD
ENDBRANCH  17  20
ENDBRANCH   2  16
TORSDOF 5
ENDMDL
MODEL 5
REMARK VINA RESULT:    -7.816      2.408      3.444
REMARK INTER + INTRA:         -10.356
REMARK INTER:                  -9.474
REMARK INTRA:                  -0.882
REMARK UNBOUND:                -0.256
REMARK  Name = 
REMARK  6 active torsions:
REMARK  status: ('A' for Active; 'I' for Inactive)
REMARK    1  A    between atoms: C_1  and  C_2
REMARK    2  A    between atoms: C_2  and  N_3
REMARK    3  A    between atoms: C_2  and  C_16
REMARK    4  A    between atoms: C_4  and  C_6
REMARK    5  A    between atoms: C_19  and  O_20
REMARK    6  A    between atoms: O_20  and  C_21
REMARK                            x       y       z     vdW  Elec       q    Type
REMARK                         _______ _______ _______ _____ _____    ______ ____
ROOT
ATOM      1  C   UNL     1      46.915   8.517  13.621  0.00  0.00    +0.000 C 
ATOM      2  C   UNL     1      47.504   7.101  13.558  0.00  0.00    +0.000 C 
ENDROOT
BRANCH   2   3
ATOM      3  C   UNL     1      46.721   6.255  12.565  0.00  0.00    +0.000 A 
ATOM      4  C   UNL     1      46.126   5.055  12.980  0.00  0.00    +0.000 A 
ATOM      5  C   UNL     1      45.431   4.251  12.071  0.00  0.00    +0.000 A 
ATOM      6  C   UNL     1      45.269   4.666  10.747  0.00  0.00    +0.000 A 
ATOM      7  C   UNL     1      45.876   5.846  10.318  0.00  0.00    +0.000 A 
ATOM      8  C   UNL     1      46.594   6.637  11.219  0.00  0.00    +0.000 A 
BRANCH   6   9
ATOM      9  O   UNL     1      44.598   3.948   9.783  0.00  0.00    +0.000 OA
BRANCH   9  10
ATOM     10  C   UNL     1      45.292   3.294   8.792  0.00  0.00    +0.000 A 
ATOM     11  C   UNL     1      45.799   3.900   7.644  0.00  0.00    +0.000 A 
ATOM     12  C   UNL     1      46.464   3.104   6.729  0.00  0.00    +0.000 A 
ATOM     13  N   UNL     1      46.699   1.786   6.908  0.00  0.00    +0.000 NA
ATOM     14  C   UNL     1      46.250   1.241   8.058  0.00  0.00    +0.000 A 
ATOM     15  C   UNL     1      45.551   1.946   9.021  0.00  0.00    +0.000 A 
ENDBRANCH   9  10
ENDBRANCH   6   9
ENDBRANCH   2   3
BRANCH   2  16
ATOM     16  N   UNL     1      47.533   6.445  14.856  0.00  0.00    +0.000 N 
ATOM     17  C   UNL     1      48.701   6.247  15.548  0.00  0.00    +0.000 C 
ATOM     18  O   UNL     1      49.787   6.662  15.151  0.00  0.00    +0.000 OA
ATOM     19  H   UNL     1      46.746   5.841  15.071  0.00  0.00    +0.000 HD
BRANCH  17  20
ATOM     20  C   UNL     1      48.591   5.559  16.839  0.00  0.00    +0.000 A 
ATOM     21  C   UNL     1      48.713   4.177  16.889  0.00  0.00    +0.000 A 
ATOM     22  S   UNL     1      48.559   3.533  18.459  0.00  0.00    +0.000 S 
ATOM     23  C   UNL     1      48.273   5.077  19.122  0.00  0.00    +0.000 A 
ATOM     24  N   UNL     1      48.014   5.230  20.445  0.00  0.00    +0.000 NA
ATOM     25  C   UNL     1      47.779   6.450  20.802  0.00  0.00    +0.000 A 
ATOM     26  N   UNL     1      47.799   7.529  19.957  0.00  0.00    +0.000 N 
ATOM     27  C   UNL     1      48.107   7.426  18.619  0.00  0.00    +0.000 A 
ATOM     28  O   UNL     1      48.195   8.417  17.902  0.00  0.00    +0.000 OA
ATOM     29  C   UNL     1      48.336   6.071  18.160  0.00  0.00    +0.000 A 
ATOM     30  H   UNL     1      47.629   8.462  20.307  0.00  0.00    +0.000 HD
ENDBRANCH  17  20
ENDBRANCH   2  16
TORSDOF 5
ENDMDL
MODEL 6
REMARK VINA RESULT:    -7.661      3.459      8.417
REMARK INTER + INTRA:         -10.157
REMARK INTER:                  -8.973
REMARK INTRA:                  -1.184
REMARK UNBOUND:                -0.256
REMARK  Name = 
REMARK  6 active torsions:
REMARK  status: ('A' for Active; 'I' for Inactive)
REMARK    1  A    between atoms: C_1  and  C_2
REMARK    2  A    between atoms: C_2  and  N_3
REMARK    3  A    between atoms: C_2  and  C_16
REMARK    4  A    between atoms: C_4  and  C_6
REMARK    5  A    between atoms: C_19  and  O_20
REMARK    6  A    between atoms: O_20  and  C_21
REMARK                            x       y       z     vdW  Elec       q    Type
REMARK                         _______ _______ _______ _____ _____    ______ ____
ROOT
ATOM      1  C   UNL     1      49.307   7.931  12.574  0.00  0.00    +0.000 C 
ATOM      2  C   UNL     1      48.127   7.284  13.310  0.00  0.00    +0.000 C 
ENDROOT
BRANCH   2   3
ATOM      3  C   UNL     1      48.610   6.629  14.596  0.00  0.00    +0.000 A 
ATOM      4  C   UNL     1      49.808   7.050  15.192  0.00  0.00    +0.000 A 
ATOM      5  C   UNL     1      50.281   6.435  16.356  0.00  0.00    +0.000 A 
ATOM      6  C   UNL     1      49.532   5.431  16.974  0.00  0.00    +0.000 A 
ATOM      7  C   UNL     1      48.351   4.989  16.378  0.00  0.00    +0.000 A 
ATOM      8  C   UNL     1      47.891   5.584  15.200  0.00  0.00    +0.000 A 
BRANCH   6   9
ATOM      9  O   UNL     1      49.910   4.773  18.122  0.00  0.00    +0.000 OA
BRANCH   9  10
ATOM     10  C   UNL     1      50.793   3.720  18.063  0.00  0.00    +0.000 A 
ATOM     11  C   UNL     1      50.550   2.517  17.402  0.00  0.00    +0.000 A 
ATOM     12  C   UNL     1      51.533   1.544  17.445  0.00  0.00    +0.000 A 
ATOM     13  N   UNL     1      52.733   1.710  18.042  0.00  0.00    +0.000 NA
ATOM     14  C   UNL     1      52.962   2.909  18.619  0.00  0.00    +0.000 A 
ATOM     15  C   UNL     1      52.034   3.934  18.654  0.00  0.00    +0.000 A 
ENDBRANCH   9  10
ENDBRANCH   6   9
ENDBRANCH   2   3
BRANCH   2  16
ATOM     16  N   UNL     1      47.417   6.311  12.494  0.00  0.00    +0.000 N 
ATOM     17  C   UNL     1      46.321   6.651  11.741  0.00  0.00    +0.000 C 
ATOM     18  O   UNL     1      45.904   7.803  11.657  0.00  0.00    +0.000 OA
ATOM     19  H   UNL     1      47.528   5.338  12.758  0.00  0.00    +0.000 HD
BRANCH  17  20
ATOM     20  C   UNL     1      45.691   5.570  10.975  0.00  0.00    +0.000 A 
ATOM     21  C   UNL     1      45.745   5.594   9.588  0.00  0.00    +0.000 A 
ATOM     22  S   UNL     1      44.967   4.271   8.850  0.00  0.00    +0.000 S 
ATOM     23  C   UNL     1      44.487   3.642  10.360  0.00  0.00    +0.000 A 
ATOM     24  N   UNL     1      43.732   2.518  10.438  0.00  0.00    +0.000 NA
ATOM     25  C   UNL     1      43.409   2.177  11.643  0.00  0.00    +0.000 A 
ATOM     26  N   UNL     1      43.791   2.852  12.774  0.00  0.00    +0.000 N 
ATOM     27  C   UNL     1      44.597   3.967  12.744  0.00  0.00    +0.000 A 
ATOM     28  O   UNL     1      44.989   4.505  13.774  0.00  0.00    +0.000 OA
ATOM     29  C   UNL     1      44.952   4.415  11.411  0.00  0.00    +0.000 A 
ATOM     30  H   UNL     1      43.522   2.518  13.689  0.00  0.00    +0.000 HD
ENDBRANCH  17  20
ENDBRANCH   2  16
TORSDOF 5
ENDMDL
MODEL 7
REMARK VINA RESULT:    -7.658      2.535      3.399
REMARK INTER + INTRA:         -10.152
REMARK INTER:                  -9.209
REMARK INTRA:                  -0.942
REMARK UNBOUND:                -0.256
REMARK  Name = 
REMARK  6 active torsions:
REMARK  status: ('A' for Active; 'I' for Inactive)
REMARK    1  A    between atoms: C_1  and  C_2
REMARK    2  A    between atoms: C_2  and  N_3
REMARK    3  A    between atoms: C_2  and  C_16
REMARK    4  A    between atoms: C_4  and  C_6
REMARK    5  A    between atoms: C_19  and  O_20
REMARK    6  A    between atoms: O_20  and  C_21
REMARK                            x       y       z     vdW  Elec       q    Type
REMARK                         _______ _______ _______ _____ _____    ______ ____
ROOT
ATOM      1  C   UNL     1      44.518   4.526  13.931  0.00  0.00    +0.000 C 
ATOM      2  C   UNL     1      45.170   5.618  13.073  0.00  0.00    +0.000 C 
ENDROOT
BRANCH   2   3
ATOM      3  C   UNL     1      45.195   5.188  11.614  0.00  0.00    +0.000 A 
ATOM      4  C   UNL     1      45.963   5.903  10.683  0.00  0.00    +0.000 A 
ATOM      5  C   UNL     1      45.970   5.539   9.333  0.00  0.00    +0.000 A 
ATOM      6  C   UNL     1      45.257   4.417   8.904  0.00  0.00    +0.000 A 
ATOM      7  C   UNL     1      44.471   3.713   9.816  0.00  0.00    +0.000 A 
ATOM      8  C   UNL     1      44.442   4.092  11.161  0.00  0.00    +0.000 A 
BRANCH   6   9
ATOM      9  O   UNL     1      45.208   3.978   7.601  0.00  0.00    +0.000 OA
BRANCH   9  10
ATOM     10  C   UNL     1      46.165   3.116   7.120  0.00  0.00    +0.000 A 
ATOM     11  C   UNL     1      46.551   1.930   7.741  0.00  0.00    +0.000 A 
ATOM     12  C   UNL     1      47.542   1.174   7.140  0.00  0.00    +0.000 A 
ATOM     13  N   UNL     1      48.118   1.489   5.960  0.00  0.00    +0.000 NA
ATOM     14  C   UNL     1      47.679   2.611   5.351  0.00  0.00    +0.000 A 
ATOM     15  C   UNL     1      46.714   3.447   5.884  0.00  0.00    +0.000 A 
ENDBRANCH   9  10
ENDBRANCH   6   9
ENDBRANCH   2   3
BRANCH   2  16
ATOM     16  N   UNL     1      46.514   5.954  13.515  0.00  0.00    +0.000 N 
ATOM     17  C   UNL     1      46.966   7.250  13.557  0.00  0.00    +0.000 C 
ATOM     18  O   UNL     1      46.252   8.211  13.287  0.00  0.00    +0.000 OA
ATOM     19  H   UNL     1      47.205   5.213  13.456  0.00  0.00    +0.000 HD
BRANCH  17  20
ATOM     20  C   UNL     1      48.348   7.448  14.009  0.00  0.00    +0.000 A 
ATOM     21  C   UNL     1      48.649   7.325  15.359  0.00  0.00    +0.000 A 
ATOM     22  S   UNL     1      50.294   7.586  15.719  0.00  0.00    +0.000 S 
ATOM     23  C   UNL     1      50.653   7.922  14.087  0.00  0.00    +0.000 A 
ATOM     24  N   UNL     1      51.907   8.274  13.707  0.00  0.00    +0.000 NA
ATOM     25  C   UNL     1      52.027   8.537  12.448  0.00  0.00    +0.000 A 
ATOM     26  N   UNL     1      51.008   8.462  11.534  0.00  0.00    +0.000 N 
ATOM     27  C   UNL     1      49.734   8.061  11.865  0.00  0.00    +0.000 A 
ATOM     28  O   UNL     1      48.861   7.926  11.015  0.00  0.00    +0.000 OA
ATOM     29  C   UNL     1      49.537   7.795  13.277  0.00  0.00    +0.000 A 
ATOM     30  H   UNL     1      51.176   8.659  10.557  0.00  0.00    +0.000 HD
ENDBRANCH  17  20
ENDBRANCH   2  16
TORSDOF 5
ENDMDL
MODEL 8
REMARK VINA RESULT:    -7.614      3.592      6.221
REMARK INTER + INTRA:         -10.096
REMARK INTER:                  -8.774
REMARK INTRA:                  -1.322
REMARK UNBOUND:                -0.256
REMARK  Name = 
REMARK  6 active torsions:
REMARK  status: ('A' for Active; 'I' for Inactive)
REMARK    1  A    between atoms: C_1  and  C_2
REMARK    2  A    between atoms: C_2  and  N_3
REMARK    3  A    between atoms: C_2  and  C_16
REMARK    4  A    between atoms: C_4  and  C_6
REMARK    5  A    between atoms: C_19  and  O_20
REMARK    6  A    between atoms: O_20  and  C_21
REMARK                            x       y       z     vdW  Elec       q    Type
REMARK                         _______ _______ _______ _____ _____    ______ ____
ROOT
ATOM      1  C   UNL     1      48.064   6.689  18.285  0.00  0.00    +0.000 C 
ATOM      2  C   UNL     1      49.031   6.220  17.191  0.00  0.00    +0.000 C 
ENDROOT
BRANCH   2   3
ATOM      3  C   UNL     1      48.260   5.529  16.075  0.00  0.00    +0.000 A 
ATOM      4  C   UNL     1      48.122   6.152  14.826  0.00  0.00    +0.000 A 
ATOM      5  C   UNL     1      47.390   5.544  13.802  0.00  0.00    +0.000 A 
ATOM      6  C   UNL     1      46.835   4.276  13.993  0.00  0.00    +0.000 A 
ATOM      7  C   UNL     1      46.946   3.658  15.238  0.00  0.00    +0.000 A 
ATOM      8  C   UNL     1      47.655   4.277  16.271  0.00  0.00    +0.000 A 
BRANCH   6   9
ATOM      9  O   UNL     1      46.104   3.596  13.045  0.00  0.00    +0.000 OA
BRANCH   9  10
ATOM     10  C   UNL     1      44.959   4.147  12.520  0.00  0.00    +0.000 A 
ATOM     11  C   UNL     1      43.928   4.705  13.273  0.00  0.00    +0.000 A 
ATOM     12  C   UNL     1      42.830   5.208  12.599  0.00  0.00    +0.000 A 
ATOM     13  N   UNL     1      42.722   5.241  11.253  0.00  0.00    +0.000 NA
ATOM     14  C   UNL     1      43.765   4.750  10.549  0.00  0.00    +0.000 A 
ATOM     15  C   UNL     1      44.893   4.201  11.131  0.00  0.00    +0.000 A 
ENDBRANCH   9  10
ENDBRANCH   6   9
ENDBRANCH   2   3
BRANCH   2  16
ATOM     16  N   UNL     1      50.070   5.337  17.697  0.00  0.00    +0.000 N 
ATOM     17  C   UNL     1      51.353   5.365  17.211  0.00  0.00    +0.000 C 
ATOM     18  O   UNL     1      51.725   6.174  16.366  0.00  0.00    +0.000 OA
ATOM     19  H   UNL     1      49.754   4.486  18.151  0.00  0.00    +0.000 HD
BRANCH  17  20
ATOM     20  C   UNL     1      52.299   4.411  17.800  0.00  0.00    +0.000 A 
ATOM     21  C   UNL     1      53.439   4.883  18.436  0.00  0.00    +0.000 A 
ATOM     22  S   UNL     1      54.432   3.649  19.064  0.00  0.00    +0.000 S 
ATOM     23  C   UNL     1      53.396   2.436  18.464  0.00  0.00    +0.000 A 
ATOM     24  N   UNL     1      53.697   1.122  18.622  0.00  0.00    +0.000 NA
ATOM     25  C   UNL     1      52.844   0.314  18.084  0.00  0.00    +0.000 A 
ATOM     26  N   UNL     1      51.710   0.704  17.419  0.00  0.00    +0.000 N 
ATOM     27  C   UNL     1      51.341   2.022  17.279  0.00  0.00    +0.000 A 
ATOM     28  O   UNL     1      50.282   2.340  16.749  0.00  0.00    +0.000 OA
ATOM     29  C   UNL     1      52.289   2.972  17.829  0.00  0.00    +0.000 A 
ATOM     30  H   UNL     1      51.072   0.017  17.042  0.00  0.00    +0.000 HD
ENDBRANCH  17  20
ENDBRANCH   2  16
TORSDOF 5
ENDMDL
MODEL 9
REMARK VINA RESULT:    -7.594      2.460      3.842
REMARK INTER + INTRA:         -10.069
REMARK INTER:                  -9.086
REMARK INTRA:                  -0.983
REMARK UNBOUND:                -0.256
REMARK  Name = 
REMARK  6 active torsions:
REMARK  status: ('A' for Active; 'I' for Inactive)
REMARK    1  A    between atoms: C_1  and  C_2
REMARK    2  A    between atoms: C_2  and  N_3
REMARK    3  A    between atoms: C_2  and  C_16
REMARK    4  A    between atoms: C_4  and  C_6
REMARK    5  A    between atoms: C_19  and  O_20
REMARK    6  A    between atoms: O_20  and  C_21
REMARK                            x       y       z     vdW  Elec       q    Type
REMARK                         _______ _______ _______ _____ _____    ______ ____
ROOT
ATOM      1  C   UNL     1      48.292   9.481  13.339  0.00  0.00    +0.000 C 
ATOM      2  C   UNL     1      48.319   8.004  13.750  0.00  0.00    +0.000 C 
ENDROOT
BRANCH   2   3
ATOM      3  C   UNL     1      47.247   7.232  12.994  0.00  0.00    +0.000 A 
ATOM      4  C   UNL     1      46.334   7.914  12.177  0.00  0.00    +0.000 A 
ATOM      5  C   UNL     1      45.324   7.221  11.502  0.00  0.00    +0.000 A 
ATOM      6  C   UNL     1      45.250   5.829  11.587  0.00  0.00    +0.000 A 
ATOM      7  C   UNL     1      46.138   5.143  12.415  0.00  0.00    +0.000 A 
ATOM      8  C   UNL     1      47.131   5.837  13.111  0.00  0.00    +0.000 A 
BRANCH   6   9
ATOM      9  O   UNL     1      44.298   5.061  10.956  0.00  0.00    +0.000 OA
BRANCH   9  10
ATOM     10  C   UNL     1      44.668   4.124  10.019  0.00  0.00    +0.000 A 
ATOM     11  C   UNL     1      44.328   2.774  10.068  0.00  0.00    +0.000 A 
ATOM     12  C   UNL     1      44.789   1.950   9.056  0.00  0.00    +0.000 A 
ATOM     13  N   UNL     1      45.502   2.388   7.995  0.00  0.00    +0.000 NA
ATOM     14  C   UNL     1      45.763   3.711   7.944  0.00  0.00    +0.000 A 
ATOM     15  C   UNL     1      45.370   4.610   8.919  0.00  0.00    +0.000 A 
ENDBRANCH   9  10
ENDBRANCH   6   9
ENDBRANCH   2   3
BRANCH   2  16
ATOM     16  N   UNL     1      48.150   7.815  15.183  0.00  0.00    +0.000 N 
ATOM     17  C   UNL     1      49.068   7.134  15.942  0.00  0.00    +0.000 C 
ATOM     18  O   UNL     1      50.118   6.695  15.480  0.00  0.00    +0.000 OA
ATOM     19  H   UNL     1      47.201   7.885  15.536  0.00  0.00    +0.000 HD
BRANCH  17  20
ATOM     20  C   UNL     1      48.768   7.003  17.373  0.00  0.00    +0.000 A 
ATOM     21  C   UNL     1      48.439   8.134  18.108  0.00  0.00    +0.000 A 
ATOM     22  S   UNL     1      48.121   7.814  19.750  0.00  0.00    +0.000 S 
ATOM     23  C   UNL     1      48.461   6.156  19.548  0.00  0.00    +0.000 A 
ATOM     24  N   UNL     1      48.417   5.302  20.602  0.00  0.00    +0.000 NA
ATOM     25  C   UNL     1      48.734   4.083  20.311  0.00  0.00    +0.000 A 
ATOM     26  N   UNL     1      49.071   3.642  19.057  0.00  0.00    +0.000 N 
ATOM     27  C   UNL     1      49.079   4.462  17.952  0.00  0.00    +0.000 A 
ATOM     28  O   UNL     1      49.308   4.024  16.830  0.00  0.00    +0.000 OA
ATOM     29  C   UNL     1      48.772   5.850  18.234  0.00  0.00    +0.000 A 
ATOM     30  H   UNL     1      49.286   2.668  18.895  0.00  0.00    +0.000 HD
ENDBRANCH  17  20
ENDBRANCH   2  16
TORSDOF 5
ENDMDL
