MODEL 1
REMARK VINA RESULT:    -8.277      0.000      0.000
REMARK INTER + INTRA:         -12.891
REMARK INTER:                 -11.664
REMARK INTRA:                  -1.227
REMARK UNBOUND:                -1.227
REMARK  Name = 
REMARK  8 active torsions:
REMARK  status: ('A' for Active; 'I' for Inactive)
REMARK    1  A    between atoms: C_1  and  C_2
REMARK    2  A    between atoms: C_2  and  N_3
REMARK    3  A    between atoms: C_2  and  C_25
REMARK    4  A    between atoms: N_3  and  C_4
REMARK    5  A    between atoms: C_4  and  C_5
REMARK    6  A    between atoms: C_8  and  C_9
REMARK    7  A    between atoms: C_9  and  N_10
REMARK    8  A    between atoms: C_11  and  C_13
REMARK                            x       y       z     vdW  Elec       q    Type
REMARK                         _______ _______ _______ _____ _____    ______ ____
ROOT
ATOM      1  C   UNL     1      44.731   5.892  11.055  0.00  0.00    +0.000 A 
ATOM      2  C   UNL     1      44.385   7.207  11.378  0.00  0.00    +0.000 A 
ATOM      3  C   UNL     1      45.237   7.975  12.167  0.00  0.00    +0.000 A 
ATOM      4  C   UNL     1      46.409   7.397  12.646  0.00  0.00    +0.000 A 
ATOM      5  N   UNL     1      46.785   6.135  12.322  0.00  0.00    +0.000 NA
ATOM      6  C   UNL     1      45.948   5.422  11.535  0.00  0.00    +0.000 A 
ENDROOT
BRANCH   1   7
ATOM      7  C   UNL     1      43.811   4.988  10.277  0.00  0.00    +0.000 C 
BRANCH   7   8
ATOM      8  N   UNL     1      44.420   4.545   9.028  0.00  0.00    +0.000 NA
ATOM      9  H   UNL     1      43.895   4.941   8.248  0.00  0.00    +0.000 HD
BRANCH   8  11
ATOM     10  C   UNL     1      44.414   2.333  10.193  0.00  0.00    +0.000 C 
ATOM     11  C   UNL     1      44.440   3.084   8.857  0.00  0.00    +0.000 C 
BRANCH  11  12
ATOM     12  C   UNL     1      45.672   2.671   8.071  0.00  0.00    +0.000 A 
ATOM     13  C   UNL     1      46.391   3.573   7.274  0.00  0.00    +0.000 A 
ATOM     14  C   UNL     1      47.499   3.139   6.554  0.00  0.00    +0.000 A 
ATOM     15  C   UNL     1      47.871   1.811   6.666  0.00  0.00    +0.000 A 
ATOM     16  N   UNL     1      47.226   0.913   7.443  0.00  0.00    +0.000 NA
ATOM     17  C   UNL     1      46.148   1.363   8.126  0.00  0.00    +0.000 A 
ENDBRANCH  11  12
ENDBRANCH   8  11
ENDBRANCH   7   8
ENDBRANCH   1   7
BRANCH   4  18
ATOM     18  C   UNL     1      47.313   8.171  13.571  0.00  0.00    +0.000 C 
BRANCH  18  19
ATOM     19  N   UNL     1      47.666   7.419  14.751  0.00  0.00    +0.000 N 
ATOM     20  C   UNL     1      48.903   6.863  14.926  0.00  0.00    +0.000 C 
ATOM     21  O   UNL     1      49.794   6.973  14.089  0.00  0.00    +0.000 OA
ATOM     22  H   UNL     1      46.885   7.119  15.326  0.00  0.00    +0.000 HD
BRANCH  20  23
ATOM     23  C   UNL     1      49.137   6.186  16.208  0.00  0.00    +0.000 A 
ATOM     24  C   UNL     1      50.111   6.669  17.070  0.00  0.00    +0.000 A 
ATOM     25  S   UNL     1      50.239   5.785  18.522  0.00  0.00    +0.000 S 
ATOM     26  C   UNL     1      49.024   4.701  18.033  0.00  0.00    +0.000 A 
ATOM     27  N   UNL     1      48.662   3.654  18.825  0.00  0.00    +0.000 NA
ATOM     28  C   UNL     1      47.746   2.897  18.320  0.00  0.00    +0.000 A 
ATOM     29  N   UNL     1      47.150   3.097  17.101  0.00  0.00    +0.000 N 
ATOM     30  C   UNL     1      47.446   4.169  16.297  0.00  0.00    +0.000 A 
ATOM     31  O   UNL     1      46.825   4.374  15.258  0.00  0.00    +0.000 OA
ATOM     32  C   UNL     1      48.502   5.029  16.795  0.00  0.00    +0.000 A 
ATOM     33  H   UNL     1      46.418   2.484  16.775  0.00  0.00    +0.000 HD
ENDBRANCH  20  23
ENDBRANCH  18  19
ENDBRANCH   4  18
TORSDOF 7
ENDMDL
MODEL 2
REMARK VINA RESULT:    -7.832      2.719      3.406
REMARK INTER + INTRA:         -12.264
REMARK INTER:                 -11.293
REMARK INTRA:                  -0.971
REMARK UNBOUND:                -1.227
REMARK  Name = 
REMARK  8 active torsions:
REMARK  status: ('A' for Active; 'I' for Inactive)
REMARK    1  A    between atoms: C_1  and  C_2
REMARK    2  A    between atoms: C_2  and  N_3
REMARK    3  A    between atoms: C_2  and  C_25
REMARK    4  A    between atoms: N_3  and  C_4
REMARK    5  A    between atoms: C_4  and  C_5
REMARK    6  A    between atoms: C_8  and  C_9
REMARK    7  A    between atoms: C_9  and  N_10
REMARK    8  A    between atoms: C_11  and  C_13
REMARK                            x       y       z     vdW  Elec       q    Type
REMARK                         _______ _______ _______ _____ _____    ______ ____
ROOT
ATOM      1  C   UNL     1      46.562   4.762  13.344  0.00  0.00    +0.000 A 
ATOM      2  C   UNL     1      47.170   5.922  12.856  0.00  0.00    +0.000 A 
ATOM      3  C   UNL     1      48.072   6.621  13.654  0.00  0.00    +0.000 A 
ATOM      4  C   UNL     1      48.323   6.161  14.943  0.00  0.00    +0.000 A 
ATOM      5  N   UNL     1      47.772   5.021  15.430  0.00  0.00    +0.000 NA
ATOM      6  C   UNL     1      46.919   4.351  14.624  0.00  0.00    +0.000 A 
ENDROOT
BRANCH   1   7
ATOM      7  C   UNL     1      45.517   4.012  12.559  0.00  0.00    +0.000 C 
BRANCH   7   8
ATOM      8  N   UNL     1      44.987   4.815  11.463  0.00  0.00    +0.000 NA
ATOM      9  H   UNL     1      44.400   5.553  11.851  0.00  0.00    +0.000 HD
BRANCH   8  11
ATOM     10  C   UNL     1      43.453   2.866  11.152  0.00  0.00    +0.000 C 
ATOM     11  C   UNL     1      44.172   4.054  10.503  0.00  0.00    +0.000 C 
BRANCH  11  12
ATOM     12  C   UNL     1      45.042   3.557   9.363  0.00  0.00    +0.000 A 
ATOM     13  C   UNL     1      45.303   2.195   9.156  0.00  0.00    +0.000 A 
ATOM     14  C   UNL     1      46.128   1.794   8.110  0.00  0.00    +0.000 A 
ATOM     15  C   UNL     1      46.656   2.769   7.284  0.00  0.00    +0.000 A 
ATOM     16  N   UNL     1      46.410   4.089   7.428  0.00  0.00    +0.000 NA
ATOM     17  C   UNL     1      45.610   4.451   8.458  0.00  0.00    +0.000 A 
ENDBRANCH  11  12
ENDBRANCH   8  11
ENDBRANCH   7   8
ENDBRANCH   1   7
BRANCH   4  18
ATOM     18  C   UNL     1      49.228   6.938  15.863  0.00  0.00    +0.000 C 
BRANCH  18  19
ATOM     19  N   UNL     1      50.272   6.118  16.430  0.00  0.00    +0.000 N 
ATOM     20  C   UNL     1      50.185   5.580  17.684  0.00  0.00    +0.000 C 
ATOM     21  O   UNL     1      49.209   5.759  18.406  0.00  0.00    +0.000 OA
ATOM     22  H   UNL     1      51.167   6.161  15.953  0.00  0.00    +0.000 HD
BRANCH  20  23
ATOM     23  C   UNL     1      51.293   4.710  18.097  0.00  0.00    +0.000 A 
ATOM     24  C   UNL     1      52.355   5.246  18.813  0.00  0.00    +0.000 A 
ATOM     25  S   UNL     1      53.544   4.100  19.234  0.00  0.00    +0.000 S 
ATOM     26  C   UNL     1      52.703   2.853  18.441  0.00  0.00    +0.000 A 
ATOM     27  N   UNL     1      53.207   1.590  18.393  0.00  0.00    +0.000 NA
ATOM     28  C   UNL     1      52.477   0.750  17.739  0.00  0.00    +0.000 A 
ATOM     29  N   UNL     1      51.284   1.055  17.136  0.00  0.00    +0.000 N 
ATOM     30  C   UNL     1      50.713   2.301  17.206  0.00  0.00    +0.000 A 
ATOM     31  O   UNL     1      49.597   2.515  16.741  0.00  0.00    +0.000 OA
ATOM     32  C   UNL     1      51.512   3.297  17.892  0.00  0.00    +0.000 A 
ATOM     33  H   UNL     1      50.746   0.345  16.662  0.00  0.00    +0.000 HD
ENDBRANCH  20  23
ENDBRANCH  18  19
ENDBRANCH   4  18
TORSDOF 7
ENDMDL
MODEL 3
REMARK VINA RESULT:    -7.389      2.787      8.341
REMARK INTER + INTRA:         -11.640
REMARK INTER:                  -9.899
REMARK INTRA:                  -1.741
REMARK UNBOUND:                -1.227
REMARK  Name = 
REMARK  8 active torsions:
REMARK  status: ('A' for Active; 'I' for Inactive)
REMARK    1  A    between atoms: C_1  and  C_2
REMARK    2  A    between atoms: C_2  and  N_3
REMARK    3  A    between atoms: C_2  and  C_25
REMARK    4  A    between atoms: N_3  and  C_4
REMARK    5  A    between atoms: C_4  and  C_5
REMARK    6  A    between atoms: C_8  and  C_9
REMARK    7  A    between atoms: C_9  and  N_10
REMARK    8  A    between atoms: C_11  and  C_13
REMARK                            x       y       z     vdW  Elec       q    Type
REMARK                         _______ _______ _______ _____ _____    ______ ____
ROOT
ATOM      1  C   UNL     1      48.761   8.057  16.098  0.00  0.00    +0.000 A 
ATOM      2  C   UNL     1      49.236   6.966  15.366  0.00  0.00    +0.000 A 
ATOM      3  C   UNL     1      48.913   6.841  14.018  0.00  0.00    +0.000 A 
ATOM      4  C   UNL     1      48.089   7.799  13.435  0.00  0.00    +0.000 A 
ATOM      5  N   UNL     1      47.640   8.884  14.112  0.00  0.00    +0.000 NA
ATOM      6  C   UNL     1      47.990   8.991  15.414  0.00  0.00    +0.000 A 
ENDROOT
BRANCH   1   7
ATOM      7  C   UNL     1      49.008   8.201  17.577  0.00  0.00    +0.000 C 
BRANCH   7   8
ATOM      8  N   UNL     1      48.026   7.462  18.362  0.00  0.00    +0.000 NA
ATOM      9  H   UNL     1      47.603   8.096  19.040  0.00  0.00    +0.000 HD
BRANCH   8  11
ATOM     10  C   UNL     1      50.077   6.502  19.421  0.00  0.00    +0.000 C 
ATOM     11  C   UNL     1      48.588   6.323  19.106  0.00  0.00    +0.000 C 
BRANCH  11  12
ATOM     12  C   UNL     1      48.389   5.041  18.317  0.00  0.00    +0.000 A 
ATOM     13  C   UNL     1      49.439   4.149  18.056  0.00  0.00    +0.000 A 
ATOM     14  C   UNL     1      49.209   2.999  17.308  0.00  0.00    +0.000 A 
ATOM     15  C   UNL     1      47.924   2.762  16.854  0.00  0.00    +0.000 A 
ATOM     16  N   UNL     1      46.876   3.578  17.105  0.00  0.00    +0.000 NA
ATOM     17  C   UNL     1      47.132   4.691  17.829  0.00  0.00    +0.000 A 
ENDBRANCH  11  12
ENDBRANCH   8  11
ENDBRANCH   7   8
ENDBRANCH   1   7
BRANCH   4  18
ATOM     18  C   UNL     1      47.650   7.650  12.000  0.00  0.00    +0.000 C 
BRANCH  18  19
ATOM     19  N   UNL     1      46.910   6.432  11.775  0.00  0.00    +0.000 N 
ATOM     20  C   UNL     1      45.552   6.361  11.916  0.00  0.00    +0.000 C 
ATOM     21  O   UNL     1      44.876   7.333  12.240  0.00  0.00    +0.000 OA
ATOM     22  H   UNL     1      47.466   5.583  11.746  0.00  0.00    +0.000 HD
BRANCH  20  23
ATOM     23  C   UNL     1      44.930   5.072  11.587  0.00  0.00    +0.000 A 
ATOM     24  C   UNL     1      44.177   4.410  12.546  0.00  0.00    +0.000 A 
ATOM     25  S   UNL     1      43.506   2.942  11.996  0.00  0.00    +0.000 S 
ATOM     26  C   UNL     1      44.231   3.120  10.468  0.00  0.00    +0.000 A 
ATOM     27  N   UNL     1      44.080   2.167   9.508  0.00  0.00    +0.000 NA
ATOM     28  C   UNL     1      44.703   2.419   8.406  0.00  0.00    +0.000 A 
ATOM     29  N   UNL     1      45.456   3.541   8.172  0.00  0.00    +0.000 N 
ATOM     30  C   UNL     1      45.589   4.551   9.092  0.00  0.00    +0.000 A 
ATOM     31  O   UNL     1      46.187   5.587   8.815  0.00  0.00    +0.000 OA
ATOM     32  C   UNL     1      44.945   4.300  10.366  0.00  0.00    +0.000 A 
ATOM     33  H   UNL     1      45.896   3.693   7.277  0.00  0.00    +0.000 HD
ENDBRANCH  20  23
ENDBRANCH  18  19
ENDBRANCH   4  18
TORSDOF 7
ENDMDL
MODEL 4
REMARK VINA RESULT:    -7.336      1.755      2.004
REMARK INTER + INTRA:         -11.564
REMARK INTER:                 -10.670
REMARK INTRA:                  -0.894
REMARK UNBOUND:                -1.227
REMARK  Name = 
REMARK  8 active torsions:
REMARK  status: ('A' for Active; 'I' for Inactive)
REMARK    1  A    between atoms: C_1  and  C_2
REMARK    2  A    between atoms: C_2  and  N_3
REMARK    3  A    between atoms: C_2  and  C_25
REMARK    4  A    between atoms: N_3  and  C_4
REMARK    5  A    between atoms: C_4  and  C_5
REMARK    6  A    between atoms: C_8  and  C_9
REMARK    7  A    between atoms: C_9  and  N_10
REMARK    8  A    between atoms: C_11  and  C_13
REMARK                            x       y       z     vdW  Elec       q    Type
REMARK                         _______ _______ _______ _____ _____    ______ ____
ROOT
ATOM      1  C   UNL     1      45.339   6.648  11.583  0.00  0.00    +0.000 A 
ATOM      2  C   UNL     1      45.013   7.890  12.135  0.00  0.00    +0.000 A 
ATOM      3  C   UNL     1      45.946   8.569  12.914  0.00  0.00    +0.000 A 
ATOM      4  C   UNL     1      47.180   7.973  13.153  0.00  0.00    +0.000 A 
ATOM      5  N   UNL     1      47.535   6.784  12.604  0.00  0.00    +0.000 NA
ATOM      6  C   UNL     1      46.617   6.160  11.833  0.00  0.00    +0.000 A 
ENDROOT
BRANCH   1   7
ATOM      7  C   UNL     1      44.343   5.830  10.803  0.00  0.00    +0.000 C 
BRANCH   7   8
ATOM      8  N   UNL     1      44.957   5.198   9.641  0.00  0.00    +0.000 NA
ATOM      9  H   UNL     1      44.821   5.800   8.829  0.00  0.00    +0.000 HD
BRANCH   8  11
ATOM     10  C   UNL     1      43.981   3.088  10.560  0.00  0.00    +0.000 C 
ATOM     11  C   UNL     1      44.400   3.876   9.314  0.00  0.00    +0.000 C 
BRANCH  11  12
ATOM     12  C   UNL     1      45.412   3.068   8.522  0.00  0.00    +0.000 A 
ATOM     13  C   UNL     1      46.265   3.653   7.575  0.00  0.00    +0.000 A 
ATOM     14  C   UNL     1      47.159   2.864   6.859  0.00  0.00    +0.000 A 
ATOM     15  C   UNL     1      47.189   1.507   7.124  0.00  0.00    +0.000 A 
ATOM     16  N   UNL     1      46.408   0.904   8.047  0.00  0.00    +0.000 NA
ATOM     17  C   UNL     1      45.543   1.696   8.723  0.00  0.00    +0.000 A 
ENDBRANCH  11  12
ENDBRANCH   8  11
ENDBRANCH   7   8
ENDBRANCH   1   7
BRANCH   4  18
ATOM     18  C   UNL     1      48.183   8.641  14.060  0.00  0.00    +0.000 C 
BRANCH  18  19
ATOM     19  N   UNL     1      48.194   8.066  15.383  0.00  0.00    +0.000 N 
ATOM     20  C   UNL     1      48.482   8.800  16.501  0.00  0.00    +0.000 C 
ATOM     21  O   UNL     1      48.746   9.997  16.447  0.00  0.00    +0.000 OA
ATOM     22  H   UNL     1      48.217   7.052  15.418  0.00  0.00    +0.000 HD
BRANCH  20  23
ATOM     23  C   UNL     1      48.387   8.094  17.785  0.00  0.00    +0.000 A 
ATOM     24  C   UNL     1      47.842   8.743  18.885  0.00  0.00    +0.000 A 
ATOM     25  S   UNL     1      47.782   7.778  20.289  0.00  0.00    +0.000 S 
ATOM     26  C   UNL     1      48.519   6.471  19.488  0.00  0.00    +0.000 A 
ATOM     27  N   UNL     1      48.794   5.313  20.148  0.00  0.00    +0.000 NA
ATOM     28  C   UNL     1      49.376   4.414  19.426  0.00  0.00    +0.000 A 
ATOM     29  N   UNL     1      49.698   4.564  18.102  0.00  0.00    +0.000 N 
ATOM     30  C   UNL     1      49.389   5.692  17.385  0.00  0.00    +0.000 A 
ATOM     31  O   UNL     1      49.602   5.755  16.177  0.00  0.00    +0.000 OA
ATOM     32  C   UNL     1      48.774   6.753  18.158  0.00  0.00    +0.000 A 
ATOM     33  H   UNL     1      50.128   3.811  17.585  0.00  0.00    +0.000 HD
ENDBRANCH  20  23
ENDBRANCH  18  19
ENDBRANCH   4  18
TORSDOF 7
ENDMDL
MODEL 5
REMARK VINA RESULT:    -7.264      3.182      8.001
REMARK INTER + INTRA:         -11.464
REMARK INTER:                  -9.827
REMARK INTRA:                  -1.637
REMARK UNBOUND:                -1.227
REMARK  Name = 
REMARK  8 active torsions:
REMARK  status: ('A' for Active; 'I' for Inactive)
REMARK    1  A    between atoms: C_1  and  C_2
REMARK    2  A    between atoms: C_2  and  N_3
REMARK    3  A    between atoms: C_2  and  C_25
REMARK    4  A    between atoms: N_3  and  C_4
REMARK    5  A    between atoms: C_4  and  C_5
REMARK    6  A    between atoms: C_8  and  C_9
REMARK    7  A    between atoms: C_9  and  N_10
REMARK    8  A    between atoms: C_11  and  C_13
REMARK                            x       y       z     vdW  Elec       q    Type
REMARK                         _______ _______ _______ _____ _____    ______ ____
ROOT
ATOM      1  C   UNL     1      48.863   7.910  16.207  0.00  0.00    +0.000 A 
ATOM      2  C   UNL     1      49.009   6.759  15.426  0.00  0.00    +0.000 A 
ATOM      3  C   UNL     1      48.831   6.829  14.047  0.00  0.00    +0.000 A 
ATOM      4  C   UNL     1      48.476   8.049  13.478  0.00  0.00    +0.000 A 
ATOM      5  N   UNL     1      48.360   9.187  14.207  0.00  0.00    +0.000 NA
ATOM      6  C   UNL     1      48.562   9.093  15.540  0.00  0.00    +0.000 A 
ENDROOT
BRANCH   1   7
ATOM      7  C   UNL     1      48.961   7.878  17.710  0.00  0.00    +0.000 C 
BRANCH   7   8
ATOM      8  N   UNL     1      47.788   7.256  18.313  0.00  0.00    +0.000 NA
ATOM      9  H   UNL     1      47.312   7.947  18.894  0.00  0.00    +0.000 HD
BRANCH   8  11
ATOM     10  C   UNL     1      49.372   6.293  19.991  0.00  0.00    +0.000 C 
ATOM     11  C   UNL     1      48.097   6.095  19.164  0.00  0.00    +0.000 C 
BRANCH  11  12
ATOM     12  C   UNL     1      48.238   4.849  18.308  0.00  0.00    +0.000 A 
ATOM     13  C   UNL     1      49.421   4.099  18.263  0.00  0.00    +0.000 A 
ATOM     14  C   UNL     1      49.507   2.979  17.444  0.00  0.00    +0.000 A 
ATOM     15  C   UNL     1      48.394   2.626  16.702  0.00  0.00    +0.000 A 
ATOM     16  N   UNL     1      47.224   3.301  16.736  0.00  0.00    +0.000 NA
ATOM     17  C   UNL     1      47.173   4.390  17.536  0.00  0.00    +0.000 A 
ENDBRANCH  11  12
ENDBRANCH   8  11
ENDBRANCH   7   8
ENDBRANCH   1   7
BRANCH   4  18
ATOM     18  C   UNL     1      48.193   8.143  12.001  0.00  0.00    +0.000 C 
BRANCH  18  19
ATOM     19  N   UNL     1      47.496   6.983  11.500  0.00  0.00    +0.000 N 
ATOM     20  C   UNL     1      46.135   6.942  11.372  0.00  0.00    +0.000 C 
ATOM     21  O   UNL     1      45.421   7.894  11.672  0.00  0.00    +0.000 OA
ATOM     22  H   UNL     1      48.037   6.124  11.479  0.00  0.00    +0.000 HD
BRANCH  20  23
ATOM     23  C   UNL     1      45.573   5.720  10.783  0.00  0.00    +0.000 A 
ATOM     24  C   UNL     1      45.756   5.464   9.431  0.00  0.00    +0.000 A 
ATOM     25  S   UNL     1      45.063   3.996   8.912  0.00  0.00    +0.000 S 
ATOM     26  C   UNL     1      44.461   3.667  10.468  0.00  0.00    +0.000 A 
ATOM     27  N   UNL     1      43.724   2.549  10.710  0.00  0.00    +0.000 NA
ATOM     28  C   UNL     1      43.310   2.437  11.928  0.00  0.00    +0.000 A 
ATOM     29  N   UNL     1      43.574   3.336  12.929  0.00  0.00    +0.000 N 
ATOM     30  C   UNL     1      44.358   4.447  12.742  0.00  0.00    +0.000 A 
ATOM     31  O   UNL     1      44.657   5.179  13.681  0.00  0.00    +0.000 OA
ATOM     32  C   UNL     1      44.813   4.646  11.380  0.00  0.00    +0.000 A 
ATOM     33  H   UNL     1      43.245   3.177  13.869  0.00  0.00    +0.000 HD
ENDBRANCH  20  23
ENDBRANCH  18  19
ENDBRANCH   4  18
TORSDOF 7
ENDMDL
MODEL 6
REMARK VINA RESULT:    -6.899      4.537      9.386
REMARK INTER + INTRA:         -10.949
REMARK INTER:                  -9.990
REMARK INTRA:                  -0.959
REMARK UNBOUND:                -1.227
REMARK  Name = 
REMARK  8 active torsions:
REMARK  status: ('A' for Active; 'I' for Inactive)
REMARK    1  A    between atoms: C_1  and  C_2
REMARK    2  A    between atoms: C_2  and  N_3
REMARK    3  A    between atoms: C_2  and  C_25
REMARK    4  A    between atoms: N_3  and  C_4
REMARK    5  A    between atoms: C_4  and  C_5
REMARK    6  A    between atoms: C_8  and  C_9
REMARK    7  A    between atoms: C_9  and  N_10
REMARK    8  A    between atoms: C_11  and  C_13
REMARK                            x       y       z     vdW  Elec       q    Type
REMARK                         _______ _______ _______ _____ _____    ______ ____
ROOT
ATOM      1  C   UNL     1      51.259   3.464  17.910  0.00  0.00    +0.000 A 
ATOM      2  C   UNL     1      50.411   4.471  18.377  0.00  0.00    +0.000 A 
ATOM      3  C   UNL     1      49.051   4.424  18.086  0.00  0.00    +0.000 A 
ATOM      4  C   UNL     1      48.570   3.381  17.299  0.00  0.00    +0.000 A 
ATOM      5  N   UNL     1      49.364   2.373  16.860  0.00  0.00    +0.000 NA
ATOM      6  C   UNL     1      50.676   2.434  17.179  0.00  0.00    +0.000 A 
ENDROOT
BRANCH   1   7
ATOM      7  C   UNL     1      52.750   3.506  18.123  0.00  0.00    +0.000 C 
BRANCH   7   8
ATOM      8  N   UNL     1      53.184   2.511  19.096  0.00  0.00    +0.000 NA
ATOM      9  H   UNL     1      53.018   2.875  20.035  0.00  0.00    +0.000 HD
BRANCH   8  11
ATOM     10  C   UNL     1      55.472   3.326  18.502  0.00  0.00    +0.000 C 
ATOM     11  C   UNL     1      54.610   2.160  19.000  0.00  0.00    +0.000 C 
BRANCH  11  12
ATOM     12  C   UNL     1      54.789   0.969  18.076  0.00  0.00    +0.000 A 
ATOM     13  C   UNL     1      55.245   1.103  16.757  0.00  0.00    +0.000 A 
ATOM     14  C   UNL     1      55.369  -0.018  15.944  0.00  0.00    +0.000 A 
ATOM     15  C   UNL     1      55.050  -1.253  16.481  0.00  0.00    +0.000 A 
ATOM     16  N   UNL     1      54.635  -1.433  17.754  0.00  0.00    +0.000 NA
ATOM     17  C   UNL     1      54.517  -0.323  18.519  0.00  0.00    +0.000 A 
ENDBRANCH  11  12
ENDBRANCH   8  11
ENDBRANCH   7   8
ENDBRANCH   1   7
BRANCH   4  18
ATOM     18  C   UNL     1      47.118   3.343  16.894  0.00  0.00    +0.000 C 
BRANCH  18  19
ATOM     19  N   UNL     1      46.798   4.344  15.905  0.00  0.00    +0.000 N 
ATOM     20  C   UNL     1      46.900   4.109  14.562  0.00  0.00    +0.000 C 
ATOM     21  O   UNL     1      47.268   3.027  14.114  0.00  0.00    +0.000 OA
ATOM     22  H   UNL     1      46.730   5.295  16.254  0.00  0.00    +0.000 HD
BRANCH  20  23
ATOM     23  C   UNL     1      46.474   5.200  13.676  0.00  0.00    +0.000 A 
ATOM     24  C   UNL     1      47.315   6.285  13.473  0.00  0.00    +0.000 A 
ATOM     25  S   UNL     1      46.681   7.450  12.401  0.00  0.00    +0.000 S 
ATOM     26  C   UNL     1      45.244   6.565  12.202  0.00  0.00    +0.000 A 
ATOM     27  N   UNL     1      44.237   7.035  11.415  0.00  0.00    +0.000 NA
ATOM     28  C   UNL     1      43.195   6.274  11.372  0.00  0.00    +0.000 A 
ATOM     29  N   UNL     1      43.071   5.080  12.037  0.00  0.00    +0.000 N 
ATOM     30  C   UNL     1      44.081   4.544  12.795  0.00  0.00    +0.000 A 
ATOM     31  O   UNL     1      43.975   3.428  13.295  0.00  0.00    +0.000 OA
ATOM     32  C   UNL     1      45.260   5.379  12.914  0.00  0.00    +0.000 A 
ATOM     33  H   UNL     1      42.239   4.517  11.940  0.00  0.00    +0.000 HD
ENDBRANCH  20  23
ENDBRANCH  18  19
ENDBRANCH   4  18
TORSDOF 7
ENDMDL
MODEL 7
REMARK VINA RESULT:    -6.358      3.572      8.000
REMARK INTER + INTRA:         -10.187
REMARK INTER:                  -8.237
REMARK INTRA:                  -1.950
REMARK UNBOUND:                -1.227
REMARK  Name = 
REMARK  8 active torsions:
REMARK  status: ('A' for Active; 'I' for Inactive)
REMARK    1  A    between atoms: C_1  and  C_2
REMARK    2  A    between atoms: C_2  and  N_3
REMARK    3  A    between atoms: C_2  and  C_25
REMARK    4  A    between atoms: N_3  and  C_4
REMARK    5  A    between atoms: C_4  and  C_5
REMARK    6  A    between atoms: C_8  and  C_9
REMARK    7  A    between atoms: C_9  and  N_10
REMARK    8  A    between atoms: C_11  and  C_13
REMARK                            x       y       z     vdW  Elec       q    Type
REMARK                         _______ _______ _______ _____ _____    ______ ____
ROOT
ATOM      1  C   UNL     1      51.005   7.080  17.046  0.00  0.00    +0.000 A 
ATOM      2  C   UNL     1      51.137   7.155  15.657  0.00  0.00    +0.000 A 
ATOM      3  C   UNL     1      50.215   7.882  14.910  0.00  0.00    +0.000 A 
ATOM      4  C   UNL     1      49.154   8.496  15.569  0.00  0.00    +0.000 A 
ATOM      5  N   UNL     1      49.019   8.467  16.919  0.00  0.00    +0.000 NA
ATOM      6  C   UNL     1      49.944   7.773  17.619  0.00  0.00    +0.000 A 
ENDROOT
BRANCH   1   7
ATOM      7  C   UNL     1      51.923   6.241  17.896  0.00  0.00    +0.000 C 
BRANCH   7   8
ATOM      8  N   UNL     1      51.221   5.658  19.034  0.00  0.00    +0.000 NA
ATOM      9  H   UNL     1      51.788   5.788  19.871  0.00  0.00    +0.000 HD
BRANCH   8  11
ATOM     10  C   UNL     1      52.047   3.485  18.111  0.00  0.00    +0.000 C 
ATOM     11  C   UNL     1      50.953   4.217  18.897  0.00  0.00    +0.000 C 
BRANCH  11  12
ATOM     12  C   UNL     1      49.613   4.002  18.216  0.00  0.00    +0.000 A 
ATOM     13  C   UNL     1      49.425   3.040  17.214  0.00  0.00    +0.000 A 
ATOM     14  C   UNL     1      48.183   2.900  16.605  0.00  0.00    +0.000 A 
ATOM     15  C   UNL     1      47.151   3.717  17.030  0.00  0.00    +0.000 A 
ATOM     16  N   UNL     1      47.277   4.637  18.012  0.00  0.00    +0.000 NA
ATOM     17  C   UNL     1      48.499   4.755  18.581  0.00  0.00    +0.000 A 
ENDBRANCH  11  12
ENDBRANCH   8  11
ENDBRANCH   7   8
ENDBRANCH   1   7
BRANCH   4  18
ATOM     18  C   UNL     1      48.090   9.220  14.785  0.00  0.00    +0.000 C 
BRANCH  18  19
ATOM     19  N   UNL     1      47.110   8.320  14.227  0.00  0.00    +0.000 N 
ATOM     20  C   UNL     1      46.939   8.163  12.879  0.00  0.00    +0.000 C 
ATOM     21  O   UNL     1      47.614   8.776  12.059  0.00  0.00    +0.000 OA
ATOM     22  H   UNL     1      46.397   7.997  14.874  0.00  0.00    +0.000 HD
BRANCH  20  23
ATOM     23  C   UNL     1      45.951   7.160  12.462  0.00  0.00    +0.000 A 
ATOM     24  C   UNL     1      44.832   7.559  11.744  0.00  0.00    +0.000 A 
ATOM     25  S   UNL     1      43.798   6.272  11.316  0.00  0.00    +0.000 S 
ATOM     26  C   UNL     1      44.789   5.141  12.110  0.00  0.00    +0.000 A 
ATOM     27  N   UNL     1      44.449   3.824  12.154  0.00  0.00    +0.000 NA
ATOM     28  C   UNL     1      45.277   3.081  12.809  0.00  0.00    +0.000 A 
ATOM     29  N   UNL     1      46.421   3.534  13.416  0.00  0.00    +0.000 N 
ATOM     30  C   UNL     1      46.829   4.842  13.350  0.00  0.00    +0.000 A 
ATOM     31  O   UNL     1      47.907   5.195  13.819  0.00  0.00    +0.000 OA
ATOM     32  C   UNL     1      45.912   5.730  12.663  0.00  0.00    +0.000 A 
ATOM     33  H   UNL     1      47.043   2.897  13.890  0.00  0.00    +0.000 HD
ENDBRANCH  20  23
ENDBRANCH  18  19
ENDBRANCH   4  18
TORSDOF 7
ENDMDL
MODEL 8
REMARK VINA RESULT:    -5.859      1.971      3.142
REMARK INTER + INTRA:          -9.483
REMARK INTER:                  -8.397
REMARK INTRA:                  -1.086
REMARK UNBOUND:                -1.227
REMARK  Name = 
REMARK  8 active torsions:
REMARK  status: ('A' for Active; 'I' for Inactive)
REMARK    1  A    between atoms: C_1  and  C_2
REMARK    2  A    between atoms: C_2  and  N_3
REMARK    3  A    between atoms: C_2  and  C_25
REMARK    4  A    between atoms: N_3  and  C_4
REMARK    5  A    between atoms: C_4  and  C_5
REMARK    6  A    between atoms: C_8  and  C_9
REMARK    7  A    between atoms: C_9  and  N_10
REMARK    8  A    between atoms: C_11  and  C_13
REMARK                            x       y       z     vdW  Elec       q    Type
REMARK                         _______ _______ _______ _____ _____    ______ ____
ROOT
ATOM      1  C   UNL     1      46.714   7.424  12.677  0.00  0.00    +0.000 A 
ATOM      2  C   UNL     1      47.794   6.546  12.546  0.00  0.00    +0.000 A 
ATOM      3  C   UNL     1      48.959   6.767  13.275  0.00  0.00    +0.000 A 
ATOM      4  C   UNL     1      49.033   7.886  14.099  0.00  0.00    +0.000 A 
ATOM      5  N   UNL     1      47.989   8.736  14.269  0.00  0.00    +0.000 NA
ATOM      6  C   UNL     1      46.862   8.482  13.567  0.00  0.00    +0.000 A 
ENDROOT
BRANCH   1   7
ATOM      7  C   UNL     1      45.461   7.283  11.853  0.00  0.00    +0.000 C 
BRANCH   7   8
ATOM      8  N   UNL     1      44.804   6.002  12.084  0.00  0.00    +0.000 NA
ATOM      9  H   UNL     1      45.514   5.269  12.105  0.00  0.00    +0.000 HD
BRANCH   8  11
ATOM     10  C   UNL     1      42.488   5.166  11.650  0.00  0.00    +0.000 C 
ATOM     11  C   UNL     1      43.819   5.639  11.053  0.00  0.00    +0.000 C 
BRANCH  11  12
ATOM     12  C   UNL     1      44.384   4.553  10.155  0.00  0.00    +0.000 A 
ATOM     13  C   UNL     1      45.266   4.832   9.102  0.00  0.00    +0.000 A 
ATOM     14  C   UNL     1      45.737   3.803   8.294  0.00  0.00    +0.000 A 
ATOM     15  C   UNL     1      45.324   2.512   8.574  0.00  0.00    +0.000 A 
ATOM     16  N   UNL     1      44.499   2.192   9.594  0.00  0.00    +0.000 NA
ATOM     17  C   UNL     1      44.052   3.215  10.359  0.00  0.00    +0.000 A 
ENDBRANCH  11  12
ENDBRANCH   8  11
ENDBRANCH   7   8
ENDBRANCH   1   7
BRANCH   4  18
ATOM     18  C   UNL     1      50.308   8.202  14.838  0.00  0.00    +0.000 C 
BRANCH  18  19
ATOM     19  N   UNL     1      50.316   7.661  16.175  0.00  0.00    +0.000 N 
ATOM     20  C   UNL     1      51.338   6.887  16.650  0.00  0.00    +0.000 C 
ATOM     21  O   UNL     1      52.318   6.607  15.965  0.00  0.00    +0.000 OA
ATOM     22  H   UNL     1      49.423   7.680  16.659  0.00  0.00    +0.000 HD
BRANCH  20  23
ATOM     23  C   UNL     1      51.240   6.467  18.053  0.00  0.00    +0.000 A 
ATOM     24  C   UNL     1      52.283   6.744  18.926  0.00  0.00    +0.000 A 
ATOM     25  S   UNL     1      52.001   6.212  20.521  0.00  0.00    +0.000 S 
ATOM     26  C   UNL     1      50.491   5.556  20.093  0.00  0.00    +0.000 A 
ATOM     27  N   UNL     1      49.725   4.908  21.012  0.00  0.00    +0.000 NA
ATOM     28  C   UNL     1      48.616   4.440  20.547  0.00  0.00    +0.000 A 
ATOM     29  N   UNL     1      48.198   4.570  19.247  0.00  0.00    +0.000 N 
ATOM     30  C   UNL     1      48.912   5.262  18.302  0.00  0.00    +0.000 A 
ATOM     31  O   UNL     1      48.463   5.445  17.174  0.00  0.00    +0.000 OA
ATOM     32  C   UNL     1      50.189   5.772  18.760  0.00  0.00    +0.000 A 
ATOM     33  H   UNL     1      47.305   4.204  18.951  0.00  0.00    +0.000 HD
ENDBRANCH  20  23
ENDBRANCH  18  19
ENDBRANCH   4  18
TORSDOF 7
ENDMDL
