MODEL 1
REMARK VINA RESULT:    -7.365      0.000      0.000
REMARK INTER + INTRA:         -11.000
REMARK INTER:                 -10.594
REMARK INTRA:                  -0.405
REMARK UNBOUND:                -0.405
REMARK  Name = 
REMARK  11 active torsions:
REMARK  status: ('A' for Active; 'I' for Inactive)
REMARK    1  A    between atoms: C_1  and  O_2
REMARK    2  A    between atoms: O_2  and  C_3
REMARK    3  A    between atoms: C_3  and  C_5
REMARK    4  A    between atoms: C_8  and  O_9
REMARK    5  A    between atoms: O_9  and  C_10
REMARK    6  A    between atoms: C_10  and  C_11
REMARK    7  A    between atoms: C_11  and  C_12
REMARK    8  A    between atoms: C_11  and  C_13
REMARK    9  A    between atoms: C_11  and  C_14
REMARK   10  A    between atoms: C_18  and  C_19
REMARK   11  A    between atoms: C_19  and  N_20
REMARK                            x       y       z     vdW  Elec       q    Type
REMARK                         _______ _______ _______ _____ _____    ______ ____
ROOT
ATOM      1  C   UNL     1      43.534   5.515  11.944  0.00  0.00    +0.000 C 
ATOM      2  C   UNL     1      43.002   6.830  11.339  0.00  0.00    +0.000 C 
ATOM      3  C   UNL     1      42.676   5.199  13.191  0.00  0.00    +0.000 C 
ENDROOT
BRANCH   1   4
ATOM      4  C   UNL     1      45.021   5.683  12.310  0.00  0.00    +0.000 A 
ATOM      5  C   UNL     1      45.859   6.499  11.546  0.00  0.00    +0.000 A 
ATOM      6  C   UNL     1      47.201   6.624  11.894  0.00  0.00    +0.000 A 
ATOM      7  C   UNL     1      47.681   5.943  13.003  0.00  0.00    +0.000 A 
ATOM      8  C   UNL     1      46.800   5.155  13.736  0.00  0.00    +0.000 A 
ATOM      9  N   UNL     1      45.490   5.015  13.396  0.00  0.00    +0.000 NA
BRANCH   8  10
ATOM     10  C   UNL     1      47.277   4.447  14.987  0.00  0.00    +0.000 C 
BRANCH  10  11
ATOM     11  N   UNL     1      47.596   5.360  16.090  0.00  0.00    +0.000 NA
ATOM     12  H   UNL     1      47.884   4.793  16.888  0.00  0.00    +0.000 HD
ATOM     13  H   UNL     1      46.738   5.828  16.376  0.00  0.00    +0.000 HD
ENDBRANCH  10  11
ENDBRANCH   8  10
ENDBRANCH   1   4
BRANCH   1  14
ATOM     14  C   UNL     1      43.396   4.349  10.932  0.00  0.00    +0.000 C 
BRANCH  14  15
ATOM     15  O   UNL     1      43.716   4.750   9.588  0.00  0.00    +0.000 OA
BRANCH  15  19
ATOM     16  C   UNL     1      46.271   2.051   7.784  0.00  0.00    +0.000 A 
ATOM     17  C   UNL     1      45.415   1.619   8.802  0.00  0.00    +0.000 A 
ATOM     18  C   UNL     1      44.552   2.537   9.411  0.00  0.00    +0.000 A 
ATOM     19  C   UNL     1      44.578   3.857   8.977  0.00  0.00    +0.000 A 
ATOM     20  N   UNL     1      45.392   4.296   7.992  0.00  0.00    +0.000 NA
ATOM     21  C   UNL     1      46.219   3.388   7.422  0.00  0.00    +0.000 A 
BRANCH  16  22
ATOM     22  C   UNL     1      47.227   1.182   7.066  0.00  0.00    +0.000 C 
ATOM     23  O   UNL     1      47.074  -0.023   6.947  0.00  0.00    +0.000 OA
BRANCH  22  25
ATOM     24  C   UNL     1      48.101   2.309   5.223  0.00  0.00    +0.000 C 
ATOM     25  O   UNL     1      48.269   1.902   6.584  0.00  0.00    +0.000 OA
ENDBRANCH  22  25
ENDBRANCH  16  22
ENDBRANCH  15  19
ENDBRANCH  14  15
ENDBRANCH   1  14
TORSDOF 8
ENDMDL
MODEL 2
REMARK VINA RESULT:    -6.712      3.168      6.550
REMARK INTER + INTRA:         -10.061
REMARK INTER:                  -9.107
REMARK INTRA:                  -0.954
REMARK UNBOUND:                -0.405
REMARK  Name = 
REMARK  11 active torsions:
REMARK  status: ('A' for Active; 'I' for Inactive)
REMARK    1  A    between atoms: C_1  and  O_2
REMARK    2  A    between atoms: O_2  and  C_3
REMARK    3  A    between atoms: C_3  and  C_5
REMARK    4  A    between atoms: C_8  and  O_9
REMARK    5  A    between atoms: O_9  and  C_10
REMARK    6  A    between atoms: C_10  and  C_11
REMARK    7  A    between atoms: C_11  and  C_12
REMARK    8  A    between atoms: C_11  and  C_13
REMARK    9  A    between atoms: C_11  and  C_14
REMARK   10  A    between atoms: C_18  and  C_19
REMARK   11  A    between atoms: C_19  and  N_20
REMARK                            x       y       z     vdW  Elec       q    Type
REMARK                         _______ _______ _______ _____ _____    ______ ____
ROOT
ATOM      1  C   UNL     1      44.059   3.804  11.418  0.00  0.00    +0.000 C 
ATOM      2  C   UNL     1      43.301   2.488  11.683  0.00  0.00    +0.000 C 
ATOM      3  C   UNL     1      43.010   4.937  11.345  0.00  0.00    +0.000 C 
ENDROOT
BRANCH   1   4
ATOM      4  C   UNL     1      44.853   3.685  10.104  0.00  0.00    +0.000 A 
ATOM      5  C   UNL     1      45.270   4.825   9.412  0.00  0.00    +0.000 A 
ATOM      6  C   UNL     1      45.977   4.688   8.221  0.00  0.00    +0.000 A 
ATOM      7  C   UNL     1      46.266   3.416   7.747  0.00  0.00    +0.000 A 
ATOM      8  C   UNL     1      45.839   2.316   8.482  0.00  0.00    +0.000 A 
ATOM      9  N   UNL     1      45.135   2.440   9.639  0.00  0.00    +0.000 NA
BRANCH   8  10
ATOM     10  C   UNL     1      46.191   0.915   8.023  0.00  0.00    +0.000 C 
BRANCH  10  11
ATOM     11  N   UNL     1      47.313   0.874   7.080  0.00  0.00    +0.000 NA
ATOM     12  H   UNL     1      47.705  -0.068   7.105  0.00  0.00    +0.000 HD
ATOM     13  H   UNL     1      48.047   1.489   7.428  0.00  0.00    +0.000 HD
ENDBRANCH  10  11
ENDBRANCH   8  10
ENDBRANCH   1   4
BRANCH   1  14
ATOM     14  C   UNL     1      45.048   4.111  12.572  0.00  0.00    +0.000 C 
BRANCH  14  15
ATOM     15  O   UNL     1      44.802   5.393  13.177  0.00  0.00    +0.000 OA
BRANCH  15  19
ATOM     16  C   UNL     1      47.733   8.120  12.159  0.00  0.00    +0.000 A 
ATOM     17  C   UNL     1      48.088   6.801  12.456  0.00  0.00    +0.000 A 
ATOM     18  C   UNL     1      47.093   5.881  12.802  0.00  0.00    +0.000 A 
ATOM     19  C   UNL     1      45.774   6.317  12.836  0.00  0.00    +0.000 A 
ATOM     20  N   UNL     1      45.406   7.585  12.550  0.00  0.00    +0.000 NA
ATOM     21  C   UNL     1      46.389   8.455  12.222  0.00  0.00    +0.000 A 
BRANCH  16  22
ATOM     22  C   UNL     1      48.688   9.184  11.784  0.00  0.00    +0.000 C 
ATOM     23  O   UNL     1      48.338  10.296  11.420  0.00  0.00    +0.000 OA
BRANCH  22  25
ATOM     24  C   UNL     1      50.744   9.497  12.835  0.00  0.00    +0.000 C 
ATOM     25  O   UNL     1      49.966   8.750  11.895  0.00  0.00    +0.000 OA
ENDBRANCH  22  25
ENDBRANCH  16  22
ENDBRANCH  15  19
ENDBRANCH  14  15
ENDBRANCH   1  14
TORSDOF 8
ENDMDL
MODEL 3
REMARK VINA RESULT:    -6.675      3.556      6.571
REMARK INTER + INTRA:         -10.007
REMARK INTER:                  -9.305
REMARK INTRA:                  -0.702
REMARK UNBOUND:                -0.405
REMARK  Name = 
REMARK  11 active torsions:
REMARK  status: ('A' for Active; 'I' for Inactive)
REMARK    1  A    between atoms: C_1  and  O_2
REMARK    2  A    between atoms: O_2  and  C_3
REMARK    3  A    between atoms: C_3  and  C_5
REMARK    4  A    between atoms: C_8  and  O_9
REMARK    5  A    between atoms: O_9  and  C_10
REMARK    6  A    between atoms: C_10  and  C_11
REMARK    7  A    between atoms: C_11  and  C_12
REMARK    8  A    between atoms: C_11  and  C_13
REMARK    9  A    between atoms: C_11  and  C_14
REMARK   10  A    between atoms: C_18  and  C_19
REMARK   11  A    between atoms: C_19  and  N_20
REMARK                            x       y       z     vdW  Elec       q    Type
REMARK                         _______ _______ _______ _____ _____    ______ ____
ROOT
ATOM      1  C   UNL     1      47.959   4.291  17.250  0.00  0.00    +0.000 C 
ATOM      2  C   UNL     1      47.304   5.134  18.363  0.00  0.00    +0.000 C 
ATOM      3  C   UNL     1      47.414   2.850  17.378  0.00  0.00    +0.000 C 
ENDROOT
BRANCH   1   4
ATOM      4  C   UNL     1      49.491   4.331  17.410  0.00  0.00    +0.000 A 
ATOM      5  C   UNL     1      50.170   5.549  17.509  0.00  0.00    +0.000 A 
ATOM      6  C   UNL     1      51.555   5.555  17.642  0.00  0.00    +0.000 A 
ATOM      7  C   UNL     1      52.238   4.349  17.687  0.00  0.00    +0.000 A 
ATOM      8  C   UNL     1      51.511   3.166  17.598  0.00  0.00    +0.000 A 
ATOM      9  N   UNL     1      50.159   3.150  17.453  0.00  0.00    +0.000 NA
BRANCH   8  10
ATOM     10  C   UNL     1      52.220   1.831  17.704  0.00  0.00    +0.000 C 
BRANCH  10  11
ATOM     11  N   UNL     1      51.306   0.685  17.721  0.00  0.00    +0.000 NA
ATOM     12  H   UNL     1      50.809   0.698  18.612  0.00  0.00    +0.000 HD
ATOM     13  H   UNL     1      51.862  -0.169  17.725  0.00  0.00    +0.000 HD
ENDBRANCH  10  11
ENDBRANCH   8  10
ENDBRANCH   1   4
BRANCH   1  14
ATOM     14  C   UNL     1      47.588   4.845  15.850  0.00  0.00    +0.000 C 
BRANCH  14  15
ATOM     15  O   UNL     1      47.627   3.829  14.832  0.00  0.00    +0.000 OA
BRANCH  15  19
ATOM     16  C   UNL     1      45.077   4.728  11.709  0.00  0.00    +0.000 A 
ATOM     17  C   UNL     1      45.864   5.737  12.272  0.00  0.00    +0.000 A 
ATOM     18  C   UNL     1      46.725   5.428  13.331  0.00  0.00    +0.000 A 
ATOM     19  C   UNL     1      46.767   4.117  13.787  0.00  0.00    +0.000 A 
ATOM     20  N   UNL     1      46.020   3.124  13.256  0.00  0.00    +0.000 NA
ATOM     21  C   UNL     1      45.193   3.451  12.236  0.00  0.00    +0.000 A 
BRANCH  16  22
ATOM     22  C   UNL     1      44.129   4.926  10.592  0.00  0.00    +0.000 C 
ATOM     23  O   UNL     1      44.167   4.272   9.561  0.00  0.00    +0.000 OA
BRANCH  22  25
ATOM     24  C   UNL     1      42.242   5.530  11.818  0.00  0.00    +0.000 C 
ATOM     25  O   UNL     1      43.246   5.913  10.874  0.00  0.00    +0.000 OA
ENDBRANCH  22  25
ENDBRANCH  16  22
ENDBRANCH  15  19
ENDBRANCH  14  15
ENDBRANCH   1  14
TORSDOF 8
ENDMDL
MODEL 4
REMARK VINA RESULT:    -6.607      3.606      7.366
REMARK INTER + INTRA:          -9.910
REMARK INTER:                  -9.172
REMARK INTRA:                  -0.737
REMARK UNBOUND:                -0.405
REMARK  Name = 
REMARK  11 active torsions:
REMARK  status: ('A' for Active; 'I' for Inactive)
REMARK    1  A    between atoms: C_1  and  O_2
REMARK    2  A    between atoms: O_2  and  C_3
REMARK    3  A    between atoms: C_3  and  C_5
REMARK    4  A    between atoms: C_8  and  O_9
REMARK    5  A    between atoms: O_9  and  C_10
REMARK    6  A    between atoms: C_10  and  C_11
REMARK    7  A    between atoms: C_11  and  C_12
REMARK    8  A    between atoms: C_11  and  C_13
REMARK    9  A    between atoms: C_11  and  C_14
REMARK   10  A    between atoms: C_18  and  C_19
REMARK   11  A    between atoms: C_19  and  N_20
REMARK                            x       y       z     vdW  Elec       q    Type
REMARK                         _______ _______ _______ _____ _____    ______ ____
ROOT
ATOM      1  C   UNL     1      43.905   4.154  11.576  0.00  0.00    +0.000 C 
ATOM      2  C   UNL     1      43.339   2.796  12.035  0.00  0.00    +0.000 C 
ATOM      3  C   UNL     1      42.707   5.103  11.346  0.00  0.00    +0.000 C 
ENDROOT
BRANCH   1   4
ATOM      4  C   UNL     1      44.726   3.960  10.287  0.00  0.00    +0.000 A 
ATOM      5  C   UNL     1      45.281   5.055   9.619  0.00  0.00    +0.000 A 
ATOM      6  C   UNL     1      46.009   4.850   8.450  0.00  0.00    +0.000 A 
ATOM      7  C   UNL     1      46.182   3.558   7.976  0.00  0.00    +0.000 A 
ATOM      8  C   UNL     1      45.621   2.504   8.688  0.00  0.00    +0.000 A 
ATOM      9  N   UNL     1      44.895   2.695   9.823  0.00  0.00    +0.000 NA
BRANCH   8  10
ATOM     10  C   UNL     1      45.842   1.077   8.231  0.00  0.00    +0.000 C 
BRANCH  10  11
ATOM     11  N   UNL     1      47.051   0.905   7.418  0.00  0.00    +0.000 NA
ATOM     12  H   UNL     1      47.057  -0.055   7.070  0.00  0.00    +0.000 HD
ATOM     13  H   UNL     1      47.862   0.984   8.029  0.00  0.00    +0.000 HD
ENDBRANCH  10  11
ENDBRANCH   8  10
ENDBRANCH   1   4
BRANCH   1  14
ATOM     14  C   UNL     1      44.825   4.764  12.666  0.00  0.00    +0.000 C 
BRANCH  14  15
ATOM     15  O   UNL     1      45.699   3.784  13.255  0.00  0.00    +0.000 OA
BRANCH  15  19
ATOM     16  C   UNL     1      48.370   5.536  15.873  0.00  0.00    +0.000 A 
ATOM     17  C   UNL     1      48.093   6.155  14.651  0.00  0.00    +0.000 A 
ATOM     18  C   UNL     1      47.189   5.558  13.766  0.00  0.00    +0.000 A 
ATOM     19  C   UNL     1      46.593   4.359  14.140  0.00  0.00    +0.000 A 
ATOM     20  N   UNL     1      46.841   3.745  15.317  0.00  0.00    +0.000 NA
ATOM     21  C   UNL     1      47.723   4.343  16.153  0.00  0.00    +0.000 A 
BRANCH  16  22
ATOM     22  C   UNL     1      49.306   6.064  16.890  0.00  0.00    +0.000 C 
ATOM     23  O   UNL     1      48.939   6.688  17.873  0.00  0.00    +0.000 OA
BRANCH  22  25
ATOM     24  C   UNL     1      51.350   5.268  17.674  0.00  0.00    +0.000 C 
ATOM     25  O   UNL     1      50.588   5.766  16.571  0.00  0.00    +0.000 OA
ENDBRANCH  22  25
ENDBRANCH  16  22
ENDBRANCH  15  19
ENDBRANCH  14  15
ENDBRANCH   1  14
TORSDOF 8
ENDMDL
MODEL 5
REMARK VINA RESULT:    -6.582      2.639      5.330
REMARK INTER + INTRA:          -9.873
REMARK INTER:                  -9.037
REMARK INTRA:                  -0.835
REMARK UNBOUND:                -0.405
REMARK  Name = 
REMARK  11 active torsions:
REMARK  status: ('A' for Active; 'I' for Inactive)
REMARK    1  A    between atoms: C_1  and  O_2
REMARK    2  A    between atoms: O_2  and  C_3
REMARK    3  A    between atoms: C_3  and  C_5
REMARK    4  A    between atoms: C_8  and  O_9
REMARK    5  A    between atoms: O_9  and  C_10
REMARK    6  A    between atoms: C_10  and  C_11
REMARK    7  A    between atoms: C_11  and  C_12
REMARK    8  A    between atoms: C_11  and  C_13
REMARK    9  A    between atoms: C_11  and  C_14
REMARK   10  A    between atoms: C_18  and  C_19
REMARK   11  A    between atoms: C_19  and  N_20
REMARK                            x       y       z     vdW  Elec       q    Type
REMARK                         _______ _______ _______ _____ _____    ______ ____
ROOT
ATOM      1  C   UNL     1      48.923   7.395  14.698  0.00  0.00    +0.000 C 
ATOM      2  C   UNL     1      50.438   7.593  14.494  0.00  0.00    +0.000 C 
ATOM      3  C   UNL     1      48.272   8.797  14.732  0.00  0.00    +0.000 C 
ENDROOT
BRANCH   1   4
ATOM      4  C   UNL     1      48.677   6.627  16.011  0.00  0.00    +0.000 A 
ATOM      5  C   UNL     1      48.752   7.276  17.246  0.00  0.00    +0.000 A 
ATOM      6  C   UNL     1      48.536   6.555  18.417  0.00  0.00    +0.000 A 
ATOM      7  C   UNL     1      48.236   5.204  18.335  0.00  0.00    +0.000 A 
ATOM      8  C   UNL     1      48.159   4.611  17.080  0.00  0.00    +0.000 A 
ATOM      9  N   UNL     1      48.383   5.303  15.931  0.00  0.00    +0.000 NA
BRANCH   8  10
ATOM     10  C   UNL     1      47.774   3.151  16.953  0.00  0.00    +0.000 C 
BRANCH  10  11
ATOM     11  N   UNL     1      46.581   2.792  17.728  0.00  0.00    +0.000 NA
ATOM     12  H   UNL     1      45.817   3.393  17.417  0.00  0.00    +0.000 HD
ATOM     13  H   UNL     1      46.747   3.035  18.703  0.00  0.00    +0.000 HD
ENDBRANCH  10  11
ENDBRANCH   8  10
ENDBRANCH   1   4
BRANCH   1  14
ATOM     14  C   UNL     1      48.311   6.586  13.525  0.00  0.00    +0.000 C 
BRANCH  14  15
ATOM     15  O   UNL     1      47.023   7.090  13.127  0.00  0.00    +0.000 OA
BRANCH  15  19
ATOM     16  C   UNL     1      44.736   4.198  11.263  0.00  0.00    +0.000 A 
ATOM     17  C   UNL     1      44.976   5.414  10.615  0.00  0.00    +0.000 A 
ATOM     18  C   UNL     1      45.750   6.391  11.251  0.00  0.00    +0.000 A 
ATOM     19  C   UNL     1      46.257   6.114  12.514  0.00  0.00    +0.000 A 
ATOM     20  N   UNL     1      46.043   4.945  13.157  0.00  0.00    +0.000 NA
ATOM     21  C   UNL     1      45.288   4.018  12.522  0.00  0.00    +0.000 A 
BRANCH  16  22
ATOM     22  C   UNL     1      43.935   3.090  10.700  0.00  0.00    +0.000 C 
ATOM     23  O   UNL     1      43.164   2.419  11.368  0.00  0.00    +0.000 OA
BRANCH  22  25
ATOM     24  C   UNL     1      45.323   2.111   9.105  0.00  0.00    +0.000 C 
ATOM     25  O   UNL     1      44.185   2.933   9.378  0.00  0.00    +0.000 OA
ENDBRANCH  22  25
ENDBRANCH  16  22
ENDBRANCH  15  19
ENDBRANCH  14  15
ENDBRANCH   1  14
TORSDOF 8
ENDMDL
MODEL 6
REMARK VINA RESULT:    -6.561      4.532      6.997
REMARK INTER + INTRA:          -9.843
REMARK INTER:                  -8.928
REMARK INTRA:                  -0.914
REMARK UNBOUND:                -0.405
REMARK  Name = 
REMARK  11 active torsions:
REMARK  status: ('A' for Active; 'I' for Inactive)
REMARK    1  A    between atoms: C_1  and  O_2
REMARK    2  A    between atoms: O_2  and  C_3
REMARK    3  A    between atoms: C_3  and  C_5
REMARK    4  A    between atoms: C_8  and  O_9
REMARK    5  A    between atoms: O_9  and  C_10
REMARK    6  A    between atoms: C_10  and  C_11
REMARK    7  A    between atoms: C_11  and  C_12
REMARK    8  A    between atoms: C_11  and  C_13
REMARK    9  A    between atoms: C_11  and  C_14
REMARK   10  A    between atoms: C_18  and  C_19
REMARK   11  A    between atoms: C_19  and  N_20
REMARK                            x       y       z     vdW  Elec       q    Type
REMARK                         _______ _______ _______ _____ _____    ______ ____
ROOT
ATOM      1  C   UNL     1      49.899   7.258  16.329  0.00  0.00    +0.000 C 
ATOM      2  C   UNL     1      51.331   6.950  15.848  0.00  0.00    +0.000 C 
ATOM      3  C   UNL     1      49.978   8.488  17.262  0.00  0.00    +0.000 C 
ENDROOT
BRANCH   1   4
ATOM      4  C   UNL     1      49.328   6.030  17.063  0.00  0.00    +0.000 A 
ATOM      5  C   UNL     1      48.197   6.142  17.877  0.00  0.00    +0.000 A 
ATOM      6  C   UNL     1      47.709   5.018  18.536  0.00  0.00    +0.000 A 
ATOM      7  C   UNL     1      48.348   3.799  18.362  0.00  0.00    +0.000 A 
ATOM      8  C   UNL     1      49.460   3.740  17.529  0.00  0.00    +0.000 A 
ATOM      9  N   UNL     1      49.954   4.836  16.892  0.00  0.00    +0.000 NA
BRANCH   8  10
ATOM     10  C   UNL     1      50.144   2.413  17.270  0.00  0.00    +0.000 C 
BRANCH  10  11
ATOM     11  N   UNL     1      49.571   1.671  16.142  0.00  0.00    +0.000 NA
ATOM     12  H   UNL     1      48.572   1.562  16.318  0.00  0.00    +0.000 HD
ATOM     13  H   UNL     1      49.959   0.730  16.147  0.00  0.00    +0.000 HD
ENDBRANCH  10  11
ENDBRANCH   8  10
ENDBRANCH   1   4
BRANCH   1  14
ATOM     14  C   UNL     1      48.977   7.597  15.130  0.00  0.00    +0.000 C 
BRANCH  14  15
ATOM     15  O   UNL     1      49.027   6.593  14.100  0.00  0.00    +0.000 OA
BRANCH  15  19
ATOM     16  C   UNL     1      45.277   5.070  13.274  0.00  0.00    +0.000 A 
ATOM     17  C   UNL     1      45.591   6.378  12.894  0.00  0.00    +0.000 A 
ATOM     18  C   UNL     1      46.862   6.891  13.177  0.00  0.00    +0.000 A 
ATOM     19  C   UNL     1      47.774   6.071  13.831  0.00  0.00    +0.000 A 
ATOM     20  N   UNL     1      47.495   4.803  14.204  0.00  0.00    +0.000 NA
ATOM     21  C   UNL     1      46.257   4.333  13.921  0.00  0.00    +0.000 A 
BRANCH  16  22
ATOM     22  C   UNL     1      43.973   4.416  13.036  0.00  0.00    +0.000 C 
ATOM     23  O   UNL     1      43.853   3.213  12.858  0.00  0.00    +0.000 OA
BRANCH  22  25
ATOM     24  C   UNL     1      42.340   5.482  11.761  0.00  0.00    +0.000 C 
ATOM     25  O   UNL     1      42.967   5.323  13.037  0.00  0.00    +0.000 OA
ENDBRANCH  22  25
ENDBRANCH  16  22
ENDBRANCH  15  19
ENDBRANCH  14  15
ENDBRANCH   1  14
TORSDOF 8
ENDMDL
MODEL 7
REMARK VINA RESULT:    -6.182      4.105      7.973
REMARK INTER + INTRA:          -9.297
REMARK INTER:                  -8.527
REMARK INTRA:                  -0.771
REMARK UNBOUND:                -0.405
REMARK  Name = 
REMARK  11 active torsions:
REMARK  status: ('A' for Active; 'I' for Inactive)
REMARK    1  A    between atoms: C_1  and  O_2
REMARK    2  A    between atoms: O_2  and  C_3
REMARK    3  A    between atoms: C_3  and  C_5
REMARK    4  A    between atoms: C_8  and  O_9
REMARK    5  A    between atoms: O_9  and  C_10
REMARK    6  A    between atoms: C_10  and  C_11
REMARK    7  A    between atoms: C_11  and  C_12
REMARK    8  A    between atoms: C_11  and  C_13
REMARK    9  A    between atoms: C_11  and  C_14
REMARK   10  A    between atoms: C_18  and  C_19
REMARK   11  A    between atoms: C_19  and  N_20
REMARK                            x       y       z     vdW  Elec       q    Type
REMARK                         _______ _______ _______ _____ _____    ______ ____
ROOT
ATOM      1  C   UNL     1      44.803   5.346  12.576  0.00  0.00    +0.000 C 
ATOM      2  C   UNL     1      43.303   5.150  12.875  0.00  0.00    +0.000 C 
ATOM      3  C   UNL     1      45.124   6.844  12.781  0.00  0.00    +0.000 C 
ENDROOT
BRANCH   1   4
ATOM      4  C   UNL     1      45.102   4.897  11.133  0.00  0.00    +0.000 A 
ATOM      5  C   UNL     1      45.759   5.748  10.239  0.00  0.00    +0.000 A 
ATOM      6  C   UNL     1      46.007   5.320   8.938  0.00  0.00    +0.000 A 
ATOM      7  C   UNL     1      45.608   4.048   8.555  0.00  0.00    +0.000 A 
ATOM      8  C   UNL     1      44.972   3.238   9.488  0.00  0.00    +0.000 A 
ATOM      9  N   UNL     1      44.711   3.652  10.757  0.00  0.00    +0.000 NA
BRANCH   8  10
ATOM     10  C   UNL     1      44.578   1.822   9.120  0.00  0.00    +0.000 C 
BRANCH  10  11
ATOM     11  N   UNL     1      45.698   1.014   8.626  0.00  0.00    +0.000 NA
ATOM     12  H   UNL     1      45.604   0.078   9.023  0.00  0.00    +0.000 HD
ATOM     13  H   UNL     1      46.561   1.394   9.010  0.00  0.00    +0.000 HD
ENDBRANCH  10  11
ENDBRANCH   8  10
ENDBRANCH   1   4
BRANCH   1  14
ATOM     14  C   UNL     1      45.672   4.509  13.550  0.00  0.00    +0.000 C 
BRANCH  14  15
ATOM     15  O   UNL     1      47.043   4.945  13.572  0.00  0.00    +0.000 OA
BRANCH  15  19
ATOM     16  C   UNL     1      48.493   5.143  17.435  0.00  0.00    +0.000 A 
ATOM     17  C   UNL     1      47.558   4.160  17.097  0.00  0.00    +0.000 A 
ATOM     18  C   UNL     1      47.068   4.098  15.787  0.00  0.00    +0.000 A 
ATOM     19  C   UNL     1      47.535   5.023  14.863  0.00  0.00    +0.000 A 
ATOM     20  N   UNL     1      48.441   5.979  15.165  0.00  0.00    +0.000 NA
ATOM     21  C   UNL     1      48.896   6.019  16.440  0.00  0.00    +0.000 A 
BRANCH  16  22
ATOM     22  C   UNL     1      49.083   5.315  18.780  0.00  0.00    +0.000 C 
ATOM     23  O   UNL     1      49.842   4.501  19.284  0.00  0.00    +0.000 OA
BRANCH  22  25
ATOM     24  C   UNL     1      47.483   6.313  20.148  0.00  0.00    +0.000 C 
ATOM     25  O   UNL     1      48.661   6.468  19.351  0.00  0.00    +0.000 OA
ENDBRANCH  22  25
ENDBRANCH  16  22
ENDBRANCH  15  19
ENDBRANCH  14  15
ENDBRANCH   1  14
TORSDOF 8
ENDMDL
MODEL 8
REMARK VINA RESULT:    -5.931      3.930      7.848
REMARK INTER + INTRA:          -8.937
REMARK INTER:                  -8.002
REMARK INTRA:                  -0.935
REMARK UNBOUND:                -0.405
REMARK  Name = 
REMARK  11 active torsions:
REMARK  status: ('A' for Active; 'I' for Inactive)
REMARK    1  A    between atoms: C_1  and  O_2
REMARK    2  A    between atoms: O_2  and  C_3
REMARK    3  A    between atoms: C_3  and  C_5
REMARK    4  A    between atoms: C_8  and  O_9
REMARK    5  A    between atoms: O_9  and  C_10
REMARK    6  A    between atoms: C_10  and  C_11
REMARK    7  A    between atoms: C_11  and  C_12
REMARK    8  A    between atoms: C_11  and  C_13
REMARK    9  A    between atoms: C_11  and  C_14
REMARK   10  A    between atoms: C_18  and  C_19
REMARK   11  A    between atoms: C_19  and  N_20
REMARK                            x       y       z     vdW  Elec       q    Type
REMARK                         _______ _______ _______ _____ _____    ______ ____
ROOT
ATOM      1  C   UNL     1      45.708   6.616  11.850  0.00  0.00    +0.000 C 
ATOM      2  C   UNL     1      44.748   7.790  11.570  0.00  0.00    +0.000 C 
ATOM      3  C   UNL     1      46.815   6.655  10.772  0.00  0.00    +0.000 C 
ENDROOT
BRANCH   1   4
ATOM      4  C   UNL     1      44.925   5.291  11.807  0.00  0.00    +0.000 A 
ATOM      5  C   UNL     1      44.117   4.900  12.879  0.00  0.00    +0.000 A 
ATOM      6  C   UNL     1      43.429   3.692  12.817  0.00  0.00    +0.000 A 
ATOM      7  C   UNL     1      43.548   2.901  11.684  0.00  0.00    +0.000 A 
ATOM      8  C   UNL     1      44.353   3.344  10.641  0.00  0.00    +0.000 A 
ATOM      9  N   UNL     1      45.042   4.516  10.698  0.00  0.00    +0.000 NA
BRANCH   8  10
ATOM     10  C   UNL     1      44.457   2.533   9.365  0.00  0.00    +0.000 C 
BRANCH  10  11
ATOM     11  N   UNL     1      44.365   3.346   8.148  0.00  0.00    +0.000 NA
ATOM     12  H   UNL     1      43.690   4.092   8.323  0.00  0.00    +0.000 HD
ATOM     13  H   UNL     1      43.960   2.773   7.409  0.00  0.00    +0.000 HD
ENDBRANCH  10  11
ENDBRANCH   8  10
ENDBRANCH   1   4
BRANCH   1  14
ATOM     14  C   UNL     1      46.364   6.764  13.248  0.00  0.00    +0.000 C 
BRANCH  14  15
ATOM     15  O   UNL     1      47.617   6.062  13.341  0.00  0.00    +0.000 OA
BRANCH  15  19
ATOM     16  C   UNL     1      48.245   4.558  17.136  0.00  0.00    +0.000 A 
ATOM     17  C   UNL     1      47.333   3.927  16.285  0.00  0.00    +0.000 A 
ATOM     18  C   UNL     1      47.122   4.441  15.001  0.00  0.00    +0.000 A 
ATOM     19  C   UNL     1      47.835   5.570  14.615  0.00  0.00    +0.000 A 
ATOM     20  N   UNL     1      48.725   6.193  15.418  0.00  0.00    +0.000 NA
ATOM     21  C   UNL     1      48.907   5.678  16.657  0.00  0.00    +0.000 A 
BRANCH  16  22
ATOM     22  C   UNL     1      48.554   4.116  18.513  0.00  0.00    +0.000 C 
ATOM     23  O   UNL     1      48.287   3.000  18.930  0.00  0.00    +0.000 OA
BRANCH  22  25
ATOM     24  C   UNL     1      48.428   5.486  20.393  0.00  0.00    +0.000 C 
ATOM     25  O   UNL     1      49.151   5.106  19.219  0.00  0.00    +0.000 OA
ENDBRANCH  22  25
ENDBRANCH  16  22
ENDBRANCH  15  19
ENDBRANCH  14  15
ENDBRANCH   1  14
TORSDOF 8
ENDMDL
MODEL 9
REMARK VINA RESULT:    -5.699      4.844      8.836
REMARK INTER + INTRA:          -8.603
REMARK INTER:                  -7.820
REMARK INTRA:                  -0.784
REMARK UNBOUND:                -0.405
REMARK  Name = 
REMARK  11 active torsions:
REMARK  status: ('A' for Active; 'I' for Inactive)
REMARK    1  A    between atoms: C_1  and  O_2
REMARK    2  A    between atoms: O_2  and  C_3
REMARK    3  A    between atoms: C_3  and  C_5
REMARK    4  A    between atoms: C_8  and  O_9
REMARK    5  A    between atoms: O_9  and  C_10
REMARK    6  A    between atoms: C_10  and  C_11
REMARK    7  A    between atoms: C_11  and  C_12
REMARK    8  A    between atoms: C_11  and  C_13
REMARK    9  A    between atoms: C_11  and  C_14
REMARK   10  A    between atoms: C_18  and  C_19
REMARK   11  A    between atoms: C_19  and  N_20
REMARK                            x       y       z     vdW  Elec       q    Type
REMARK                         _______ _______ _______ _____ _____    ______ ____
ROOT
ATOM      1  C   UNL     1      46.868   6.791  12.546  0.00  0.00    +0.000 C 
ATOM      2  C   UNL     1      45.993   7.993  12.953  0.00  0.00    +0.000 C 
ATOM      3  C   UNL     1      48.069   7.343  11.745  0.00  0.00    +0.000 C 
ENDROOT
BRANCH   1   4
ATOM      4  C   UNL     1      46.033   5.808  11.705  0.00  0.00    +0.000 A 
ATOM      5  C   UNL     1      46.060   5.857  10.308  0.00  0.00    +0.000 A 
ATOM      6  C   UNL     1      45.287   4.963   9.573  0.00  0.00    +0.000 A 
ATOM      7  C   UNL     1      44.510   4.028  10.242  0.00  0.00    +0.000 A 
ATOM      8  C   UNL     1      44.532   4.014  11.632  0.00  0.00    +0.000 A 
ATOM      9  N   UNL     1      45.272   4.893  12.360  0.00  0.00    +0.000 NA
BRANCH   8  10
ATOM     10  C   UNL     1      43.742   2.967  12.392  0.00  0.00    +0.000 C 
BRANCH  10  11
ATOM     11  N   UNL     1      42.940   2.097  11.525  0.00  0.00    +0.000 NA
ATOM     12  H   UNL     1      42.751   2.609  10.662  0.00  0.00    +0.000 HD
ATOM     13  H   UNL     1      42.034   1.952  11.966  0.00  0.00    +0.000 HD
ENDBRANCH  10  11
ENDBRANCH   8  10
ENDBRANCH   1   4
BRANCH   1  14
ATOM     14  C   UNL     1      47.400   6.049  13.799  0.00  0.00    +0.000 C 
BRANCH  14  15
ATOM     15  O   UNL     1      48.740   6.447  14.143  0.00  0.00    +0.000 OA
BRANCH  15  19
ATOM     16  C   UNL     1      49.198   6.914  18.222  0.00  0.00    +0.000 A 
ATOM     17  C   UNL     1      48.905   8.027  17.427  0.00  0.00    +0.000 A 
ATOM     18  C   UNL     1      48.752   7.864  16.046  0.00  0.00    +0.000 A 
ATOM     19  C   UNL     1      48.897   6.590  15.510  0.00  0.00    +0.000 A 
ATOM     20  N   UNL     1      49.175   5.500  16.258  0.00  0.00    +0.000 NA
ATOM     21  C   UNL     1      49.322   5.686  17.591  0.00  0.00    +0.000 A 
BRANCH  16  22
ATOM     22  C   UNL     1      49.386   6.955  19.688  0.00  0.00    +0.000 C 
ATOM     23  O   UNL     1      50.430   6.637  20.235  0.00  0.00    +0.000 OA
BRANCH  22  25
ATOM     24  C   UNL     1      47.401   6.310  20.724  0.00  0.00    +0.000 C 
ATOM     25  O   UNL     1      48.259   7.377  20.310  0.00  0.00    +0.000 OA
ENDBRANCH  22  25
ENDBRANCH  16  22
ENDBRANCH  15  19
ENDBRANCH  14  15
ENDBRANCH   1  14
TORSDOF 8
ENDMDL
