MODEL 1
REMARK VINA RESULT:    -8.436      0.000      0.000
REMARK INTER + INTRA:         -12.771
REMARK INTER:                 -11.888
REMARK INTRA:                  -0.883
REMARK UNBOUND:                -0.883
REMARK  Name = 
REMARK  7 active torsions:
REMARK  status: ('A' for Active; 'I' for Inactive)
REMARK    1  A    between atoms: C_2  and  C_3
REMARK    2  A    between atoms: N_7  and  C_8
REMARK    3  A    between atoms: C_8  and  C_9
REMARK    4  A    between atoms: C_9  and  C_12
REMARK    5  A    between atoms: C_16  and  O_17
REMARK    6  A    between atoms: O_17  and  C_18
REMARK    7  A    between atoms: C_21  and  C_23
REMARK                            x       y       z     vdW  Elec       q    Type
REMARK                         _______ _______ _______ _____ _____    ______ ____
ROOT
ATOM      1  C   UNL     1      45.279   5.904  12.027  0.00  0.00    +0.000 A 
ATOM      2  C   UNL     1      46.101   6.945  11.565  0.00  0.00    +0.000 A 
ATOM      3  C   UNL     1      47.426   7.057  11.998  0.00  0.00    +0.000 A 
ATOM      4  C   UNL     1      47.957   6.130  12.898  0.00  0.00    +0.000 A 
ATOM      5  C   UNL     1      47.162   5.082  13.348  0.00  0.00    +0.000 A 
ATOM      6  C   UNL     1      45.840   4.971  12.910  0.00  0.00    +0.000 A 
ENDROOT
BRANCH   1   7
ATOM      7  C   UNL     1      43.820   5.873  11.592  0.00  0.00    +0.000 C 
ATOM      8  F   UNL     1      43.320   7.145  11.463  0.00  0.00    +0.000 F 
ATOM      9  F   UNL     1      43.047   5.293  12.563  0.00  0.00    +0.000 F 
BRANCH   7  10
ATOM     10  C   UNL     1      43.551   5.138  10.254  0.00  0.00    +0.000 C 
BRANCH  10  15
ATOM     11  C   UNL     1      46.607   2.433   7.417  0.00  0.00    +0.000 A 
ATOM     12  C   UNL     1      46.021   1.503   8.267  0.00  0.00    +0.000 A 
ATOM     13  C   UNL     1      45.090   1.933   9.214  0.00  0.00    +0.000 A 
ATOM     14  C   UNL     1      44.752   3.281   9.286  0.00  0.00    +0.000 A 
ATOM     15  N   UNL     1      43.872   3.696  10.294  0.00  0.00    +0.000 N 
ATOM     16  N   UNL     1      45.317   4.192   8.463  0.00  0.00    +0.000 NA
ATOM     17  C   UNL     1      46.222   3.757   7.551  0.00  0.00    +0.000 A 
ATOM     18  H   UNL     1      43.042   3.112  10.329  0.00  0.00    +0.000 HD
BRANCH  11  20
ATOM     19  N   UNL     1      48.379   1.742   5.662  0.00  0.00    +0.000 NA
ATOM     20  C   UNL     1      47.583   2.054   6.448  0.00  0.00    +0.000 C 
ENDBRANCH  11  20
ENDBRANCH  10  15
ENDBRANCH   7  10
ENDBRANCH   1   7
BRANCH   5  21
ATOM     21  O   UNL     1      47.526   4.124  14.256  0.00  0.00    +0.000 OA
BRANCH  21  22
ATOM     22  C   UNL     1      47.244   4.317  15.656  0.00  0.00    +0.000 C 
ATOM     23  C   UNL     1      48.140   5.303  16.436  0.00  0.00    +0.000 C 
ATOM     24  N   UNL     1      48.269   4.268  17.440  0.00  0.00    +0.000 N 
ATOM     25  C   UNL     1      48.519   4.234  18.786  0.00  0.00    +0.000 C 
ATOM     26  O   UNL     1      48.531   3.149  19.381  0.00  0.00    +0.000 OA
ATOM     27  C   UNL     1      47.802   3.205  16.573  0.00  0.00    +0.000 C 
BRANCH  25  28
ATOM     28  C   UNL     1      48.743   5.569  19.519  0.00  0.00    +0.000 C 
ATOM     29  F   UNL     1      48.970   5.443  20.857  0.00  0.00    +0.000 F 
ATOM     30  F   UNL     1      49.823   6.239  19.024  0.00  0.00    +0.000 F 
ATOM     31  F   UNL     1      47.680   6.414  19.400  0.00  0.00    +0.000 F 
ENDBRANCH  25  28
ENDBRANCH  21  22
ENDBRANCH   5  21
TORSDOF 7
ENDMDL
MODEL 2
REMARK VINA RESULT:    -8.292      3.887      9.190
REMARK INTER + INTRA:         -12.569
REMARK INTER:                 -12.064
REMARK INTRA:                  -0.505
REMARK UNBOUND:                -0.883
REMARK  Name = 
REMARK  7 active torsions:
REMARK  status: ('A' for Active; 'I' for Inactive)
REMARK    1  A    between atoms: C_2  and  C_3
REMARK    2  A    between atoms: N_7  and  C_8
REMARK    3  A    between atoms: C_8  and  C_9
REMARK    4  A    between atoms: C_9  and  C_12
REMARK    5  A    between atoms: C_16  and  O_17
REMARK    6  A    between atoms: O_17  and  C_18
REMARK    7  A    between atoms: C_21  and  C_23
REMARK                            x       y       z     vdW  Elec       q    Type
REMARK                         _______ _______ _______ _____ _____    ______ ____
ROOT
ATOM      1  C   UNL     1      45.423   4.693  12.940  0.00  0.00    +0.000 A 
ATOM      2  C   UNL     1      44.583   5.818  12.910  0.00  0.00    +0.000 A 
ATOM      3  C   UNL     1      43.440   5.837  12.104  0.00  0.00    +0.000 A 
ATOM      4  C   UNL     1      43.113   4.732  11.315  0.00  0.00    +0.000 A 
ATOM      5  C   UNL     1      43.923   3.603  11.350  0.00  0.00    +0.000 A 
ATOM      6  C   UNL     1      45.061   3.585  12.160  0.00  0.00    +0.000 A 
ENDROOT
BRANCH   1   7
ATOM      7  C   UNL     1      46.700   4.751  13.767  0.00  0.00    +0.000 C 
ATOM      8  F   UNL     1      47.286   5.990  13.678  0.00  0.00    +0.000 F 
ATOM      9  F   UNL     1      47.635   3.888  13.261  0.00  0.00    +0.000 F 
BRANCH   7  10
ATOM     10  C   UNL     1      46.518   4.441  15.276  0.00  0.00    +0.000 C 
BRANCH  10  15
ATOM     11  C   UNL     1      50.514   2.356  17.369  0.00  0.00    +0.000 A 
ATOM     12  C   UNL     1      50.536   3.668  17.829  0.00  0.00    +0.000 A 
ATOM     13  C   UNL     1      49.532   4.551  17.425  0.00  0.00    +0.000 A 
ATOM     14  C   UNL     1      48.519   4.104  16.581  0.00  0.00    +0.000 A 
ATOM     15  N   UNL     1      47.567   5.029  16.132  0.00  0.00    +0.000 N 
ATOM     16  N   UNL     1      48.492   2.831  16.130  0.00  0.00    +0.000 NA
ATOM     17  C   UNL     1      49.476   1.987  16.529  0.00  0.00    +0.000 A 
ATOM     18  H   UNL     1      47.186   5.574  16.899  0.00  0.00    +0.000 HD
BRANCH  11  20
ATOM     19  N   UNL     1      52.355   0.659  18.024  0.00  0.00    +0.000 NA
ATOM     20  C   UNL     1      51.528   1.419  17.728  0.00  0.00    +0.000 C 
ENDBRANCH  11  20
ENDBRANCH  10  15
ENDBRANCH   7  10
ENDBRANCH   1   7
BRANCH   5  21
ATOM     21  O   UNL     1      43.754   2.464  10.608  0.00  0.00    +0.000 OA
BRANCH  21  22
ATOM     22  C   UNL     1      44.161   2.441   9.227  0.00  0.00    +0.000 C 
ATOM     23  C   UNL     1      45.507   1.764   8.888  0.00  0.00    +0.000 C 
ATOM     24  N   UNL     1      45.817   2.946   8.114  0.00  0.00    +0.000 N 
ATOM     25  C   UNL     1      46.612   3.232   7.035  0.00  0.00    +0.000 C 
ATOM     26  O   UNL     1      46.632   4.380   6.574  0.00  0.00    +0.000 OA
ATOM     27  C   UNL     1      44.790   3.762   8.730  0.00  0.00    +0.000 C 
BRANCH  25  28
ATOM     28  C   UNL     1      47.431   2.087   6.412  0.00  0.00    +0.000 C 
ATOM     29  F   UNL     1      48.147   2.446   5.309  0.00  0.00    +0.000 F 
ATOM     30  F   UNL     1      48.341   1.582   7.294  0.00  0.00    +0.000 F 
ATOM     31  F   UNL     1      46.651   1.039   6.024  0.00  0.00    +0.000 F 
ENDBRANCH  25  28
ENDBRANCH  21  22
ENDBRANCH   5  21
TORSDOF 7
ENDMDL
MODEL 3
REMARK VINA RESULT:    -7.968      3.722      9.471
REMARK INTER + INTRA:         -12.112
REMARK INTER:                 -11.607
REMARK INTRA:                  -0.505
REMARK UNBOUND:                -0.883
REMARK  Name = 
REMARK  7 active torsions:
REMARK  status: ('A' for Active; 'I' for Inactive)
REMARK    1  A    between atoms: C_2  and  C_3
REMARK    2  A    between atoms: N_7  and  C_8
REMARK    3  A    between atoms: C_8  and  C_9
REMARK    4  A    between atoms: C_9  and  C_12
REMARK    5  A    between atoms: C_16  and  O_17
REMARK    6  A    between atoms: O_17  and  C_18
REMARK    7  A    between atoms: C_21  and  C_23
REMARK                            x       y       z     vdW  Elec       q    Type
REMARK                         _______ _______ _______ _____ _____    ______ ____
ROOT
ATOM      1  C   UNL     1      45.379   4.968  12.740  0.00  0.00    +0.000 A 
ATOM      2  C   UNL     1      44.413   5.986  12.750  0.00  0.00    +0.000 A 
ATOM      3  C   UNL     1      43.214   5.844  12.044  0.00  0.00    +0.000 A 
ATOM      4  C   UNL     1      42.957   4.680  11.315  0.00  0.00    +0.000 A 
ATOM      5  C   UNL     1      43.895   3.655  11.311  0.00  0.00    +0.000 A 
ATOM      6  C   UNL     1      45.089   3.798  12.023  0.00  0.00    +0.000 A 
ENDROOT
BRANCH   1   7
ATOM      7  C   UNL     1      46.702   5.203  13.455  0.00  0.00    +0.000 C 
ATOM      8  F   UNL     1      46.660   6.358  14.197  0.00  0.00    +0.000 F 
ATOM      9  F   UNL     1      47.705   5.412  12.546  0.00  0.00    +0.000 F 
BRANCH   7  10
ATOM     10  C   UNL     1      47.143   4.063  14.410  0.00  0.00    +0.000 C 
BRANCH  10  15
ATOM     11  C   UNL     1      49.546   5.574  18.490  0.00  0.00    +0.000 A 
ATOM     12  C   UNL     1      48.272   5.257  18.945  0.00  0.00    +0.000 A 
ATOM     13  C   UNL     1      47.318   4.788  18.038  0.00  0.00    +0.000 A 
ATOM     14  C   UNL     1      47.659   4.634  16.697  0.00  0.00    +0.000 A 
ATOM     15  N   UNL     1      46.663   4.234  15.797  0.00  0.00    +0.000 N 
ATOM     16  N   UNL     1      48.896   4.941  16.248  0.00  0.00    +0.000 NA
ATOM     17  C   UNL     1      49.808   5.398  17.141  0.00  0.00    +0.000 A 
ATOM     18  H   UNL     1      46.156   3.423  16.137  0.00  0.00    +0.000 HD
BRANCH  11  20
ATOM     19  N   UNL     1      51.370   6.497  20.077  0.00  0.00    +0.000 NA
ATOM     20  C   UNL     1      50.550   6.081  19.366  0.00  0.00    +0.000 C 
ENDBRANCH  11  20
ENDBRANCH  10  15
ENDBRANCH   7  10
ENDBRANCH   1   7
BRANCH   5  21
ATOM     21  O   UNL     1      43.804   2.478  10.617  0.00  0.00    +0.000 OA
BRANCH  21  22
ATOM     22  C   UNL     1      44.195   2.429   9.232  0.00  0.00    +0.000 C 
ATOM     23  C   UNL     1      45.553   1.776   8.895  0.00  0.00    +0.000 C 
ATOM     24  N   UNL     1      45.827   2.946   8.088  0.00  0.00    +0.000 N 
ATOM     25  C   UNL     1      46.603   3.223   6.994  0.00  0.00    +0.000 C 
ATOM     26  O   UNL     1      46.590   4.359   6.503  0.00  0.00    +0.000 OA
ATOM     27  C   UNL     1      44.787   3.752   8.695  0.00  0.00    +0.000 C 
BRANCH  25  28
ATOM     28  C   UNL     1      47.442   2.082   6.390  0.00  0.00    +0.000 C 
ATOM     29  F   UNL     1      46.769   0.905   6.249  0.00  0.00    +0.000 F 
ATOM     30  F   UNL     1      47.895   2.398   5.142  0.00  0.00    +0.000 F 
ATOM     31  F   UNL     1      48.544   1.793   7.137  0.00  0.00    +0.000 F 
ENDBRANCH  25  28
ENDBRANCH  21  22
ENDBRANCH   5  21
TORSDOF 7
ENDMDL
MODEL 4
REMARK VINA RESULT:    -7.380      3.826      9.110
REMARK INTER + INTRA:         -11.283
REMARK INTER:                 -10.385
REMARK INTRA:                  -0.898
REMARK UNBOUND:                -0.883
REMARK  Name = 
REMARK  7 active torsions:
REMARK  status: ('A' for Active; 'I' for Inactive)
REMARK    1  A    between atoms: C_2  and  C_3
REMARK    2  A    between atoms: N_7  and  C_8
REMARK    3  A    between atoms: C_8  and  C_9
REMARK    4  A    between atoms: C_9  and  C_12
REMARK    5  A    between atoms: C_16  and  O_17
REMARK    6  A    between atoms: O_17  and  C_18
REMARK    7  A    between atoms: C_21  and  C_23
REMARK                            x       y       z     vdW  Elec       q    Type
REMARK                         _______ _______ _______ _____ _____    ______ ____
ROOT
ATOM      1  C   UNL     1      47.060   7.686  12.745  0.00  0.00    +0.000 A 
ATOM      2  C   UNL     1      46.456   8.948  12.858  0.00  0.00    +0.000 A 
ATOM      3  C   UNL     1      45.213   9.203  12.271  0.00  0.00    +0.000 A 
ATOM      4  C   UNL     1      44.547   8.201  11.561  0.00  0.00    +0.000 A 
ATOM      5  C   UNL     1      45.123   6.939  11.458  0.00  0.00    +0.000 A 
ATOM      6  C   UNL     1      46.363   6.687  12.051  0.00  0.00    +0.000 A 
ENDROOT
BRANCH   1   7
ATOM      7  C   UNL     1      48.451   7.482  13.329  0.00  0.00    +0.000 C 
ATOM      8  F   UNL     1      49.352   8.351  12.765  0.00  0.00    +0.000 F 
ATOM      9  F   UNL     1      48.924   6.237  13.010  0.00  0.00    +0.000 F 
BRANCH   7  10
ATOM     10  C   UNL     1      48.548   7.659  14.867  0.00  0.00    +0.000 C 
BRANCH  10  15
ATOM     11  C   UNL     1      51.030   4.447  17.735  0.00  0.00    +0.000 A 
ATOM     12  C   UNL     1      49.727   3.962  17.731  0.00  0.00    +0.000 A 
ATOM     13  C   UNL     1      48.746   4.641  17.005  0.00  0.00    +0.000 A 
ATOM     14  C   UNL     1      49.087   5.784  16.288  0.00  0.00    +0.000 A 
ATOM     15  N   UNL     1      48.070   6.487  15.629  0.00  0.00    +0.000 N 
ATOM     16  N   UNL     1      50.352   6.261  16.287  0.00  0.00    +0.000 NA
ATOM     17  C   UNL     1      51.291   5.591  16.999  0.00  0.00    +0.000 A 
ATOM     18  H   UNL     1      47.489   5.869  15.072  0.00  0.00    +0.000 HD
BRANCH  11  20
ATOM     19  N   UNL     1      52.912   3.290  19.082  0.00  0.00    +0.000 NA
ATOM     20  C   UNL     1      52.065   3.808  18.479  0.00  0.00    +0.000 C 
ENDBRANCH  11  20
ENDBRANCH  10  15
ENDBRANCH   7  10
ENDBRANCH   1   7
BRANCH   5  21
ATOM     21  O   UNL     1      44.613   5.872  10.768  0.00  0.00    +0.000 OA
BRANCH  21  22
ATOM     22  C   UNL     1      45.494   4.830  10.306  0.00  0.00    +0.000 C 
ATOM     23  C   UNL     1      45.719   4.707   8.783  0.00  0.00    +0.000 C 
ATOM     24  N   UNL     1      45.453   3.293   8.937  0.00  0.00    +0.000 N 
ATOM     25  C   UNL     1      45.801   2.151   8.265  0.00  0.00    +0.000 C 
ATOM     26  O   UNL     1      45.425   1.051   8.689  0.00  0.00    +0.000 OA
ATOM     27  C   UNL     1      44.840   3.431  10.243  0.00  0.00    +0.000 C 
BRANCH  25  28
ATOM     28  C   UNL     1      46.688   2.285   7.014  0.00  0.00    +0.000 C 
ATOM     29  F   UNL     1      47.909   2.842   7.250  0.00  0.00    +0.000 F 
ATOM     30  F   UNL     1      46.940   1.071   6.445  0.00  0.00    +0.000 F 
ATOM     31  F   UNL     1      46.112   3.050   6.045  0.00  0.00    +0.000 F 
ENDBRANCH  25  28
ENDBRANCH  21  22
ENDBRANCH   5  21
TORSDOF 7
ENDMDL
MODEL 5
REMARK VINA RESULT:    -7.376      1.958      2.392
REMARK INTER + INTRA:         -11.278
REMARK INTER:                 -10.941
REMARK INTRA:                  -0.337
REMARK UNBOUND:                -0.883
REMARK  Name = 
REMARK  7 active torsions:
REMARK  status: ('A' for Active; 'I' for Inactive)
REMARK    1  A    between atoms: C_2  and  C_3
REMARK    2  A    between atoms: N_7  and  C_8
REMARK    3  A    between atoms: C_8  and  C_9
REMARK    4  A    between atoms: C_9  and  C_12
REMARK    5  A    between atoms: C_16  and  O_17
REMARK    6  A    between atoms: O_17  and  C_18
REMARK    7  A    between atoms: C_21  and  C_23
REMARK                            x       y       z     vdW  Elec       q    Type
REMARK                         _______ _______ _______ _____ _____    ______ ____
ROOT
ATOM      1  C   UNL     1      44.828   6.507  12.238  0.00  0.00    +0.000 A 
ATOM      2  C   UNL     1      44.530   7.590  11.394  0.00  0.00    +0.000 A 
ATOM      3  C   UNL     1      45.269   8.776  11.462  0.00  0.00    +0.000 A 
ATOM      4  C   UNL     1      46.320   8.902  12.373  0.00  0.00    +0.000 A 
ATOM      5  C   UNL     1      46.640   7.832  13.201  0.00  0.00    +0.000 A 
ATOM      6  C   UNL     1      45.904   6.647  13.126  0.00  0.00    +0.000 A 
ENDROOT
BRANCH   1   7
ATOM      7  C   UNL     1      43.944   5.269  12.184  0.00  0.00    +0.000 C 
ATOM      8  F   UNL     1      42.772   5.474  12.871  0.00  0.00    +0.000 F 
ATOM      9  F   UNL     1      44.547   4.225  12.833  0.00  0.00    +0.000 F 
BRANCH   7  10
ATOM     10  C   UNL     1      43.560   4.799  10.757  0.00  0.00    +0.000 C 
BRANCH  10  15
ATOM     11  C   UNL     1      46.535   2.384   7.592  0.00  0.00    +0.000 A 
ATOM     12  C   UNL     1      45.822   1.373   8.227  0.00  0.00    +0.000 A 
ATOM     13  C   UNL     1      44.877   1.708   9.198  0.00  0.00    +0.000 A 
ATOM     14  C   UNL     1      44.652   3.046   9.509  0.00  0.00    +0.000 A 
ATOM     15  N   UNL     1      43.753   3.351  10.539  0.00  0.00    +0.000 N 
ATOM     16  N   UNL     1      45.341   4.034   8.896  0.00  0.00    +0.000 NA
ATOM     17  C   UNL     1      46.258   3.691   7.958  0.00  0.00    +0.000 A 
ATOM     18  H   UNL     1      42.875   2.852  10.428  0.00  0.00    +0.000 HD
BRANCH  11  20
ATOM     19  N   UNL     1      48.342   1.860   5.815  0.00  0.00    +0.000 NA
ATOM     20  C   UNL     1      47.530   2.098   6.612  0.00  0.00    +0.000 C 
ENDBRANCH  11  20
ENDBRANCH  10  15
ENDBRANCH   7  10
ENDBRANCH   1   7
BRANCH   5  21
ATOM     21  O   UNL     1      47.613   7.818  14.165  0.00  0.00    +0.000 OA
BRANCH  21  22
ATOM     22  C   UNL     1      48.286   6.586  14.487  0.00  0.00    +0.000 C 
ATOM     23  C   UNL     1      47.516   5.554  15.341  0.00  0.00    +0.000 C 
ATOM     24  N   UNL     1      48.702   5.469  16.165  0.00  0.00    +0.000 N 
ATOM     25  C   UNL     1      49.263   4.523  16.982  0.00  0.00    +0.000 C 
ATOM     26  O   UNL     1      50.343   4.756  17.540  0.00  0.00    +0.000 OA
ATOM     27  C   UNL     1      49.283   6.698  15.663  0.00  0.00    +0.000 C 
BRANCH  25  28
ATOM     28  C   UNL     1      48.534   3.177  17.144  0.00  0.00    +0.000 C 
ATOM     29  F   UNL     1      48.384   2.478  15.984  0.00  0.00    +0.000 F 
ATOM     30  F   UNL     1      49.200   2.343  17.993  0.00  0.00    +0.000 F 
ATOM     31  F   UNL     1      47.279   3.322  17.655  0.00  0.00    +0.000 F 
ENDBRANCH  25  28
ENDBRANCH  21  22
ENDBRANCH   5  21
TORSDOF 7
ENDMDL
MODEL 6
REMARK VINA RESULT:    -7.352      4.101      5.388
REMARK INTER + INTRA:         -11.244
REMARK INTER:                 -10.511
REMARK INTRA:                  -0.732
REMARK UNBOUND:                -0.883
REMARK  Name = 
REMARK  7 active torsions:
REMARK  status: ('A' for Active; 'I' for Inactive)
REMARK    1  A    between atoms: C_2  and  C_3
REMARK    2  A    between atoms: N_7  and  C_8
REMARK    3  A    between atoms: C_8  and  C_9
REMARK    4  A    between atoms: C_9  and  C_12
REMARK    5  A    between atoms: C_16  and  O_17
REMARK    6  A    between atoms: O_17  and  C_18
REMARK    7  A    between atoms: C_21  and  C_23
REMARK                            x       y       z     vdW  Elec       q    Type
REMARK                         _______ _______ _______ _____ _____    ______ ____
ROOT
ATOM      1  C   UNL     1      44.764   5.666  12.386  0.00  0.00    +0.000 A 
ATOM      2  C   UNL     1      45.249   4.642  13.215  0.00  0.00    +0.000 A 
ATOM      3  C   UNL     1      46.466   4.782  13.889  0.00  0.00    +0.000 A 
ATOM      4  C   UNL     1      47.222   5.949  13.750  0.00  0.00    +0.000 A 
ATOM      5  C   UNL     1      46.745   6.980  12.949  0.00  0.00    +0.000 A 
ATOM      6  C   UNL     1      45.525   6.839  12.282  0.00  0.00    +0.000 A 
ENDROOT
BRANCH   1   7
ATOM      7  C   UNL     1      43.476   5.434  11.609  0.00  0.00    +0.000 C 
ATOM      8  F   UNL     1      42.757   6.599  11.492  0.00  0.00    +0.000 F 
ATOM      9  F   UNL     1      42.651   4.585  12.297  0.00  0.00    +0.000 F 
BRANCH   7  10
ATOM     10  C   UNL     1      43.667   4.871  10.177  0.00  0.00    +0.000 C 
BRANCH  10  15
ATOM     11  C   UNL     1      46.780   2.413   7.181  0.00  0.00    +0.000 A 
ATOM     12  C   UNL     1      46.241   1.424   7.995  0.00  0.00    +0.000 A 
ATOM     13  C   UNL     1      45.307   1.776   8.973  0.00  0.00    +0.000 A 
ATOM     14  C   UNL     1      44.922   3.106   9.111  0.00  0.00    +0.000 A 
ATOM     15  N   UNL     1      44.041   3.442  10.147  0.00  0.00    +0.000 N 
ATOM     16  N   UNL     1      45.442   4.073   8.323  0.00  0.00    +0.000 NA
ATOM     17  C   UNL     1      46.349   3.714   7.381  0.00  0.00    +0.000 A 
ATOM     18  H   UNL     1      43.234   2.827  10.165  0.00  0.00    +0.000 HD
BRANCH  11  20
ATOM     19  N   UNL     1      48.554   1.874   5.375  0.00  0.00    +0.000 NA
ATOM     20  C   UNL     1      47.756   2.115   6.185  0.00  0.00    +0.000 C 
ENDBRANCH  11  20
ENDBRANCH  10  15
ENDBRANCH   7  10
ENDBRANCH   1   7
BRANCH   5  21
ATOM     21  O   UNL     1      47.386   8.161  12.686  0.00  0.00    +0.000 OA
BRANCH  21  22
ATOM     22  C   UNL     1      48.825   8.217  12.710  0.00  0.00    +0.000 C 
ATOM     23  C   UNL     1      49.503   9.457  12.086  0.00  0.00    +0.000 C 
ATOM     24  N   UNL     1      50.363   8.532  11.378  0.00  0.00    +0.000 N 
ATOM     25  C   UNL     1      51.625   8.576  10.848  0.00  0.00    +0.000 C 
ATOM     26  O   UNL     1      52.104   7.567  10.317  0.00  0.00    +0.000 OA
ATOM     27  C   UNL     1      49.510   7.383  11.604  0.00  0.00    +0.000 C 
BRANCH  25  28
ATOM     28  C   UNL     1      52.420   9.889  10.972  0.00  0.00    +0.000 C 
ATOM     29  F   UNL     1      53.666   9.844  10.419  0.00  0.00    +0.000 F 
ATOM     30  F   UNL     1      51.780  10.924  10.354  0.00  0.00    +0.000 F 
ATOM     31  F   UNL     1      52.602  10.269  12.267  0.00  0.00    +0.000 F 
ENDBRANCH  25  28
ENDBRANCH  21  22
ENDBRANCH   5  21
TORSDOF 7
ENDMDL
MODEL 7
REMARK VINA RESULT:    -7.336      3.715      8.516
REMARK INTER + INTRA:         -11.220
REMARK INTER:                 -10.576
REMARK INTRA:                  -0.644
REMARK UNBOUND:                -0.883
REMARK  Name = 
REMARK  7 active torsions:
REMARK  status: ('A' for Active; 'I' for Inactive)
REMARK    1  A    between atoms: C_2  and  C_3
REMARK    2  A    between atoms: N_7  and  C_8
REMARK    3  A    between atoms: C_8  and  C_9
REMARK    4  A    between atoms: C_9  and  C_12
REMARK    5  A    between atoms: C_16  and  O_17
REMARK    6  A    between atoms: O_17  and  C_18
REMARK    7  A    between atoms: C_21  and  C_23
REMARK                            x       y       z     vdW  Elec       q    Type
REMARK                         _______ _______ _______ _____ _____    ______ ____
ROOT
ATOM      1  C   UNL     1      46.616   8.856  12.243  0.00  0.00    +0.000 A 
ATOM      2  C   UNL     1      45.868   9.955  11.792  0.00  0.00    +0.000 A 
ATOM      3  C   UNL     1      44.592   9.778  11.245  0.00  0.00    +0.000 A 
ATOM      4  C   UNL     1      44.040   8.500  11.140  0.00  0.00    +0.000 A 
ATOM      5  C   UNL     1      44.760   7.404  11.602  0.00  0.00    +0.000 A 
ATOM      6  C   UNL     1      46.031   7.585  12.152  0.00  0.00    +0.000 A 
ENDROOT
BRANCH   1   7
ATOM      7  C   UNL     1      48.031   9.090  12.753  0.00  0.00    +0.000 C 
ATOM      8  F   UNL     1      48.014   9.681  13.992  0.00  0.00    +0.000 F 
ATOM      9  F   UNL     1      48.684   9.988  11.951  0.00  0.00    +0.000 F 
BRANCH   7  10
ATOM     10  C   UNL     1      48.906   7.815  12.867  0.00  0.00    +0.000 C 
BRANCH  10  15
ATOM     11  C   UNL     1      47.787   4.559  16.452  0.00  0.00    +0.000 A 
ATOM     12  C   UNL     1      48.784   5.350  17.011  0.00  0.00    +0.000 A 
ATOM     13  C   UNL     1      49.337   6.388  16.258  0.00  0.00    +0.000 A 
ATOM     14  C   UNL     1      48.876   6.624  14.966  0.00  0.00    +0.000 A 
ATOM     15  N   UNL     1      49.499   7.622  14.206  0.00  0.00    +0.000 N 
ATOM     16  N   UNL     1      47.908   5.859  14.415  0.00  0.00    +0.000 NA
ATOM     17  C   UNL     1      47.384   4.854  15.160  0.00  0.00    +0.000 A 
ATOM     18  H   UNL     1      49.581   8.491  14.726  0.00  0.00    +0.000 HD
BRANCH  11  20
ATOM     19  N   UNL     1      46.734   2.584  17.751  0.00  0.00    +0.000 NA
ATOM     20  C   UNL     1      47.205   3.470  17.166  0.00  0.00    +0.000 C 
ENDBRANCH  11  20
ENDBRANCH  10  15
ENDBRANCH   7  10
ENDBRANCH   1   7
BRANCH   5  21
ATOM     21  O   UNL     1      44.369   6.093  11.532  0.00  0.00    +0.000 OA
BRANCH  21  22
ATOM     22  C   UNL     1      45.251   5.111  10.956  0.00  0.00    +0.000 C 
ATOM     23  C   UNL     1      45.545   5.215   9.443  0.00  0.00    +0.000 C 
ATOM     24  N   UNL     1      45.247   3.801   9.368  0.00  0.00    +0.000 N 
ATOM     25  C   UNL     1      45.605   2.765   8.546  0.00  0.00    +0.000 C 
ATOM     26  O   UNL     1      45.190   1.623   8.780  0.00  0.00    +0.000 OA
ATOM     27  C   UNL     1      44.576   3.754  10.652  0.00  0.00    +0.000 C 
BRANCH  25  28
ATOM     28  C   UNL     1      46.552   3.065   7.369  0.00  0.00    +0.000 C 
ATOM     29  F   UNL     1      45.960   2.999   6.143  0.00  0.00    +0.000 F 
ATOM     30  F   UNL     1      47.080   4.320   7.457  0.00  0.00    +0.000 F 
ATOM     31  F   UNL     1      47.609   2.207   7.319  0.00  0.00    +0.000 F 
ENDBRANCH  25  28
ENDBRANCH  21  22
ENDBRANCH   5  21
TORSDOF 7
ENDMDL
MODEL 8
REMARK VINA RESULT:    -6.967      3.195      3.777
REMARK INTER + INTRA:         -10.701
REMARK INTER:                 -10.328
REMARK INTRA:                  -0.373
REMARK UNBOUND:                -0.883
REMARK  Name = 
REMARK  7 active torsions:
REMARK  status: ('A' for Active; 'I' for Inactive)
REMARK    1  A    between atoms: C_2  and  C_3
REMARK    2  A    between atoms: N_7  and  C_8
REMARK    3  A    between atoms: C_8  and  C_9
REMARK    4  A    between atoms: C_9  and  C_12
REMARK    5  A    between atoms: C_16  and  O_17
REMARK    6  A    between atoms: O_17  and  C_18
REMARK    7  A    between atoms: C_21  and  C_23
REMARK                            x       y       z     vdW  Elec       q    Type
REMARK                         _______ _______ _______ _____ _____    ______ ____
ROOT
ATOM      1  C   UNL     1      44.980   5.184  12.648  0.00  0.00    +0.000 A 
ATOM      2  C   UNL     1      44.495   6.448  12.277  0.00  0.00    +0.000 A 
ATOM      3  C   UNL     1      45.261   7.599  12.485  0.00  0.00    +0.000 A 
ATOM      4  C   UNL     1      46.528   7.509  13.066  0.00  0.00    +0.000 A 
ATOM      5  C   UNL     1      47.031   6.262  13.420  0.00  0.00    +0.000 A 
ATOM      6  C   UNL     1      46.264   5.114  13.205  0.00  0.00    +0.000 A 
ENDROOT
BRANCH   1   7
ATOM      7  C   UNL     1      44.075   3.971  12.478  0.00  0.00    +0.000 C 
ATOM      8  F   UNL     1      43.028   4.012  13.366  0.00  0.00    +0.000 F 
ATOM      9  F   UNL     1      44.753   2.823  12.795  0.00  0.00    +0.000 F 
BRANCH   7  10
ATOM     10  C   UNL     1      43.466   3.801  11.063  0.00  0.00    +0.000 C 
BRANCH  10  15
ATOM     11  C   UNL     1      46.725   2.698   7.476  0.00  0.00    +0.000 A 
ATOM     12  C   UNL     1      46.558   4.074   7.371  0.00  0.00    +0.000 A 
ATOM     13  C   UNL     1      45.690   4.726   8.248  0.00  0.00    +0.000 A 
ATOM     14  C   UNL     1      45.015   3.995   9.222  0.00  0.00    +0.000 A 
ATOM     15  N   UNL     1      44.094   4.662  10.040  0.00  0.00    +0.000 N 
ATOM     16  N   UNL     1      45.172   2.657   9.330  0.00  0.00    +0.000 NA
ATOM     17  C   UNL     1      46.017   2.039   8.468  0.00  0.00    +0.000 A 
ATOM     18  H   UNL     1      44.490   5.510  10.434  0.00  0.00    +0.000 HD
BRANCH  11  20
ATOM     19  N   UNL     1      48.278   1.389   5.872  0.00  0.00    +0.000 NA
ATOM     20  C   UNL     1      47.579   1.977   6.590  0.00  0.00    +0.000 C 
ENDBRANCH  11  20
ENDBRANCH  10  15
ENDBRANCH   7  10
ENDBRANCH   1   7
BRANCH   5  21
ATOM     21  O   UNL     1      48.233   6.018  14.029  0.00  0.00    +0.000 OA
BRANCH  21  22
ATOM     22  C   UNL     1      48.903   7.075  14.743  0.00  0.00    +0.000 C 
ATOM     23  C   UNL     1      50.149   7.706  14.082  0.00  0.00    +0.000 C 
ATOM     24  N   UNL     1      50.814   7.530  15.355  0.00  0.00    +0.000 N 
ATOM     25  C   UNL     1      51.851   8.140  16.012  0.00  0.00    +0.000 C 
ATOM     26  O   UNL     1      52.167   7.760  17.147  0.00  0.00    +0.000 OA
ATOM     27  C   UNL     1      49.843   6.584  15.866  0.00  0.00    +0.000 C 
BRANCH  25  28
ATOM     28  C   UNL     1      52.565   9.312  15.314  0.00  0.00    +0.000 C 
ATOM     29  F   UNL     1      53.016   9.026  14.060  0.00  0.00    +0.000 F 
ATOM     30  F   UNL     1      51.741  10.390  15.173  0.00  0.00    +0.000 F 
ATOM     31  F   UNL     1      53.652   9.748  16.009  0.00  0.00    +0.000 F 
ENDBRANCH  25  28
ENDBRANCH  21  22
ENDBRANCH   5  21
TORSDOF 7
ENDMDL
MODEL 9
REMARK VINA RESULT:    -6.910      3.579      8.246
REMARK INTER + INTRA:         -10.621
REMARK INTER:                  -9.491
REMARK INTRA:                  -1.130
REMARK UNBOUND:                -0.883
REMARK  Name = 
REMARK  7 active torsions:
REMARK  status: ('A' for Active; 'I' for Inactive)
REMARK    1  A    between atoms: C_2  and  C_3
REMARK    2  A    between atoms: N_7  and  C_8
REMARK    3  A    between atoms: C_8  and  C_9
REMARK    4  A    between atoms: C_9  and  C_12
REMARK    5  A    between atoms: C_16  and  O_17
REMARK    6  A    between atoms: O_17  and  C_18
REMARK    7  A    between atoms: C_21  and  C_23
REMARK                            x       y       z     vdW  Elec       q    Type
REMARK                         _______ _______ _______ _____ _____    ______ ____
ROOT
ATOM      1  C   UNL     1      48.906   8.706  15.353  0.00  0.00    +0.000 A 
ATOM      2  C   UNL     1      50.198   8.357  14.929  0.00  0.00    +0.000 A 
ATOM      3  C   UNL     1      50.420   7.866  13.638  0.00  0.00    +0.000 A 
ATOM      4  C   UNL     1      49.356   7.718  12.745  0.00  0.00    +0.000 A 
ATOM      5  C   UNL     1      48.074   8.080  13.143  0.00  0.00    +0.000 A 
ATOM      6  C   UNL     1      47.857   8.575  14.432  0.00  0.00    +0.000 A 
ENDROOT
BRANCH   1   7
ATOM      7  C   UNL     1      48.702   9.156  16.793  0.00  0.00    +0.000 C 
ATOM      8  F   UNL     1      47.471   9.744  16.953  0.00  0.00    +0.000 F 
ATOM      9  F   UNL     1      49.600  10.138  17.117  0.00  0.00    +0.000 F 
BRANCH   7  10
ATOM     10  C   UNL     1      48.810   8.029  17.853  0.00  0.00    +0.000 C 
BRANCH  10  15
ATOM     11  C   UNL     1      49.944   3.221  17.310  0.00  0.00    +0.000 A 
ATOM     12  C   UNL     1      48.578   3.277  17.063  0.00  0.00    +0.000 A 
ATOM     13  C   UNL     1      47.920   4.507  17.133  0.00  0.00    +0.000 A 
ATOM     14  C   UNL     1      48.641   5.658  17.435  0.00  0.00    +0.000 A 
ATOM     15  N   UNL     1      47.944   6.866  17.572  0.00  0.00    +0.000 N 
ATOM     16  N   UNL     1      49.970   5.612  17.677  0.00  0.00    +0.000 NA
ATOM     17  C   UNL     1      50.592   4.409  17.608  0.00  0.00    +0.000 A 
ATOM     18  H   UNL     1      47.317   7.026  16.789  0.00  0.00    +0.000 HD
BRANCH  11  20
ATOM     19  N   UNL     1      51.245   0.984  17.248  0.00  0.00    +0.000 NA
ATOM     20  C   UNL     1      50.662   1.989  17.279  0.00  0.00    +0.000 C 
ENDBRANCH  11  20
ENDBRANCH  10  15
ENDBRANCH   7  10
ENDBRANCH   1   7
BRANCH   5  21
ATOM     21  O   UNL     1      46.932   7.957  12.398  0.00  0.00    +0.000 OA
BRANCH  21  22
ATOM     22  C   UNL     1      46.580   6.681  11.829  0.00  0.00    +0.000 C 
ATOM     23  C   UNL     1      45.080   6.381  11.619  0.00  0.00    +0.000 C 
ATOM     24  N   UNL     1      45.325   5.109  12.265  0.00  0.00    +0.000 N 
ATOM     25  C   UNL     1      44.751   3.866  12.232  0.00  0.00    +0.000 C 
ATOM     26  O   UNL     1      45.238   2.947  12.902  0.00  0.00    +0.000 OA
ATOM     27  C   UNL     1      46.593   5.512  12.840  0.00  0.00    +0.000 C 
BRANCH  25  28
ATOM     28  C   UNL     1      43.529   3.653  11.320  0.00  0.00    +0.000 C 
ATOM     29  F   UNL     1      43.783   3.830   9.992  0.00  0.00    +0.000 F 
ATOM     30  F   UNL     1      43.031   2.388  11.434  0.00  0.00    +0.000 F 
ATOM     31  F   UNL     1      42.503   4.497  11.618  0.00  0.00    +0.000 F 
ENDBRANCH  25  28
ENDBRANCH  21  22
ENDBRANCH   5  21
TORSDOF 7
ENDMDL
