MODEL 1
REMARK VINA RESULT:    -7.034      0.000      0.000
REMARK INTER + INTRA:          -8.830
REMARK INTER:                  -8.267
REMARK INTRA:                  -0.563
REMARK UNBOUND:                -0.563
REMARK  Name = 
REMARK  3 active torsions:
REMARK  status: ('A' for Active; 'I' for Inactive)
REMARK    1  A    between atoms: C_2  and  C_3
REMARK    2  A    between atoms: C_5  and  C_6
REMARK    3  A    between atoms: C_6  and  N_7
REMARK                            x       y       z     vdW  Elec       q    Type
REMARK                         _______ _______ _______ _____ _____    ______ ____
ROOT
ATOM      1  C   UNL     1      44.141   4.333   9.220  0.00  0.00    +0.000 C 
ENDROOT
BRANCH   1   2
ATOM      2  N   UNL     1      44.249   4.081  10.651  0.00  0.00    +0.000 N 
ATOM      3  C   UNL     1      43.471   3.178  11.339  0.00  0.00    +0.000 A 
ATOM      4  C   UNL     1      43.864   3.198  12.660  0.00  0.00    +0.000 A 
ATOM      5  C   UNL     1      44.895   4.157  12.780  0.00  0.00    +0.000 A 
ATOM      6  N   UNL     1      45.594   4.513  13.885  0.00  0.00    +0.000 NA
ATOM      7  C   UNL     1      46.521   5.471  13.684  0.00  0.00    +0.000 A 
ATOM      8  C   UNL     1      46.772   6.110  12.479  0.00  0.00    +0.000 A 
ATOM      9  C   UNL     1      46.038   5.751  11.352  0.00  0.00    +0.000 A 
ATOM     10  C   UNL     1      45.099   4.730  11.523  0.00  0.00    +0.000 A 
ENDBRANCH   1   2
BRANCH   1  13
ATOM     11  C   UNL     1      46.499   1.768   7.693  0.00  0.00    +0.000 A 
ATOM     12  C   UNL     1      45.414   2.303   8.383  0.00  0.00    +0.000 A 
ATOM     13  C   UNL     1      45.266   3.695   8.440  0.00  0.00    +0.000 A 
ATOM     14  C   UNL     1      46.203   4.485   7.764  0.00  0.00    +0.000 A 
ATOM     15  C   UNL     1      47.246   3.862   7.096  0.00  0.00    +0.000 A 
ATOM     16  N   UNL     1      47.420   2.525   7.053  0.00  0.00    +0.000 NA
BRANCH  11  18
ATOM     17  N   UNL     1      46.839  -0.811   7.627  0.00  0.00    +0.000 NA
ATOM     18  C   UNL     1      46.716   0.343   7.661  0.00  0.00    +0.000 C 
ENDBRANCH  11  18
ENDBRANCH   1  13
TORSDOF 3
ENDMDL
MODEL 2
REMARK VINA RESULT:    -6.733      1.265      1.610
REMARK INTER + INTRA:          -8.477
REMARK INTER:                  -7.951
REMARK INTRA:                  -0.526
REMARK UNBOUND:                -0.563
REMARK  Name = 
REMARK  3 active torsions:
REMARK  status: ('A' for Active; 'I' for Inactive)
REMARK    1  A    between atoms: C_2  and  C_3
REMARK    2  A    between atoms: C_5  and  C_6
REMARK    3  A    between atoms: C_6  and  N_7
REMARK                            x       y       z     vdW  Elec       q    Type
REMARK                         _______ _______ _______ _____ _____    ______ ____
ROOT
ATOM      1  C   UNL     1      44.237   3.910  10.451  0.00  0.00    +0.000 C 
ENDROOT
BRANCH   1   2
ATOM      2  N   UNL     1      45.027   4.374  11.584  0.00  0.00    +0.000 N 
ATOM      3  C   UNL     1      45.582   3.546  12.533  0.00  0.00    +0.000 A 
ATOM      4  C   UNL     1      46.268   4.331  13.433  0.00  0.00    +0.000 A 
ATOM      5  C   UNL     1      46.107   5.676  13.031  0.00  0.00    +0.000 A 
ATOM      6  N   UNL     1      46.611   6.795  13.604  0.00  0.00    +0.000 NA
ATOM      7  C   UNL     1      46.276   7.947  12.988  0.00  0.00    +0.000 A 
ATOM      8  C   UNL     1      45.458   8.056  11.873  0.00  0.00    +0.000 A 
ATOM      9  C   UNL     1      44.930   6.903  11.300  0.00  0.00    +0.000 A 
ATOM     10  C   UNL     1      45.296   5.691  11.895  0.00  0.00    +0.000 A 
ENDBRANCH   1   2
BRANCH   1  13
ATOM     11  C   UNL     1      46.223   1.793   7.993  0.00  0.00    +0.000 A 
ATOM     12  C   UNL     1      45.380   2.131   9.048  0.00  0.00    +0.000 A 
ATOM     13  C   UNL     1      45.099   3.482   9.288  0.00  0.00    +0.000 A 
ATOM     14  C   UNL     1      45.656   4.433   8.424  0.00  0.00    +0.000 A 
ATOM     15  C   UNL     1      46.478   4.002   7.395  0.00  0.00    +0.000 A 
ATOM     16  N   UNL     1      46.781   2.707   7.165  0.00  0.00    +0.000 NA
BRANCH  11  18
ATOM     17  N   UNL     1      46.836  -0.704   7.596  0.00  0.00    +0.000 NA
ATOM     18  C   UNL     1      46.580   0.418   7.750  0.00  0.00    +0.000 C 
ENDBRANCH  11  18
ENDBRANCH   1  13
TORSDOF 3
ENDMDL
MODEL 3
REMARK VINA RESULT:    -6.630      1.367      5.756
REMARK INTER + INTRA:          -8.356
REMARK INTER:                  -7.848
REMARK INTRA:                  -0.508
REMARK UNBOUND:                -0.563
REMARK  Name = 
REMARK  3 active torsions:
REMARK  status: ('A' for Active; 'I' for Inactive)
REMARK    1  A    between atoms: C_2  and  C_3
REMARK    2  A    between atoms: C_5  and  C_6
REMARK    3  A    between atoms: C_6  and  N_7
REMARK                            x       y       z     vdW  Elec       q    Type
REMARK                         _______ _______ _______ _____ _____    ______ ____
ROOT
ATOM      1  C   UNL     1      44.243   4.498   9.110  0.00  0.00    +0.000 C 
ENDROOT
BRANCH   1   2
ATOM      2  N   UNL     1      44.850   3.212   8.792  0.00  0.00    +0.000 N 
ATOM      3  C   UNL     1      44.418   2.006   9.294  0.00  0.00    +0.000 A 
ATOM      4  C   UNL     1      45.215   1.015   8.763  0.00  0.00    +0.000 A 
ATOM      5  C   UNL     1      46.171   1.640   7.932  0.00  0.00    +0.000 A 
ATOM      6  N   UNL     1      47.153   1.067   7.194  0.00  0.00    +0.000 NA
ATOM      7  C   UNL     1      47.918   1.934   6.500  0.00  0.00    +0.000 A 
ATOM      8  C   UNL     1      47.791   3.315   6.518  0.00  0.00    +0.000 A 
ATOM      9  C   UNL     1      46.791   3.897   7.293  0.00  0.00    +0.000 A 
ATOM     10  C   UNL     1      45.956   3.018   7.989  0.00  0.00    +0.000 A 
ENDBRANCH   1   2
BRANCH   1  13
ATOM     11  C   UNL     1      45.319   5.062  12.715  0.00  0.00    +0.000 A 
ATOM     12  C   UNL     1      45.400   4.866  11.339  0.00  0.00    +0.000 A 
ATOM     13  C   UNL     1      44.217   4.766  10.597  0.00  0.00    +0.000 A 
ATOM     14  C   UNL     1      43.000   4.905  11.275  0.00  0.00    +0.000 A 
ATOM     15  C   UNL     1      43.018   5.106  12.646  0.00  0.00    +0.000 A 
ATOM     16  N   UNL     1      44.147   5.179  13.382  0.00  0.00    +0.000 NA
BRANCH  11  18
ATOM     17  N   UNL     1      47.476   5.102  14.170  0.00  0.00    +0.000 NA
ATOM     18  C   UNL     1      46.513   5.114  13.520  0.00  0.00    +0.000 C 
ENDBRANCH  11  18
ENDBRANCH   1  13
TORSDOF 3
ENDMDL
MODEL 4
REMARK VINA RESULT:    -6.322      1.925      5.698
REMARK INTER + INTRA:          -7.994
REMARK INTER:                  -7.600
REMARK INTRA:                  -0.394
REMARK UNBOUND:                -0.563
REMARK  Name = 
REMARK  3 active torsions:
REMARK  status: ('A' for Active; 'I' for Inactive)
REMARK    1  A    between atoms: C_2  and  C_3
REMARK    2  A    between atoms: C_5  and  C_6
REMARK    3  A    between atoms: C_6  and  N_7
REMARK                            x       y       z     vdW  Elec       q    Type
REMARK                         _______ _______ _______ _____ _____    ______ ____
ROOT
ATOM      1  C   UNL     1      44.607   5.979  12.243  0.00  0.00    +0.000 C 
ENDROOT
BRANCH   1   2
ATOM      2  N   UNL     1      44.328   4.716  11.571  0.00  0.00    +0.000 N 
ATOM      3  C   UNL     1      43.572   3.701  12.112  0.00  0.00    +0.000 A 
ATOM      4  C   UNL     1      43.511   2.679  11.190  0.00  0.00    +0.000 A 
ATOM      5  C   UNL     1      44.269   3.077  10.066  0.00  0.00    +0.000 A 
ATOM      6  N   UNL     1      44.485   2.403   8.911  0.00  0.00    +0.000 NA
ATOM      7  C   UNL     1      45.264   3.046   8.017  0.00  0.00    +0.000 A 
ATOM      8  C   UNL     1      45.858   4.284   8.209  0.00  0.00    +0.000 A 
ATOM      9  C   UNL     1      45.645   4.963   9.406  0.00  0.00    +0.000 A 
ATOM     10  C   UNL     1      44.807   4.337  10.333  0.00  0.00    +0.000 A 
ENDBRANCH   1   2
BRANCH   1  13
ATOM     11  C   UNL     1      47.218   4.914  14.796  0.00  0.00    +0.000 A 
ATOM     12  C   UNL     1      46.065   4.895  14.015  0.00  0.00    +0.000 A 
ATOM     13  C   UNL     1      45.864   5.917  13.078  0.00  0.00    +0.000 A 
ATOM     14  C   UNL     1      46.856   6.895  12.947  0.00  0.00    +0.000 A 
ATOM     15  C   UNL     1      47.974   6.828  13.764  0.00  0.00    +0.000 A 
ATOM     16  N   UNL     1      48.173   5.866  14.689  0.00  0.00    +0.000 NA
BRANCH  11  18
ATOM     17  N   UNL     1      47.553   3.101  16.632  0.00  0.00    +0.000 NA
ATOM     18  C   UNL     1      47.433   3.912  15.810  0.00  0.00    +0.000 C 
ENDBRANCH  11  18
ENDBRANCH   1  13
TORSDOF 3
ENDMDL
MODEL 5
REMARK VINA RESULT:    -6.116      1.822      3.240
REMARK INTER + INTRA:          -7.752
REMARK INTER:                  -7.240
REMARK INTRA:                  -0.512
REMARK UNBOUND:                -0.563
REMARK  Name = 
REMARK  3 active torsions:
REMARK  status: ('A' for Active; 'I' for Inactive)
REMARK    1  A    between atoms: C_2  and  C_3
REMARK    2  A    between atoms: C_5  and  C_6
REMARK    3  A    between atoms: C_6  and  N_7
REMARK                            x       y       z     vdW  Elec       q    Type
REMARK                         _______ _______ _______ _____ _____    ______ ____
ROOT
ATOM      1  C   UNL     1      44.650   5.593  11.482  0.00  0.00    +0.000 C 
ENDROOT
BRANCH   1   2
ATOM      2  N   UNL     1      45.699   5.542  12.491  0.00  0.00    +0.000 N 
ATOM      3  C   UNL     1      45.643   4.769  13.629  0.00  0.00    +0.000 A 
ATOM      4  C   UNL     1      46.811   4.963  14.333  0.00  0.00    +0.000 A 
ATOM      5  C   UNL     1      47.590   5.897  13.613  0.00  0.00    +0.000 A 
ATOM      6  N   UNL     1      48.818   6.382  13.913  0.00  0.00    +0.000 NA
ATOM      7  C   UNL     1      49.306   7.274  13.027  0.00  0.00    +0.000 A 
ATOM      8  C   UNL     1      48.647   7.728  11.895  0.00  0.00    +0.000 A 
ATOM      9  C   UNL     1      47.378   7.237  11.602  0.00  0.00    +0.000 A 
ATOM     10  C   UNL     1      46.865   6.280  12.483  0.00  0.00    +0.000 A 
ENDBRANCH   1   2
BRANCH   1  13
ATOM     11  C   UNL     1      45.490   3.535   8.394  0.00  0.00    +0.000 A 
ATOM     12  C   UNL     1      45.470   4.596   9.296  0.00  0.00    +0.000 A 
ATOM     13  C   UNL     1      44.753   4.457  10.492  0.00  0.00    +0.000 A 
ATOM     14  C   UNL     1      44.115   3.236  10.738  0.00  0.00    +0.000 A 
ATOM     15  C   UNL     1      44.196   2.233   9.784  0.00  0.00    +0.000 A 
ATOM     16  N   UNL     1      44.860   2.358   8.616  0.00  0.00    +0.000 NA
BRANCH  11  18
ATOM     17  N   UNL     1      46.687   3.805   6.100  0.00  0.00    +0.000 NA
ATOM     18  C   UNL     1      46.170   3.661   7.130  0.00  0.00    +0.000 C 
ENDBRANCH  11  18
ENDBRANCH   1  13
TORSDOF 3
ENDMDL
MODEL 6
REMARK VINA RESULT:    -6.030      2.209      5.686
REMARK INTER + INTRA:          -7.651
REMARK INTER:                  -7.123
REMARK INTRA:                  -0.528
REMARK UNBOUND:                -0.563
REMARK  Name = 
REMARK  3 active torsions:
REMARK  status: ('A' for Active; 'I' for Inactive)
REMARK    1  A    between atoms: C_2  and  C_3
REMARK    2  A    between atoms: C_5  and  C_6
REMARK    3  A    between atoms: C_6  and  N_7
REMARK                            x       y       z     vdW  Elec       q    Type
REMARK                         _______ _______ _______ _____ _____    ______ ____
ROOT
ATOM      1  C   UNL     1      44.567   6.127  12.092  0.00  0.00    +0.000 C 
ENDROOT
BRANCH   1   2
ATOM      2  N   UNL     1      44.278   4.805  11.551  0.00  0.00    +0.000 N 
ATOM      3  C   UNL     1      43.552   3.839  12.210  0.00  0.00    +0.000 A 
ATOM      4  C   UNL     1      43.470   2.735  11.390  0.00  0.00    +0.000 A 
ATOM      5  C   UNL     1      44.186   3.031  10.208  0.00  0.00    +0.000 A 
ATOM      6  N   UNL     1      44.369   2.254   9.114  0.00  0.00    +0.000 NA
ATOM      7  C   UNL     1      45.110   2.816   8.138  0.00  0.00    +0.000 A 
ATOM      8  C   UNL     1      45.697   4.071   8.193  0.00  0.00    +0.000 A 
ATOM      9  C   UNL     1      45.519   4.858   9.327  0.00  0.00    +0.000 A 
ATOM     10  C   UNL     1      44.719   4.315  10.338  0.00  0.00    +0.000 A 
ENDBRANCH   1   2
BRANCH   1  13
ATOM     11  C   UNL     1      48.231   7.062  12.511  0.00  0.00    +0.000 A 
ATOM     12  C   UNL     1      46.933   7.043  12.007  0.00  0.00    +0.000 A 
ATOM     13  C   UNL     1      45.975   6.231  12.628  0.00  0.00    +0.000 A 
ATOM     14  C   UNL     1      46.364   5.500  13.757  0.00  0.00    +0.000 A 
ATOM     15  C   UNL     1      47.678   5.589  14.192  0.00  0.00    +0.000 A 
ATOM     16  N   UNL     1      48.620   6.345  13.590  0.00  0.00    +0.000 NA
BRANCH  11  18
ATOM     17  N   UNL     1      50.085   8.501  11.387  0.00  0.00    +0.000 NA
ATOM     18  C   UNL     1      49.256   7.841  11.865  0.00  0.00    +0.000 C 
ENDBRANCH  11  18
ENDBRANCH   1  13
TORSDOF 3
ENDMDL
MODEL 7
REMARK VINA RESULT:    -5.831      1.870      3.384
REMARK INTER + INTRA:          -7.417
REMARK INTER:                  -6.894
REMARK INTRA:                  -0.522
REMARK UNBOUND:                -0.563
REMARK  Name = 
REMARK  3 active torsions:
REMARK  status: ('A' for Active; 'I' for Inactive)
REMARK    1  A    between atoms: C_2  and  C_3
REMARK    2  A    between atoms: C_5  and  C_6
REMARK    3  A    between atoms: C_6  and  N_7
REMARK                            x       y       z     vdW  Elec       q    Type
REMARK                         _______ _______ _______ _____ _____    ______ ____
ROOT
ATOM      1  C   UNL     1      44.855   5.894  11.030  0.00  0.00    +0.000 C 
ENDROOT
BRANCH   1   2
ATOM      2  N   UNL     1      46.093   6.182  11.741  0.00  0.00    +0.000 N 
ATOM      3  C   UNL     1      47.062   7.050  11.290  0.00  0.00    +0.000 A 
ATOM      4  C   UNL     1      48.073   7.081  12.225  0.00  0.00    +0.000 A 
ATOM      5  C   UNL     1      47.719   6.190  13.262  0.00  0.00    +0.000 A 
ATOM      6  N   UNL     1      48.400   5.900  14.397  0.00  0.00    +0.000 NA
ATOM      7  C   UNL     1      47.803   4.997  15.201  0.00  0.00    +0.000 A 
ATOM      8  C   UNL     1      46.605   4.350  14.936  0.00  0.00    +0.000 A 
ATOM      9  C   UNL     1      45.920   4.640  13.759  0.00  0.00    +0.000 A 
ATOM     10  C   UNL     1      46.496   5.605  12.928  0.00  0.00    +0.000 A 
ENDBRANCH   1   2
BRANCH   1  13
ATOM     11  C   UNL     1      45.610   3.411   8.249  0.00  0.00    +0.000 A 
ATOM     12  C   UNL     1      45.604   4.595   8.983  0.00  0.00    +0.000 A 
ATOM     13  C   UNL     1      44.942   4.624  10.217  0.00  0.00    +0.000 A 
ATOM     14  C   UNL     1      44.347   3.443  10.674  0.00  0.00    +0.000 A 
ATOM     15  C   UNL     1      44.411   2.310   9.877  0.00  0.00    +0.000 A 
ATOM     16  N   UNL     1      45.021   2.270   8.674  0.00  0.00    +0.000 NA
BRANCH  11  18
ATOM     17  N   UNL     1      46.756   3.269   5.917  0.00  0.00    +0.000 NA
ATOM     18  C   UNL     1      46.231   3.358   6.950  0.00  0.00    +0.000 C 
ENDBRANCH  11  18
ENDBRANCH   1  13
TORSDOF 3
ENDMDL
MODEL 8
REMARK VINA RESULT:    -5.727      2.359      4.521
REMARK INTER + INTRA:          -7.294
REMARK INTER:                  -6.895
REMARK INTRA:                  -0.400
REMARK UNBOUND:                -0.563
REMARK  Name = 
REMARK  3 active torsions:
REMARK  status: ('A' for Active; 'I' for Inactive)
REMARK    1  A    between atoms: C_2  and  C_3
REMARK    2  A    between atoms: C_5  and  C_6
REMARK    3  A    between atoms: C_6  and  N_7
REMARK                            x       y       z     vdW  Elec       q    Type
REMARK                         _______ _______ _______ _____ _____    ______ ____
ROOT
ATOM      1  C   UNL     1      44.610   5.891  13.105  0.00  0.00    +0.000 C 
ENDROOT
BRANCH   1   2
ATOM      2  N   UNL     1      45.949   6.460  13.023  0.00  0.00    +0.000 N 
ATOM      3  C   UNL     1      47.104   5.767  13.306  0.00  0.00    +0.000 A 
ATOM      4  C   UNL     1      48.170   6.616  13.104  0.00  0.00    +0.000 A 
ATOM      5  C   UNL     1      47.645   7.867  12.707  0.00  0.00    +0.000 A 
ATOM      6  N   UNL     1      48.314   9.002  12.390  0.00  0.00    +0.000 NA
ATOM      7  C   UNL     1      47.530  10.045  12.051  0.00  0.00    +0.000 A 
ATOM      8  C   UNL     1      46.143  10.041  12.039  0.00  0.00    +0.000 A 
ATOM      9  C   UNL     1      45.463   8.877  12.384  0.00  0.00    +0.000 A 
ATOM     10  C   UNL     1      46.253   7.767  12.698  0.00  0.00    +0.000 A 
ENDBRANCH   1   2
BRANCH   1  13
ATOM     11  C   UNL     1      44.689   3.814   9.919  0.00  0.00    +0.000 A 
ATOM     12  C   UNL     1      44.959   4.839  10.821  0.00  0.00    +0.000 A 
ATOM     13  C   UNL     1      44.397   4.781  12.103  0.00  0.00    +0.000 A 
ATOM     14  C   UNL     1      43.615   3.667  12.429  0.00  0.00    +0.000 A 
ATOM     15  C   UNL     1      43.407   2.691  11.467  0.00  0.00    +0.000 A 
ATOM     16  N   UNL     1      43.918   2.743  10.219  0.00  0.00    +0.000 NA
BRANCH  11  18
ATOM     17  N   UNL     1      45.602   3.962   7.487  0.00  0.00    +0.000 NA
ATOM     18  C   UNL     1      45.203   3.867   8.573  0.00  0.00    +0.000 C 
ENDBRANCH  11  18
ENDBRANCH   1  13
TORSDOF 3
ENDMDL
MODEL 9
REMARK VINA RESULT:    -5.550      2.349      4.565
REMARK INTER + INTRA:          -7.086
REMARK INTER:                  -6.658
REMARK INTRA:                  -0.428
REMARK UNBOUND:                -0.563
REMARK  Name = 
REMARK  3 active torsions:
REMARK  status: ('A' for Active; 'I' for Inactive)
REMARK    1  A    between atoms: C_2  and  C_3
REMARK    2  A    between atoms: C_5  and  C_6
REMARK    3  A    between atoms: C_6  and  N_7
REMARK                            x       y       z     vdW  Elec       q    Type
REMARK                         _______ _______ _______ _____ _____    ______ ____
ROOT
ATOM      1  C   UNL     1      45.478   5.507  13.370  0.00  0.00    +0.000 C 
ENDROOT
BRANCH   1   2
ATOM      2  N   UNL     1      45.877   6.821  12.884  0.00  0.00    +0.000 N 
ATOM      3  C   UNL     1      44.998   7.837  12.584  0.00  0.00    +0.000 A 
ATOM      4  C   UNL     1      45.732   8.927  12.172  0.00  0.00    +0.000 A 
ATOM      5  C   UNL     1      47.095   8.556  12.203  0.00  0.00    +0.000 A 
ATOM      6  N   UNL     1      48.182   9.304  11.894  0.00  0.00    +0.000 NA
ATOM      7  C   UNL     1      49.363   8.665  12.017  0.00  0.00    +0.000 A 
ATOM      8  C   UNL     1      49.527   7.339  12.392  0.00  0.00    +0.000 A 
ATOM      9  C   UNL     1      48.404   6.572  12.692  0.00  0.00    +0.000 A 
ATOM     10  C   UNL     1      47.169   7.224  12.613  0.00  0.00    +0.000 A 
ENDBRANCH   1   2
BRANCH   1  13
ATOM     11  C   UNL     1      44.842   3.914   9.975  0.00  0.00    +0.000 A 
ATOM     12  C   UNL     1      45.424   4.704  10.963  0.00  0.00    +0.000 A 
ATOM     13  C   UNL     1      44.924   4.634  12.270  0.00  0.00    +0.000 A 
ATOM     14  C   UNL     1      43.879   3.739  12.527  0.00  0.00    +0.000 A 
ATOM     15  C   UNL     1      43.368   2.987  11.481  0.00  0.00    +0.000 A 
ATOM     16  N   UNL     1      43.819   3.060  10.211  0.00  0.00    +0.000 NA
BRANCH  11  18
ATOM     17  N   UNL     1      45.694   4.104   7.523  0.00  0.00    +0.000 NA
ATOM     18  C   UNL     1      45.293   4.000   8.608  0.00  0.00    +0.000 C 
ENDBRANCH  11  18
ENDBRANCH   1  13
TORSDOF 3
ENDMDL
