MODEL 1
REMARK VINA RESULT:    -9.313      0.000      0.000
REMARK INTER + INTRA:         -12.649
REMARK INTER:                 -12.307
REMARK INTRA:                  -0.341
REMARK UNBOUND:                -0.341
REMARK  Name = 
REMARK  6 active torsions:
REMARK  status: ('A' for Active; 'I' for Inactive)
REMARK    1  A    between atoms: C_2  and  C_19
REMARK    2  A    between atoms: N_3  and  C_4
REMARK    3  A    between atoms: C_4  and  C_5
REMARK    4  A    between atoms: C_8  and  C_9
REMARK    5  A    between atoms: C_9  and  C_10
REMARK    6  A    between atoms: C_13  and  O_14
REMARK                            x       y       z     vdW  Elec       q    Type
REMARK                         _______ _______ _______ _____ _____    ______ ____
ROOT
ATOM      1  C   UNL     1      46.223   7.313  12.752  0.00  0.00    +0.000 C 
ENDROOT
BRANCH   1   2
ATOM      2  C   UNL     1      45.806   6.172  11.872  0.00  0.00    +0.000 A 
ATOM      3  C   UNL     1      45.143   5.059  12.386  0.00  0.00    +0.000 A 
ATOM      4  C   UNL     1      44.762   4.031  11.531  0.00  0.00    +0.000 A 
ATOM      5  C   UNL     1      45.043   4.133  10.165  0.00  0.00    +0.000 A 
ATOM      6  N   UNL     1      45.663   5.210   9.640  0.00  0.00    +0.000 NA
ATOM      7  C   UNL     1      46.029   6.199  10.498  0.00  0.00    +0.000 A 
BRANCH   5   8
ATOM      8  C   UNL     1      44.465   3.088   9.242  0.00  0.00    +0.000 C 
BRANCH   8   9
ATOM      9  C   UNL     1      45.249   2.649   7.988  0.00  0.00    +0.000 C 
ATOM     10  C   UNL     1      46.030   3.777   7.287  0.00  0.00    +0.000 C 
ATOM     11  C   UNL     1      46.882   3.234   6.130  0.00  0.00    +0.000 C 
ATOM     12  C   UNL     1      47.820   2.113   6.580  0.00  0.00    +0.000 C 
ATOM     13  C   UNL     1      47.056   0.999   7.286  0.00  0.00    +0.000 C 
ATOM     14  C   UNL     1      46.230   1.545   8.438  0.00  0.00    +0.000 C 
BRANCH  12  15
ATOM     15  O   UNL     1      48.516   1.575   5.460  0.00  0.00    +0.000 OA
ATOM     16  H   UNL     1      48.169   0.683   5.289  0.00  0.00    +0.000 HD
ENDBRANCH  12  15
ENDBRANCH   8   9
ENDBRANCH   5   8
ENDBRANCH   1   2
BRANCH   1  19
ATOM     17  O   UNL     1      48.924   6.647  13.127  0.00  0.00    +0.000 OA
ATOM     18  C   UNL     1      48.163   6.578  14.088  0.00  0.00    +0.000 C 
ATOM     19  N   UNL     1      46.823   6.848  13.978  0.00  0.00    +0.000 N 
ATOM     20  H   UNL     1      46.262   6.932  14.819  0.00  0.00    +0.000 HD
BRANCH  18  21
ATOM     21  C   UNL     1      48.632   6.149  15.410  0.00  0.00    +0.000 A 
ATOM     22  C   UNL     1      49.592   6.897  16.076  0.00  0.00    +0.000 A 
ATOM     23  S   UNL     1      50.037   6.251  17.590  0.00  0.00    +0.000 S 
ATOM     24  C   UNL     1      48.925   4.973  17.432  0.00  0.00    +0.000 A 
ATOM     25  N   UNL     1      48.770   4.058  18.426  0.00  0.00    +0.000 NA
ATOM     26  C   UNL     1      47.855   3.177  18.200  0.00  0.00    +0.000 A 
ATOM     27  N   UNL     1      47.091   3.117  17.064  0.00  0.00    +0.000 N 
ATOM     28  C   UNL     1      47.274   3.967  15.998  0.00  0.00    +0.000 A 
ATOM     29  O   UNL     1      46.681   3.791  14.938  0.00  0.00    +0.000 OA
ATOM     30  C   UNL     1      48.248   5.017  16.227  0.00  0.00    +0.000 A 
ATOM     31  H   UNL     1      46.416   2.379  16.934  0.00  0.00    +0.000 HD
ENDBRANCH  18  21
ENDBRANCH   1  19
TORSDOF 6
ENDMDL
MODEL 2
REMARK VINA RESULT:    -8.940      1.663      2.275
REMARK INTER + INTRA:         -12.155
REMARK INTER:                 -11.998
REMARK INTRA:                  -0.157
REMARK UNBOUND:                -0.341
REMARK  Name = 
REMARK  6 active torsions:
REMARK  status: ('A' for Active; 'I' for Inactive)
REMARK    1  A    between atoms: C_2  and  C_19
REMARK    2  A    between atoms: N_3  and  C_4
REMARK    3  A    between atoms: C_4  and  C_5
REMARK    4  A    between atoms: C_8  and  C_9
REMARK    5  A    between atoms: C_9  and  C_10
REMARK    6  A    between atoms: C_13  and  O_14
REMARK                            x       y       z     vdW  Elec       q    Type
REMARK                         _______ _______ _______ _____ _____    ______ ____
ROOT
ATOM      1  C   UNL     1      46.461   6.364  13.153  0.00  0.00    +0.000 C 
ENDROOT
BRANCH   1   2
ATOM      2  C   UNL     1      45.840   5.474  12.116  0.00  0.00    +0.000 A 
ATOM      3  C   UNL     1      45.644   5.909  10.807  0.00  0.00    +0.000 A 
ATOM      4  C   UNL     1      45.079   5.046   9.875  0.00  0.00    +0.000 A 
ATOM      5  C   UNL     1      44.722   3.751  10.264  0.00  0.00    +0.000 A 
ATOM      6  N   UNL     1      44.923   3.299  11.520  0.00  0.00    +0.000 NA
ATOM      7  C   UNL     1      45.474   4.164  12.412  0.00  0.00    +0.000 A 
BRANCH   5   8
ATOM      8  C   UNL     1      44.275   2.786   9.193  0.00  0.00    +0.000 C 
BRANCH   8   9
ATOM      9  C   UNL     1      45.179   2.519   7.971  0.00  0.00    +0.000 C 
ATOM     10  C   UNL     1      46.006   3.731   7.503  0.00  0.00    +0.000 C 
ATOM     11  C   UNL     1      46.969   3.349   6.369  0.00  0.00    +0.000 C 
ATOM     12  C   UNL     1      47.876   2.178   6.751  0.00  0.00    +0.000 C 
ATOM     13  C   UNL     1      47.064   0.979   7.228  0.00  0.00    +0.000 C 
ATOM     14  C   UNL     1      46.128   1.365   8.359  0.00  0.00    +0.000 C 
BRANCH  12  15
ATOM     15  O   UNL     1      48.681   1.796   5.640  0.00  0.00    +0.000 OA
ATOM     16  H   UNL     1      49.247   1.056   5.919  0.00  0.00    +0.000 HD
ENDBRANCH  12  15
ENDBRANCH   8   9
ENDBRANCH   5   8
ENDBRANCH   1   2
BRANCH   1  19
ATOM     17  O   UNL     1      48.900   6.255  14.538  0.00  0.00    +0.000 OA
ATOM     18  C   UNL     1      47.926   5.682  15.017  0.00  0.00    +0.000 C 
ATOM     19  N   UNL     1      46.710   5.655  14.383  0.00  0.00    +0.000 N 
ATOM     20  H   UNL     1      45.898   5.308  14.881  0.00  0.00    +0.000 HD
BRANCH  18  21
ATOM     21  C   UNL     1      48.016   4.941  16.280  0.00  0.00    +0.000 A 
ATOM     22  C   UNL     1      47.729   3.584  16.304  0.00  0.00    +0.000 A 
ATOM     23  S   UNL     1      47.867   2.881  17.851  0.00  0.00    +0.000 S 
ATOM     24  C   UNL     1      48.366   4.356  18.537  0.00  0.00    +0.000 A 
ATOM     25  N   UNL     1      48.693   4.437  19.855  0.00  0.00    +0.000 NA
ATOM     26  C   UNL     1      49.107   5.599  20.230  0.00  0.00    +0.000 A 
ATOM     27  N   UNL     1      49.211   6.694  19.412  0.00  0.00    +0.000 N 
ATOM     28  C   UNL     1      48.808   6.680  18.096  0.00  0.00    +0.000 A 
ATOM     29  O   UNL     1      48.769   7.714  17.435  0.00  0.00    +0.000 OA
ATOM     30  C   UNL     1      48.393   5.379  17.607  0.00  0.00    +0.000 A 
ATOM     31  H   UNL     1      49.508   7.585  19.777  0.00  0.00    +0.000 HD
ENDBRANCH  18  21
ENDBRANCH   1  19
TORSDOF 6
ENDMDL
MODEL 3
REMARK VINA RESULT:    -8.659      2.462      4.162
REMARK INTER + INTRA:         -11.784
REMARK INTER:                 -10.921
REMARK INTRA:                  -0.863
REMARK UNBOUND:                -0.341
REMARK  Name = 
REMARK  6 active torsions:
REMARK  status: ('A' for Active; 'I' for Inactive)
REMARK    1  A    between atoms: C_2  and  C_19
REMARK    2  A    between atoms: N_3  and  C_4
REMARK    3  A    between atoms: C_4  and  C_5
REMARK    4  A    between atoms: C_8  and  C_9
REMARK    5  A    between atoms: C_9  and  C_10
REMARK    6  A    between atoms: C_13  and  O_14
REMARK                            x       y       z     vdW  Elec       q    Type
REMARK                         _______ _______ _______ _____ _____    ______ ____
ROOT
ATOM      1  C   UNL     1      46.870   4.947  14.041  0.00  0.00    +0.000 C 
ENDROOT
BRANCH   1   2
ATOM      2  C   UNL     1      46.116   4.643  12.780  0.00  0.00    +0.000 A 
ATOM      3  C   UNL     1      45.952   5.601  11.781  0.00  0.00    +0.000 A 
ATOM      4  C   UNL     1      45.258   5.271  10.622  0.00  0.00    +0.000 A 
ATOM      5  C   UNL     1      44.741   3.980  10.474  0.00  0.00    +0.000 A 
ATOM      6  N   UNL     1      44.907   3.029  11.417  0.00  0.00    +0.000 NA
ATOM      7  C   UNL     1      45.585   3.378  12.541  0.00  0.00    +0.000 A 
BRANCH   5   8
ATOM      8  C   UNL     1      44.148   3.603   9.138  0.00  0.00    +0.000 C 
BRANCH   8   9
ATOM      9  C   UNL     1      45.062   3.081   8.009  0.00  0.00    +0.000 C 
ATOM     10  C   UNL     1      46.094   4.100   7.491  0.00  0.00    +0.000 C 
ATOM     11  C   UNL     1      47.044   3.464   6.464  0.00  0.00    +0.000 C 
ATOM     12  C   UNL     1      47.733   2.214   7.012  0.00  0.00    +0.000 C 
ATOM     13  C   UNL     1      46.719   1.206   7.540  0.00  0.00    +0.000 C 
ATOM     14  C   UNL     1      45.796   1.841   8.565  0.00  0.00    +0.000 C 
BRANCH  12  15
ATOM     15  O   UNL     1      48.526   1.605   5.998  0.00  0.00    +0.000 OA
ATOM     16  H   UNL     1      49.171   2.262   5.684  0.00  0.00    +0.000 HD
ENDBRANCH  12  15
ENDBRANCH   8   9
ENDBRANCH   5   8
ENDBRANCH   1   2
BRANCH   1  19
ATOM     17  O   UNL     1      49.148   5.953  15.336  0.00  0.00    +0.000 OA
ATOM     18  C   UNL     1      48.427   6.735  14.724  0.00  0.00    +0.000 C 
ATOM     19  N   UNL     1      47.276   6.329  14.099  0.00  0.00    +0.000 N 
ATOM     20  H   UNL     1      46.795   6.971  13.478  0.00  0.00    +0.000 HD
BRANCH  18  21
ATOM     21  C   UNL     1      48.725   8.170  14.668  0.00  0.00    +0.000 A 
ATOM     22  C   UNL     1      48.858   8.892  15.846  0.00  0.00    +0.000 A 
ATOM     23  S   UNL     1      49.188  10.547  15.603  0.00  0.00    +0.000 S 
ATOM     24  C   UNL     1      49.217  10.349  13.913  0.00  0.00    +0.000 A 
ATOM     25  N   UNL     1      49.494  11.398  13.093  0.00  0.00    +0.000 NA
ATOM     26  C   UNL     1      49.538  11.096  11.839  0.00  0.00    +0.000 A 
ATOM     27  N   UNL     1      49.316   9.844  11.328  0.00  0.00    +0.000 N 
ATOM     28  C   UNL     1      48.946   8.776  12.112  0.00  0.00    +0.000 A 
ATOM     29  O   UNL     1      48.604   7.709  11.609  0.00  0.00    +0.000 OA
ATOM     30  C   UNL     1      48.943   9.046  13.537  0.00  0.00    +0.000 A 
ATOM     31  H   UNL     1      49.329   9.682  10.333  0.00  0.00    +0.000 HD
ENDBRANCH  18  21
ENDBRANCH   1  19
TORSDOF 6
ENDMDL
MODEL 4
REMARK VINA RESULT:    -8.337      2.930      4.047
REMARK INTER + INTRA:         -11.359
REMARK INTER:                 -10.647
REMARK INTRA:                  -0.712
REMARK UNBOUND:                -0.341
REMARK  Name = 
REMARK  6 active torsions:
REMARK  status: ('A' for Active; 'I' for Inactive)
REMARK    1  A    between atoms: C_2  and  C_19
REMARK    2  A    between atoms: N_3  and  C_4
REMARK    3  A    between atoms: C_4  and  C_5
REMARK    4  A    between atoms: C_8  and  C_9
REMARK    5  A    between atoms: C_9  and  C_10
REMARK    6  A    between atoms: C_13  and  O_14
REMARK                            x       y       z     vdW  Elec       q    Type
REMARK                         _______ _______ _______ _____ _____    ______ ____
ROOT
ATOM      1  C   UNL     1      46.682   5.658  13.656  0.00  0.00    +0.000 C 
ENDROOT
BRANCH   1   2
ATOM      2  C   UNL     1      45.984   5.006  12.499  0.00  0.00    +0.000 A 
ATOM      3  C   UNL     1      45.702   5.708  11.329  0.00  0.00    +0.000 A 
ATOM      4  C   UNL     1      45.067   5.060  10.276  0.00  0.00    +0.000 A 
ATOM      5  C   UNL     1      44.725   3.711  10.405  0.00  0.00    +0.000 A 
ATOM      6  N   UNL     1      45.007   3.003  11.519  0.00  0.00    +0.000 NA
ATOM      7  C   UNL     1      45.626   3.661  12.534  0.00  0.00    +0.000 A 
BRANCH   5   8
ATOM      8  C   UNL     1      44.197   2.993   9.187  0.00  0.00    +0.000 C 
BRANCH   8   9
ATOM      9  C   UNL     1      45.137   2.698   7.998  0.00  0.00    +0.000 C 
ATOM     10  C   UNL     1      46.039   3.875   7.582  0.00  0.00    +0.000 C 
ATOM     11  C   UNL     1      47.029   3.461   6.482  0.00  0.00    +0.000 C 
ATOM     12  C   UNL     1      47.862   2.244   6.885  0.00  0.00    +0.000 C 
ATOM     13  C   UNL     1      46.977   1.079   7.311  0.00  0.00    +0.000 C 
ATOM     14  C   UNL     1      46.014   1.496   8.409  0.00  0.00    +0.000 C 
BRANCH  12  15
ATOM     15  O   UNL     1      48.694   1.837   5.802  0.00  0.00    +0.000 OA
ATOM     16  H   UNL     1      48.804   2.597   5.204  0.00  0.00    +0.000 HD
ENDBRANCH  12  15
ENDBRANCH   8   9
ENDBRANCH   5   8
ENDBRANCH   1   2
BRANCH   1  19
ATOM     17  O   UNL     1      46.856   8.460  13.618  0.00  0.00    +0.000 OA
ATOM     18  C   UNL     1      47.835   7.805  13.271  0.00  0.00    +0.000 C 
ATOM     19  N   UNL     1      47.817   6.435  13.224  0.00  0.00    +0.000 N 
ATOM     20  H   UNL     1      48.686   5.931  13.084  0.00  0.00    +0.000 HD
BRANCH  18  21
ATOM     21  C   UNL     1      49.075   8.454  12.831  0.00  0.00    +0.000 A 
ATOM     22  C   UNL     1      49.053   9.318  11.745  0.00  0.00    +0.000 A 
ATOM     23  S   UNL     1      50.579   9.972  11.357  0.00  0.00    +0.000 S 
ATOM     24  C   UNL     1      51.317   9.164  12.661  0.00  0.00    +0.000 A 
ATOM     25  N   UNL     1      52.641   9.331  12.924  0.00  0.00    +0.000 NA
ATOM     26  C   UNL     1      53.058   8.705  13.972  0.00  0.00    +0.000 A 
ATOM     27  N   UNL     1      52.276   7.914  14.773  0.00  0.00    +0.000 N 
ATOM     28  C   UNL     1      50.956   7.647  14.493  0.00  0.00    +0.000 A 
ATOM     29  O   UNL     1      50.326   6.815  15.141  0.00  0.00    +0.000 OA
ATOM     30  C   UNL     1      50.420   8.378  13.360  0.00  0.00    +0.000 A 
ATOM     31  H   UNL     1      52.673   7.422  15.558  0.00  0.00    +0.000 HD
ENDBRANCH  18  21
ENDBRANCH   1  19
TORSDOF 6
ENDMDL
MODEL 5
REMARK VINA RESULT:    -8.117      2.778      3.665
REMARK INTER + INTRA:         -11.068
REMARK INTER:                 -10.520
REMARK INTRA:                  -0.548
REMARK UNBOUND:                -0.341
REMARK  Name = 
REMARK  6 active torsions:
REMARK  status: ('A' for Active; 'I' for Inactive)
REMARK    1  A    between atoms: C_2  and  C_19
REMARK    2  A    between atoms: N_3  and  C_4
REMARK    3  A    between atoms: C_4  and  C_5
REMARK    4  A    between atoms: C_8  and  C_9
REMARK    5  A    between atoms: C_9  and  C_10
REMARK    6  A    between atoms: C_13  and  O_14
REMARK                            x       y       z     vdW  Elec       q    Type
REMARK                         _______ _______ _______ _____ _____    ______ ____
ROOT
ATOM      1  C   UNL     1      47.124   4.946  14.320  0.00  0.00    +0.000 C 
ENDROOT
BRANCH   1   2
ATOM      2  C   UNL     1      46.317   4.767  13.069  0.00  0.00    +0.000 A 
ATOM      3  C   UNL     1      46.283   5.746  12.078  0.00  0.00    +0.000 A 
ATOM      4  C   UNL     1      45.533   5.532  10.927  0.00  0.00    +0.000 A 
ATOM      5  C   UNL     1      44.829   4.333  10.778  0.00  0.00    +0.000 A 
ATOM      6  N   UNL     1      44.865   3.360  11.713  0.00  0.00    +0.000 NA
ATOM      7  C   UNL     1      45.602   3.596  12.829  0.00  0.00    +0.000 A 
BRANCH   5   8
ATOM      8  C   UNL     1      44.170   4.058   9.448  0.00  0.00    +0.000 C 
BRANCH   8   9
ATOM      9  C   UNL     1      44.961   3.351   8.327  0.00  0.00    +0.000 C 
ATOM     10  C   UNL     1      46.104   4.185   7.719  0.00  0.00    +0.000 C 
ATOM     11  C   UNL     1      46.918   3.365   6.706  0.00  0.00    +0.000 C 
ATOM     12  C   UNL     1      47.447   2.064   7.309  0.00  0.00    +0.000 C 
ATOM     13  C   UNL     1      46.323   1.239   7.925  0.00  0.00    +0.000 C 
ATOM     14  C   UNL     1      45.536   2.054   8.936  0.00  0.00    +0.000 C 
BRANCH  12  15
ATOM     15  O   UNL     1      48.110   1.293   6.311  0.00  0.00    +0.000 OA
ATOM     16  H   UNL     1      47.684   1.477   5.456  0.00  0.00    +0.000 HD
ENDBRANCH  12  15
ENDBRANCH   8   9
ENDBRANCH   5   8
ENDBRANCH   1   2
BRANCH   1  19
ATOM     17  O   UNL     1      49.146   5.859  16.040  0.00  0.00    +0.000 OA
ATOM     18  C   UNL     1      48.561   6.675  15.334  0.00  0.00    +0.000 C 
ATOM     19  N   UNL     1      47.537   6.315  14.497  0.00  0.00    +0.000 N 
ATOM     20  H   UNL     1      47.188   6.986  13.821  0.00  0.00    +0.000 HD
BRANCH  18  21
ATOM     21  C   UNL     1      48.890   8.105  15.381  0.00  0.00    +0.000 A 
ATOM     22  C   UNL     1      49.533   8.698  14.305  0.00  0.00    +0.000 A 
ATOM     23  S   UNL     1      49.855  10.358  14.529  0.00  0.00    +0.000 S 
ATOM     24  C   UNL     1      49.099  10.355  16.053  0.00  0.00    +0.000 A 
ATOM     25  N   UNL     1      48.991  11.499  16.780  0.00  0.00    +0.000 NA
ATOM     26  C   UNL     1      48.347  11.366  17.890  0.00  0.00    +0.000 A 
ATOM     27  N   UNL     1      47.815  10.189  18.349  0.00  0.00    +0.000 N 
ATOM     28  C   UNL     1      47.977   8.993  17.690  0.00  0.00    +0.000 A 
ATOM     29  O   UNL     1      47.622   7.934  18.201  0.00  0.00    +0.000 OA
ATOM     30  C   UNL     1      48.639   9.098  16.403  0.00  0.00    +0.000 A 
ATOM     31  H   UNL     1      47.354  10.145  19.244  0.00  0.00    +0.000 HD
ENDBRANCH  18  21
ENDBRANCH   1  19
TORSDOF 6
ENDMDL
MODEL 6
REMARK VINA RESULT:    -7.903      2.457      3.120
REMARK INTER + INTRA:         -10.785
REMARK INTER:                 -10.044
REMARK INTRA:                  -0.741
REMARK UNBOUND:                -0.341
REMARK  Name = 
REMARK  6 active torsions:
REMARK  status: ('A' for Active; 'I' for Inactive)
REMARK    1  A    between atoms: C_2  and  C_19
REMARK    2  A    between atoms: N_3  and  C_4
REMARK    3  A    between atoms: C_4  and  C_5
REMARK    4  A    between atoms: C_8  and  C_9
REMARK    5  A    between atoms: C_9  and  C_10
REMARK    6  A    between atoms: C_13  and  O_14
REMARK                            x       y       z     vdW  Elec       q    Type
REMARK                         _______ _______ _______ _____ _____    ______ ____
ROOT
ATOM      1  C   UNL     1      48.157   6.945  13.558  0.00  0.00    +0.000 C 
ENDROOT
BRANCH   1   2
ATOM      2  C   UNL     1      47.052   6.325  12.757  0.00  0.00    +0.000 A 
ATOM      3  C   UNL     1      46.417   7.022  11.730  0.00  0.00    +0.000 A 
ATOM      4  C   UNL     1      45.407   6.403  11.003  0.00  0.00    +0.000 A 
ATOM      5  C   UNL     1      45.048   5.086  11.308  0.00  0.00    +0.000 A 
ATOM      6  N   UNL     1      45.663   4.383  12.282  0.00  0.00    +0.000 NA
ATOM      7  C   UNL     1      46.644   5.012  12.979  0.00  0.00    +0.000 A 
BRANCH   5   8
ATOM      8  C   UNL     1      44.074   4.386  10.391  0.00  0.00    +0.000 C 
BRANCH   8   9
ATOM      9  C   UNL     1      44.589   3.657   9.132  0.00  0.00    +0.000 C 
ATOM     10  C   UNL     1      45.741   4.372   8.399  0.00  0.00    +0.000 C 
ATOM     11  C   UNL     1      46.278   3.522   7.237  0.00  0.00    +0.000 C 
ATOM     12  C   UNL     1      46.699   2.124   7.690  0.00  0.00    +0.000 C 
ATOM     13  C   UNL     1      45.569   1.416   8.429  0.00  0.00    +0.000 C 
ATOM     14  C   UNL     1      45.056   2.257   9.584  0.00  0.00    +0.000 C 
BRANCH  12  15
ATOM     15  O   UNL     1      47.097   1.342   6.569  0.00  0.00    +0.000 OA
ATOM     16  H   UNL     1      46.964   0.405   6.792  0.00  0.00    +0.000 HD
ENDBRANCH  12  15
ENDBRANCH   8   9
ENDBRANCH   5   8
ENDBRANCH   1   2
BRANCH   1  19
ATOM     17  O   UNL     1      50.182   6.536  15.459  0.00  0.00    +0.000 OA
ATOM     18  C   UNL     1      49.017   6.585  15.842  0.00  0.00    +0.000 C 
ATOM     19  N   UNL     1      47.969   6.742  14.973  0.00  0.00    +0.000 N 
ATOM     20  H   UNL     1      47.043   6.933  15.340  0.00  0.00    +0.000 HD
BRANCH  18  21
ATOM     21  C   UNL     1      48.669   6.424  17.258  0.00  0.00    +0.000 A 
ATOM     22  C   UNL     1      48.818   5.187  17.868  0.00  0.00    +0.000 A 
ATOM     23  S   UNL     1      48.354   5.169  19.508  0.00  0.00    +0.000 S 
ATOM     24  C   UNL     1      47.983   6.830  19.478  0.00  0.00    +0.000 A 
ATOM     25  N   UNL     1      47.560   7.470  20.600  0.00  0.00    +0.000 NA
ATOM     26  C   UNL     1      47.368   8.737  20.450  0.00  0.00    +0.000 A 
ATOM     27  N   UNL     1      47.547   9.421  19.275  0.00  0.00    +0.000 N 
ATOM     28  C   UNL     1      47.888   8.799  18.097  0.00  0.00    +0.000 A 
ATOM     29  O   UNL     1      47.890   9.412  17.033  0.00  0.00    +0.000 OA
ATOM     30  C   UNL     1      48.177   7.383  18.225  0.00  0.00    +0.000 A 
ATOM     31  H   UNL     1      47.345  10.406  19.216  0.00  0.00    +0.000 HD
ENDBRANCH  18  21
ENDBRANCH   1  19
TORSDOF 6
ENDMDL
MODEL 7
REMARK VINA RESULT:    -7.685      1.754      2.269
REMARK INTER + INTRA:         -10.497
REMARK INTER:                  -9.480
REMARK INTRA:                  -1.017
REMARK UNBOUND:                -0.341
REMARK  Name = 
REMARK  6 active torsions:
REMARK  status: ('A' for Active; 'I' for Inactive)
REMARK    1  A    between atoms: C_2  and  C_19
REMARK    2  A    between atoms: N_3  and  C_4
REMARK    3  A    between atoms: C_4  and  C_5
REMARK    4  A    between atoms: C_8  and  C_9
REMARK    5  A    between atoms: C_9  and  C_10
REMARK    6  A    between atoms: C_13  and  O_14
REMARK                            x       y       z     vdW  Elec       q    Type
REMARK                         _______ _______ _______ _____ _____    ______ ____
ROOT
ATOM      1  C   UNL     1      47.408   8.634  13.568  0.00  0.00    +0.000 C 
ENDROOT
BRANCH   1   2
ATOM      2  C   UNL     1      46.572   7.653  12.801  0.00  0.00    +0.000 A 
ATOM      3  C   UNL     1      46.814   6.282  12.868  0.00  0.00    +0.000 A 
ATOM      4  C   UNL     1      46.005   5.406  12.152  0.00  0.00    +0.000 A 
ATOM      5  C   UNL     1      44.956   5.916  11.380  0.00  0.00    +0.000 A 
ATOM      6  N   UNL     1      44.687   7.236  11.318  0.00  0.00    +0.000 NA
ATOM      7  C   UNL     1      45.495   8.070  12.024  0.00  0.00    +0.000 A 
BRANCH   5   8
ATOM      8  C   UNL     1      43.992   4.934  10.758  0.00  0.00    +0.000 C 
BRANCH   8   9
ATOM      9  C   UNL     1      44.410   4.133   9.506  0.00  0.00    +0.000 C 
ATOM     10  C   UNL     1      45.617   4.711   8.744  0.00  0.00    +0.000 C 
ATOM     11  C   UNL     1      46.046   3.789   7.592  0.00  0.00    +0.000 C 
ATOM     12  C   UNL     1      46.326   2.363   8.067  0.00  0.00    +0.000 C 
ATOM     13  C   UNL     1      45.140   1.790   8.835  0.00  0.00    +0.000 C 
ATOM     14  C   UNL     1      44.736   2.701   9.980  0.00  0.00    +0.000 C 
BRANCH  12  15
ATOM     15  O   UNL     1      46.623   1.523   6.956  0.00  0.00    +0.000 OA
ATOM     16  H   UNL     1      47.496   1.122   7.107  0.00  0.00    +0.000 HD
ENDBRANCH  12  15
ENDBRANCH   8   9
ENDBRANCH   5   8
ENDBRANCH   1   2
BRANCH   1  19
ATOM     17  O   UNL     1      49.784   8.963  15.026  0.00  0.00    +0.000 OA
ATOM     18  C   UNL     1      48.827   8.423  15.575  0.00  0.00    +0.000 C 
ATOM     19  N   UNL     1      47.646   8.190  14.919  0.00  0.00    +0.000 N 
ATOM     20  H   UNL     1      46.835   7.887  15.447  0.00  0.00    +0.000 HD
BRANCH  18  21
ATOM     21  C   UNL     1      48.908   7.942  16.959  0.00  0.00    +0.000 A 
ATOM     22  C   UNL     1      49.114   8.847  17.990  0.00  0.00    +0.000 A 
ATOM     23  S   UNL     1      49.197   8.123  19.532  0.00  0.00    +0.000 S 
ATOM     24  C   UNL     1      48.910   6.577  18.881  0.00  0.00    +0.000 A 
ATOM     25  N   UNL     1      48.816   5.487  19.689  0.00  0.00    +0.000 NA
ATOM     26  C   UNL     1      48.540   4.389  19.071  0.00  0.00    +0.000 A 
ATOM     27  N   UNL     1      48.365   4.276  17.716  0.00  0.00    +0.000 N 
ATOM     28  C   UNL     1      48.539   5.334  16.853  0.00  0.00    +0.000 A 
ATOM     29  O   UNL     1      48.527   5.169  15.637  0.00  0.00    +0.000 OA
ATOM     30  C   UNL     1      48.787   6.607  17.504  0.00  0.00    +0.000 A 
ATOM     31  H   UNL     1      48.188   3.380  17.290  0.00  0.00    +0.000 HD
ENDBRANCH  18  21
ENDBRANCH   1  19
TORSDOF 6
ENDMDL
MODEL 8
REMARK VINA RESULT:    -7.381      3.267      8.731
REMARK INTER + INTRA:         -10.096
REMARK INTER:                  -9.218
REMARK INTRA:                  -0.878
REMARK UNBOUND:                -0.341
REMARK  Name = 
REMARK  6 active torsions:
REMARK  status: ('A' for Active; 'I' for Inactive)
REMARK    1  A    between atoms: C_2  and  C_19
REMARK    2  A    between atoms: N_3  and  C_4
REMARK    3  A    between atoms: C_4  and  C_5
REMARK    4  A    between atoms: C_8  and  C_9
REMARK    5  A    between atoms: C_9  and  C_10
REMARK    6  A    between atoms: C_13  and  O_14
REMARK                            x       y       z     vdW  Elec       q    Type
REMARK                         _______ _______ _______ _____ _____    ______ ____
ROOT
ATOM      1  C   UNL     1      47.129   8.001  12.146  0.00  0.00    +0.000 C 
ENDROOT
BRANCH   1   2
ATOM      2  C   UNL     1      47.992   7.976  13.373  0.00  0.00    +0.000 A 
ATOM      3  C   UNL     1      47.918   8.982  14.335  0.00  0.00    +0.000 A 
ATOM      4  C   UNL     1      48.726   8.911  15.465  0.00  0.00    +0.000 A 
ATOM      5  C   UNL     1      49.596   7.827  15.621  0.00  0.00    +0.000 A 
ATOM      6  N   UNL     1      49.669   6.830  14.715  0.00  0.00    +0.000 NA
ATOM      7  C   UNL     1      48.872   6.926  13.619  0.00  0.00    +0.000 A 
BRANCH   5   8
ATOM      8  C   UNL     1      50.328   7.690  16.934  0.00  0.00    +0.000 C 
BRANCH   8   9
ATOM      9  C   UNL     1      49.812   6.705  18.005  0.00  0.00    +0.000 C 
ATOM     10  C   UNL     1      48.299   6.421  17.944  0.00  0.00    +0.000 C 
ATOM     11  C   UNL     1      47.891   5.339  18.956  0.00  0.00    +0.000 C 
ATOM     12  C   UNL     1      48.700   4.053  18.783  0.00  0.00    +0.000 C 
ATOM     13  C   UNL     1      50.198   4.328  18.828  0.00  0.00    +0.000 C 
ATOM     14  C   UNL     1      50.592   5.387  17.813  0.00  0.00    +0.000 C 
BRANCH  12  15
ATOM     15  O   UNL     1      48.358   3.116  19.800  0.00  0.00    +0.000 OA
ATOM     16  H   UNL     1      47.473   2.764  19.600  0.00  0.00    +0.000 HD
ENDBRANCH  12  15
ENDBRANCH   8   9
ENDBRANCH   5   8
ENDBRANCH   1   2
BRANCH   1  19
ATOM     17  O   UNL     1      44.409   7.574  11.601  0.00  0.00    +0.000 OA
ATOM     18  C   UNL     1      45.165   6.607  11.616  0.00  0.00    +0.000 C 
ATOM     19  N   UNL     1      46.498   6.727  11.913  0.00  0.00    +0.000 N 
ATOM     20  H   UNL     1      47.114   5.935  11.762  0.00  0.00    +0.000 HD
BRANCH  18  21
ATOM     21  C   UNL     1      44.674   5.246  11.368  0.00  0.00    +0.000 A 
ATOM     22  C   UNL     1      43.889   4.613  12.321  0.00  0.00    +0.000 A 
ATOM     23  S   UNL     1      43.418   3.034  11.883  0.00  0.00    +0.000 S 
ATOM     24  C   UNL     1      44.205   3.158  10.379  0.00  0.00    +0.000 A 
ATOM     25  N   UNL     1      44.153   2.139   9.480  0.00  0.00    +0.000 NA
ATOM     26  C   UNL     1      44.745   2.387   8.361  0.00  0.00    +0.000 A 
ATOM     27  N   UNL     1      45.397   3.555   8.063  0.00  0.00    +0.000 N 
ATOM     28  C   UNL     1      45.549   4.575   8.974  0.00  0.00    +0.000 A 
ATOM     29  O   UNL     1      46.268   5.540   8.730  0.00  0.00    +0.000 OA
ATOM     30  C   UNL     1      44.848   4.372  10.227  0.00  0.00    +0.000 A 
ATOM     31  H   UNL     1      45.871   3.672   7.181  0.00  0.00    +0.000 HD
ENDBRANCH  18  21
ENDBRANCH   1  19
TORSDOF 6
ENDMDL
MODEL 9
REMARK VINA RESULT:    -7.332      3.109      4.063
REMARK INTER + INTRA:         -10.031
REMARK INTER:                  -8.846
REMARK INTRA:                  -1.185
REMARK UNBOUND:                -0.341
REMARK  Name = 
REMARK  6 active torsions:
REMARK  status: ('A' for Active; 'I' for Inactive)
REMARK    1  A    between atoms: C_2  and  C_19
REMARK    2  A    between atoms: N_3  and  C_4
REMARK    3  A    between atoms: C_4  and  C_5
REMARK    4  A    between atoms: C_8  and  C_9
REMARK    5  A    between atoms: C_9  and  C_10
REMARK    6  A    between atoms: C_13  and  O_14
REMARK                            x       y       z     vdW  Elec       q    Type
REMARK                         _______ _______ _______ _____ _____    ______ ____
ROOT
ATOM      1  C   UNL     1      49.313   8.199  13.944  0.00  0.00    +0.000 C 
ENDROOT
BRANCH   1   2
ATOM      2  C   UNL     1      48.042   7.991  13.174  0.00  0.00    +0.000 A 
ATOM      3  C   UNL     1      47.965   7.068  12.133  0.00  0.00    +0.000 A 
ATOM      4  C   UNL     1      46.763   6.897  11.455  0.00  0.00    +0.000 A 
ATOM      5  C   UNL     1      45.647   7.649  11.834  0.00  0.00    +0.000 A 
ATOM      6  N   UNL     1      45.691   8.533  12.853  0.00  0.00    +0.000 NA
ATOM      7  C   UNL     1      46.878   8.683  13.496  0.00  0.00    +0.000 A 
BRANCH   5   8
ATOM      8  C   UNL     1      44.318   7.317  11.199  0.00  0.00    +0.000 C 
BRANCH   8   9
ATOM      9  C   UNL     1      43.720   5.903  11.360  0.00  0.00    +0.000 C 
ATOM     10  C   UNL     1      44.312   4.841  10.415  0.00  0.00    +0.000 C 
ATOM     11  C   UNL     1      43.756   3.442  10.726  0.00  0.00    +0.000 C 
ATOM     12  C   UNL     1      43.962   3.052  12.190  0.00  0.00    +0.000 C 
ATOM     13  C   UNL     1      43.391   4.106  13.132  0.00  0.00    +0.000 C 
ATOM     14  C   UNL     1      43.959   5.481  12.825  0.00  0.00    +0.000 C 
BRANCH  12  15
ATOM     15  O   UNL     1      43.348   1.795  12.455  0.00  0.00    +0.000 OA
ATOM     16  H   UNL     1      43.268   1.314  11.613  0.00  0.00    +0.000 HD
ENDBRANCH  12  15
ENDBRANCH   8   9
ENDBRANCH   5   8
ENDBRANCH   1   2
BRANCH   1  19
ATOM     17  O   UNL     1      48.585   8.694  16.610  0.00  0.00    +0.000 OA
ATOM     18  C   UNL     1      49.014   7.582  16.314  0.00  0.00    +0.000 C 
ATOM     19  N   UNL     1      49.427   7.274  15.043  0.00  0.00    +0.000 N 
ATOM     20  H   UNL     1      49.626   6.308  14.806  0.00  0.00    +0.000 HD
BRANCH  18  21
ATOM     21  C   UNL     1      49.161   6.524  17.319  0.00  0.00    +0.000 A 
ATOM     22  C   UNL     1      49.882   6.772  18.479  0.00  0.00    +0.000 A 
ATOM     23  S   UNL     1      49.969   5.434  19.532  0.00  0.00    +0.000 S 
ATOM     24  C   UNL     1      49.002   4.489  18.499  0.00  0.00    +0.000 A 
ATOM     25  N   UNL     1      48.654   3.219  18.839  0.00  0.00    +0.000 NA
ATOM     26  C   UNL     1      47.874   2.636  17.992  0.00  0.00    +0.000 A 
ATOM     27  N   UNL     1      47.422   3.201  16.828  0.00  0.00    +0.000 N 
ATOM     28  C   UNL     1      47.820   4.448  16.403  0.00  0.00    +0.000 A 
ATOM     29  O   UNL     1      47.521   4.862  15.286  0.00  0.00    +0.000 OA
ATOM     30  C   UNL     1      48.647   5.171  17.350  0.00  0.00    +0.000 A 
ATOM     31  H   UNL     1      46.843   2.678  16.191  0.00  0.00    +0.000 HD
ENDBRANCH  18  21
ENDBRANCH   1  19
TORSDOF 6
ENDMDL
