MODEL 1
REMARK VINA RESULT:    -7.894      0.000      0.000
REMARK INTER + INTRA:         -10.346
REMARK INTER:                 -10.433
REMARK INTRA:                   0.087
REMARK UNBOUND:                 0.087
REMARK  Name = 
REMARK  6 active torsions:
REMARK  status: ('A' for Active; 'I' for Inactive)
REMARK    1  A    between atoms: N_1  and  C_2
REMARK    2  A    between atoms: C_2  and  C_3
REMARK    3  A    between atoms: C_6  and  C_7
REMARK    4  A    between atoms: C_7  and  O_8
REMARK    5  A    between atoms: O_8  and  C_9
REMARK    6  A    between atoms: C_14  and  N_15
REMARK                            x       y       z     vdW  Elec       q    Type
REMARK                         _______ _______ _______ _____ _____    ______ ____
ROOT
ATOM      1  C   UNL     1      43.807   4.420  10.170  0.00  0.00    +0.000 C 
ENDROOT
BRANCH   1   5
ATOM      2  C   UNL     1      46.591   2.362   7.569  0.00  0.00    +0.000 A 
ATOM      3  C   UNL     1      45.810   1.647   8.487  0.00  0.00    +0.000 A 
ATOM      4  C   UNL     1      44.924   2.310   9.339  0.00  0.00    +0.000 A 
ATOM      5  C   UNL     1      44.797   3.703   9.284  0.00  0.00    +0.000 A 
ATOM      6  C   UNL     1      45.592   4.423   8.383  0.00  0.00    +0.000 A 
ATOM      7  C   UNL     1      46.477   3.758   7.530  0.00  0.00    +0.000 A 
BRANCH   2   8
ATOM      8  C   UNL     1      47.557   1.643   6.661  0.00  0.00    +0.000 C 
BRANCH   8   9
ATOM      9  N   UNL     1      48.668   2.501   6.264  0.00  0.00    +0.000 NA
ATOM     10  H   UNL     1      48.735   2.508   5.249  0.00  0.00    +0.000 HD
ATOM     11  H   UNL     1      49.535   2.091   6.610  0.00  0.00    +0.000 HD
ENDBRANCH   8   9
ENDBRANCH   2   8
ENDBRANCH   1   5
BRANCH   1  12
ATOM     12  O   UNL     1      44.179   4.258  11.541  0.00  0.00    +0.000 OA
BRANCH  12  13
ATOM     13  C   UNL     1      44.966   5.297  11.995  0.00  0.00    +0.000 A 
ATOM     14  N   UNL     1      44.643   6.559  11.614  0.00  0.00    +0.000 NA
ATOM     15  C   UNL     1      45.452   7.567  12.011  0.00  0.00    +0.000 A 
ATOM     16  C   UNL     1      46.587   7.383  12.786  0.00  0.00    +0.000 A 
ATOM     17  C   UNL     1      46.909   6.088  13.181  0.00  0.00    +0.000 A 
ATOM     18  C   UNL     1      46.077   5.039  12.777  0.00  0.00    +0.000 A 
BRANCH  18  19
ATOM     19  N   UNL     1      46.418   3.694  13.153  0.00  0.00    +0.000 N 
ATOM     20  O   UNL     1      45.607   2.800  12.883  0.00  0.00    +0.000 OA
ATOM     21  O   UNL     1      47.470   3.544  13.791  0.00  0.00    +0.000 OA
ENDBRANCH  18  19
ENDBRANCH  12  13
ENDBRANCH   1  12
TORSDOF 6
ENDMDL
MODEL 2
REMARK VINA RESULT:    -7.416      1.603      2.728
REMARK INTER + INTRA:          -9.713
REMARK INTER:                  -9.684
REMARK INTRA:                  -0.029
REMARK UNBOUND:                 0.087
REMARK  Name = 
REMARK  6 active torsions:
REMARK  status: ('A' for Active; 'I' for Inactive)
REMARK    1  A    between atoms: N_1  and  C_2
REMARK    2  A    between atoms: C_2  and  C_3
REMARK    3  A    between atoms: C_6  and  C_7
REMARK    4  A    between atoms: C_7  and  O_8
REMARK    5  A    between atoms: O_8  and  C_9
REMARK    6  A    between atoms: C_14  and  N_15
REMARK                            x       y       z     vdW  Elec       q    Type
REMARK                         _______ _______ _______ _____ _____    ______ ____
ROOT
ATOM      1  C   UNL     1      44.146   2.638  10.396  0.00  0.00    +0.000 C 
ENDROOT
BRANCH   1   5
ATOM      2  C   UNL     1      46.611   2.706   6.837  0.00  0.00    +0.000 A 
ATOM      3  C   UNL     1      45.911   3.851   7.243  0.00  0.00    +0.000 A 
ATOM      4  C   UNL     1      45.101   3.826   8.381  0.00  0.00    +0.000 A 
ATOM      5  C   UNL     1      44.982   2.656   9.140  0.00  0.00    +0.000 A 
ATOM      6  C   UNL     1      45.663   1.504   8.725  0.00  0.00    +0.000 A 
ATOM      7  C   UNL     1      46.474   1.531   7.587  0.00  0.00    +0.000 A 
BRANCH   2   8
ATOM      8  C   UNL     1      47.472   2.734   5.600  0.00  0.00    +0.000 C 
BRANCH   8   9
ATOM      9  N   UNL     1      48.577   1.784   5.688  0.00  0.00    +0.000 NA
ATOM     10  H   UNL     1      48.686   1.318   4.790  0.00  0.00    +0.000 HD
ATOM     11  H   UNL     1      48.331   1.061   6.362  0.00  0.00    +0.000 HD
ENDBRANCH   8   9
ENDBRANCH   2   8
ENDBRANCH   1   5
BRANCH   1  12
ATOM     12  O   UNL     1      43.976   3.972  10.884  0.00  0.00    +0.000 OA
BRANCH  12  13
ATOM     13  C   UNL     1      44.892   4.290  11.866  0.00  0.00    +0.000 A 
ATOM     14  N   UNL     1      45.538   3.273  12.492  0.00  0.00    +0.000 NA
ATOM     15  C   UNL     1      46.390   3.586  13.495  0.00  0.00    +0.000 A 
ATOM     16  C   UNL     1      46.641   4.884  13.914  0.00  0.00    +0.000 A 
ATOM     17  C   UNL     1      45.982   5.922  13.264  0.00  0.00    +0.000 A 
ATOM     18  C   UNL     1      45.100   5.609  12.224  0.00  0.00    +0.000 A 
BRANCH  18  19
ATOM     19  N   UNL     1      44.390   6.672  11.567  0.00  0.00    +0.000 N 
ATOM     20  O   UNL     1      43.175   6.524  11.385  0.00  0.00    +0.000 OA
ATOM     21  O   UNL     1      45.069   7.627  11.162  0.00  0.00    +0.000 OA
ENDBRANCH  18  19
ENDBRANCH  12  13
ENDBRANCH   1  12
TORSDOF 6
ENDMDL
MODEL 3
REMARK VINA RESULT:    -6.984      1.942      2.497
REMARK INTER + INTRA:          -9.143
REMARK INTER:                  -8.733
REMARK INTRA:                  -0.410
REMARK UNBOUND:                 0.087
REMARK  Name = 
REMARK  6 active torsions:
REMARK  status: ('A' for Active; 'I' for Inactive)
REMARK    1  A    between atoms: N_1  and  C_2
REMARK    2  A    between atoms: C_2  and  C_3
REMARK    3  A    between atoms: C_6  and  C_7
REMARK    4  A    between atoms: C_7  and  O_8
REMARK    5  A    between atoms: O_8  and  C_9
REMARK    6  A    between atoms: C_14  and  N_15
REMARK                            x       y       z     vdW  Elec       q    Type
REMARK                         _______ _______ _______ _____ _____    ______ ____
ROOT
ATOM      1  C   UNL     1      44.512   4.849  10.415  0.00  0.00    +0.000 C 
ENDROOT
BRANCH   1   5
ATOM      2  C   UNL     1      46.471   2.352   7.470  0.00  0.00    +0.000 A 
ATOM      3  C   UNL     1      45.768   1.779   8.538  0.00  0.00    +0.000 A 
ATOM      4  C   UNL     1      45.150   2.582   9.500  0.00  0.00    +0.000 A 
ATOM      5  C   UNL     1      45.218   3.977   9.406  0.00  0.00    +0.000 A 
ATOM      6  C   UNL     1      45.937   4.554   8.351  0.00  0.00    +0.000 A 
ATOM      7  C   UNL     1      46.554   3.749   7.390  0.00  0.00    +0.000 A 
BRANCH   2   8
ATOM      8  C   UNL     1      47.149   1.481   6.443  0.00  0.00    +0.000 C 
BRANCH   8   9
ATOM      9  N   UNL     1      48.527   1.899   6.203  0.00  0.00    +0.000 NA
ATOM     10  H   UNL     1      49.121   1.074   6.167  0.00  0.00    +0.000 HD
ATOM     11  H   UNL     1      48.843   2.450   7.000  0.00  0.00    +0.000 HD
ENDBRANCH   8   9
ENDBRANCH   2   8
ENDBRANCH   1   5
BRANCH   1  12
ATOM     12  O   UNL     1      45.402   5.864  10.886  0.00  0.00    +0.000 OA
BRANCH  12  13
ATOM     13  C   UNL     1      46.021   5.510  12.068  0.00  0.00    +0.000 A 
ATOM     14  N   UNL     1      45.610   4.375  12.690  0.00  0.00    +0.000 NA
ATOM     15  C   UNL     1      46.176   4.063  13.878  0.00  0.00    +0.000 A 
ATOM     16  C   UNL     1      47.152   4.834  14.490  0.00  0.00    +0.000 A 
ATOM     17  C   UNL     1      47.576   5.992  13.845  0.00  0.00    +0.000 A 
ATOM     18  C   UNL     1      46.997   6.321  12.615  0.00  0.00    +0.000 A 
BRANCH  18  19
ATOM     19  N   UNL     1      47.405   7.532  11.954  0.00  0.00    +0.000 N 
ATOM     20  O   UNL     1      46.684   8.529  12.087  0.00  0.00    +0.000 OA
ATOM     21  O   UNL     1      48.412   7.462  11.235  0.00  0.00    +0.000 OA
ENDBRANCH  18  19
ENDBRANCH  12  13
ENDBRANCH   1  12
TORSDOF 6
ENDMDL
MODEL 4
REMARK VINA RESULT:    -6.715      2.288      3.181
REMARK INTER + INTRA:          -8.786
REMARK INTER:                  -8.352
REMARK INTRA:                  -0.434
REMARK UNBOUND:                 0.087
REMARK  Name = 
REMARK  6 active torsions:
REMARK  status: ('A' for Active; 'I' for Inactive)
REMARK    1  A    between atoms: N_1  and  C_2
REMARK    2  A    between atoms: C_2  and  C_3
REMARK    3  A    between atoms: C_6  and  C_7
REMARK    4  A    between atoms: C_7  and  O_8
REMARK    5  A    between atoms: O_8  and  C_9
REMARK    6  A    between atoms: C_14  and  N_15
REMARK                            x       y       z     vdW  Elec       q    Type
REMARK                         _______ _______ _______ _____ _____    ______ ____
ROOT
ATOM      1  C   UNL     1      45.192   4.836  13.257  0.00  0.00    +0.000 C 
ENDROOT
BRANCH   1   5
ATOM      2  C   UNL     1      45.286   3.901   9.030  0.00  0.00    +0.000 A 
ATOM      3  C   UNL     1      44.962   2.916   9.972  0.00  0.00    +0.000 A 
ATOM      4  C   UNL     1      44.948   3.210  11.337  0.00  0.00    +0.000 A 
ATOM      5  C   UNL     1      45.252   4.501  11.787  0.00  0.00    +0.000 A 
ATOM      6  C   UNL     1      45.598   5.483  10.849  0.00  0.00    +0.000 A 
ATOM      7  C   UNL     1      45.610   5.187   9.483  0.00  0.00    +0.000 A 
BRANCH   2   8
ATOM      8  C   UNL     1      45.314   3.575   7.558  0.00  0.00    +0.000 C 
BRANCH   8   9
ATOM      9  N   UNL     1      46.527   4.071   6.916  0.00  0.00    +0.000 NA
ATOM     10  H   UNL     1      46.357   5.012   6.568  0.00  0.00    +0.000 HD
ATOM     11  H   UNL     1      46.725   3.492   6.102  0.00  0.00    +0.000 HD
ENDBRANCH   8   9
ENDBRANCH   2   8
ENDBRANCH   1   5
BRANCH   1  12
ATOM     12  O   UNL     1      46.270   4.194  13.944  0.00  0.00    +0.000 OA
BRANCH  12  13
ATOM     13  C   UNL     1      47.128   5.100  14.533  0.00  0.00    +0.000 A 
ATOM     14  N   UNL     1      47.347   6.280  13.898  0.00  0.00    +0.000 NA
ATOM     15  C   UNL     1      48.234   7.139  14.447  0.00  0.00    +0.000 A 
ATOM     16  C   UNL     1      48.926   6.885  15.622  0.00  0.00    +0.000 A 
ATOM     17  C   UNL     1      48.691   5.678  16.274  0.00  0.00    +0.000 A 
ATOM     18  C   UNL     1      47.774   4.783  15.714  0.00  0.00    +0.000 A 
BRANCH  18  19
ATOM     19  N   UNL     1      47.547   3.520  16.362  0.00  0.00    +0.000 N 
ATOM     20  O   UNL     1      48.326   2.594  16.102  0.00  0.00    +0.000 OA
ATOM     21  O   UNL     1      46.537   3.434  17.076  0.00  0.00    +0.000 OA
ENDBRANCH  18  19
ENDBRANCH  12  13
ENDBRANCH   1  12
TORSDOF 6
ENDMDL
MODEL 5
REMARK VINA RESULT:    -6.536      2.060      5.921
REMARK INTER + INTRA:          -8.550
REMARK INTER:                  -8.041
REMARK INTRA:                  -0.509
REMARK UNBOUND:                 0.087
REMARK  Name = 
REMARK  6 active torsions:
REMARK  status: ('A' for Active; 'I' for Inactive)
REMARK    1  A    between atoms: N_1  and  C_2
REMARK    2  A    between atoms: C_2  and  C_3
REMARK    3  A    between atoms: C_6  and  C_7
REMARK    4  A    between atoms: C_7  and  O_8
REMARK    5  A    between atoms: O_8  and  C_9
REMARK    6  A    between atoms: C_14  and  N_15
REMARK                            x       y       z     vdW  Elec       q    Type
REMARK                         _______ _______ _______ _____ _____    ______ ____
ROOT
ATOM      1  C   UNL     1      45.889   6.615  10.660  0.00  0.00    +0.000 C 
ENDROOT
BRANCH   1   5
ATOM      2  C   UNL     1      48.477   6.765  14.129  0.00  0.00    +0.000 A 
ATOM      3  C   UNL     1      48.731   7.574  13.013  0.00  0.00    +0.000 A 
ATOM      4  C   UNL     1      47.908   7.515  11.886  0.00  0.00    +0.000 A 
ATOM      5  C   UNL     1      46.809   6.648  11.856  0.00  0.00    +0.000 A 
ATOM      6  C   UNL     1      46.565   5.822  12.961  0.00  0.00    +0.000 A 
ATOM      7  C   UNL     1      47.388   5.883  14.089  0.00  0.00    +0.000 A 
BRANCH   2   8
ATOM      8  C   UNL     1      49.377   6.822  15.337  0.00  0.00    +0.000 C 
BRANCH   8   9
ATOM      9  N   UNL     1      49.247   5.627  16.165  0.00  0.00    +0.000 NA
ATOM     10  H   UNL     1      48.374   5.678  16.685  0.00  0.00    +0.000 HD
ATOM     11  H   UNL     1      49.997   5.628  16.856  0.00  0.00    +0.000 HD
ENDBRANCH   8   9
ENDBRANCH   2   8
ENDBRANCH   1   5
BRANCH   1  12
ATOM     12  O   UNL     1      44.943   5.553  10.806  0.00  0.00    +0.000 OA
BRANCH  12  13
ATOM     13  C   UNL     1      45.178   4.518   9.925  0.00  0.00    +0.000 A 
ATOM     14  N   UNL     1      45.736   4.814   8.723  0.00  0.00    +0.000 NA
ATOM     15  C   UNL     1      45.910   3.806   7.839  0.00  0.00    +0.000 A 
ATOM     16  C   UNL     1      45.555   2.490   8.094  0.00  0.00    +0.000 A 
ATOM     17  C   UNL     1      44.992   2.189   9.330  0.00  0.00    +0.000 A 
ATOM     18  C   UNL     1      44.810   3.226  10.252  0.00  0.00    +0.000 A 
BRANCH  18  19
ATOM     19  N   UNL     1      44.199   2.932  11.520  0.00  0.00    +0.000 N 
ATOM     20  O   UNL     1      44.941   2.845  12.507  0.00  0.00    +0.000 OA
ATOM     21  O   UNL     1      42.980   2.710  11.513  0.00  0.00    +0.000 OA
ENDBRANCH  18  19
ENDBRANCH  12  13
ENDBRANCH   1  12
TORSDOF 6
ENDMDL
MODEL 6
REMARK VINA RESULT:    -6.419      4.448      7.174
REMARK INTER + INTRA:          -8.395
REMARK INTER:                  -8.001
REMARK INTRA:                  -0.395
REMARK UNBOUND:                 0.087
REMARK  Name = 
REMARK  6 active torsions:
REMARK  status: ('A' for Active; 'I' for Inactive)
REMARK    1  A    between atoms: N_1  and  C_2
REMARK    2  A    between atoms: C_2  and  C_3
REMARK    3  A    between atoms: C_6  and  C_7
REMARK    4  A    between atoms: C_7  and  O_8
REMARK    5  A    between atoms: O_8  and  C_9
REMARK    6  A    between atoms: C_14  and  N_15
REMARK                            x       y       z     vdW  Elec       q    Type
REMARK                         _______ _______ _______ _____ _____    ______ ____
ROOT
ATOM      1  C   UNL     1      47.191   4.354  16.355  0.00  0.00    +0.000 C 
ENDROOT
BRANCH   1   5
ATOM      2  C   UNL     1      50.918   2.418  17.409  0.00  0.00    +0.000 A 
ATOM      3  C   UNL     1      49.892   1.698  16.782  0.00  0.00    +0.000 A 
ATOM      4  C   UNL     1      48.682   2.316  16.457  0.00  0.00    +0.000 A 
ATOM      5  C   UNL     1      48.478   3.671  16.747  0.00  0.00    +0.000 A 
ATOM      6  C   UNL     1      49.494   4.388  17.392  0.00  0.00    +0.000 A 
ATOM      7  C   UNL     1      50.704   3.768  17.716  0.00  0.00    +0.000 A 
BRANCH   2   8
ATOM      8  C   UNL     1      52.217   1.743  17.771  0.00  0.00    +0.000 C 
BRANCH   8   9
ATOM      9  N   UNL     1      52.015   0.346  18.142  0.00  0.00    +0.000 NA
ATOM     10  H   UNL     1      51.590   0.307  19.065  0.00  0.00    +0.000 HD
ATOM     11  H   UNL     1      52.926  -0.104  18.223  0.00  0.00    +0.000 HD
ENDBRANCH   8   9
ENDBRANCH   2   8
ENDBRANCH   1   5
BRANCH   1  12
ATOM     12  O   UNL     1      46.736   3.847  15.097  0.00  0.00    +0.000 OA
BRANCH  12  13
ATOM     13  C   UNL     1      46.889   4.764  14.078  0.00  0.00    +0.000 A 
ATOM     14  N   UNL     1      47.895   5.671  14.178  0.00  0.00    +0.000 NA
ATOM     15  C   UNL     1      48.004   6.605  13.207  0.00  0.00    +0.000 A 
ATOM     16  C   UNL     1      47.151   6.685  12.116  0.00  0.00    +0.000 A 
ATOM     17  C   UNL     1      46.127   5.748  12.014  0.00  0.00    +0.000 A 
ATOM     18  C   UNL     1      46.007   4.776  13.013  0.00  0.00    +0.000 A 
BRANCH  18  19
ATOM     19  N   UNL     1      44.934   3.823  12.933  0.00  0.00    +0.000 N 
ATOM     20  O   UNL     1      43.851   4.135  13.445  0.00  0.00    +0.000 OA
ATOM     21  O   UNL     1      45.201   2.725  12.424  0.00  0.00    +0.000 OA
ENDBRANCH  18  19
ENDBRANCH  12  13
ENDBRANCH   1  12
TORSDOF 6
ENDMDL
MODEL 7
REMARK VINA RESULT:    -6.292      3.299      4.966
REMARK INTER + INTRA:          -8.228
REMARK INTER:                  -7.775
REMARK INTRA:                  -0.453
REMARK UNBOUND:                 0.087
REMARK  Name = 
REMARK  6 active torsions:
REMARK  status: ('A' for Active; 'I' for Inactive)
REMARK    1  A    between atoms: N_1  and  C_2
REMARK    2  A    between atoms: C_2  and  C_3
REMARK    3  A    between atoms: C_6  and  C_7
REMARK    4  A    between atoms: C_7  and  O_8
REMARK    5  A    between atoms: O_8  and  C_9
REMARK    6  A    between atoms: C_14  and  N_15
REMARK                            x       y       z     vdW  Elec       q    Type
REMARK                         _______ _______ _______ _____ _____    ______ ____
ROOT
ATOM      1  C   UNL     1      47.434   6.367  13.967  0.00  0.00    +0.000 C 
ENDROOT
BRANCH   1   5
ATOM      2  C   UNL     1      44.984   4.331  11.034  0.00  0.00    +0.000 A 
ATOM      3  C   UNL     1      45.209   3.763  12.295  0.00  0.00    +0.000 A 
ATOM      4  C   UNL     1      46.013   4.409  13.237  0.00  0.00    +0.000 A 
ATOM      5  C   UNL     1      46.603   5.642  12.936  0.00  0.00    +0.000 A 
ATOM      6  C   UNL     1      46.398   6.204  11.670  0.00  0.00    +0.000 A 
ATOM      7  C   UNL     1      45.592   5.556  10.729  0.00  0.00    +0.000 A 
BRANCH   2   8
ATOM      8  C   UNL     1      44.127   3.623  10.016  0.00  0.00    +0.000 C 
BRANCH   8   9
ATOM      9  N   UNL     1      44.078   4.348   8.750  0.00  0.00    +0.000 NA
ATOM     10  H   UNL     1      45.022   4.434   8.381  0.00  0.00    +0.000 HD
ATOM     11  H   UNL     1      43.750   5.296   8.931  0.00  0.00    +0.000 HD
ENDBRANCH   8   9
ENDBRANCH   2   8
ENDBRANCH   1   5
BRANCH   1  12
ATOM     12  O   UNL     1      48.256   5.432  14.671  0.00  0.00    +0.000 OA
BRANCH  12  13
ATOM     13  C   UNL     1      48.423   5.778  15.997  0.00  0.00    +0.000 A 
ATOM     14  N   UNL     1      48.871   7.028  16.281  0.00  0.00    +0.000 NA
ATOM     15  C   UNL     1      49.091   7.343  17.577  0.00  0.00    +0.000 A 
ATOM     16  C   UNL     1      48.880   6.463  18.628  0.00  0.00    +0.000 A 
ATOM     17  C   UNL     1      48.412   5.187  18.333  0.00  0.00    +0.000 A 
ATOM     18  C   UNL     1      48.181   4.853  16.995  0.00  0.00    +0.000 A 
BRANCH  18  19
ATOM     19  N   UNL     1      47.728   3.526  16.676  0.00  0.00    +0.000 N 
ATOM     20  O   UNL     1      46.553   3.242  16.941  0.00  0.00    +0.000 OA
ATOM     21  O   UNL     1      48.576   2.740  16.229  0.00  0.00    +0.000 OA
ENDBRANCH  18  19
ENDBRANCH  12  13
ENDBRANCH   1  12
TORSDOF 6
ENDMDL
MODEL 8
REMARK VINA RESULT:    -6.151      3.840      5.627
REMARK INTER + INTRA:          -8.041
REMARK INTER:                  -7.589
REMARK INTRA:                  -0.452
REMARK UNBOUND:                 0.087
REMARK  Name = 
REMARK  6 active torsions:
REMARK  status: ('A' for Active; 'I' for Inactive)
REMARK    1  A    between atoms: N_1  and  C_2
REMARK    2  A    between atoms: C_2  and  C_3
REMARK    3  A    between atoms: C_6  and  C_7
REMARK    4  A    between atoms: C_7  and  O_8
REMARK    5  A    between atoms: O_8  and  C_9
REMARK    6  A    between atoms: C_14  and  N_15
REMARK                            x       y       z     vdW  Elec       q    Type
REMARK                         _______ _______ _______ _____ _____    ______ ____
ROOT
ATOM      1  C   UNL     1      47.217   5.068  14.507  0.00  0.00    +0.000 C 
ENDROOT
BRANCH   1   5
ATOM      2  C   UNL     1      44.925   4.423  10.890  0.00  0.00    +0.000 A 
ATOM      3  C   UNL     1      45.423   5.695  11.203  0.00  0.00    +0.000 A 
ATOM      4  C   UNL     1      46.148   5.910  12.378  0.00  0.00    +0.000 A 
ATOM      5  C   UNL     1      46.394   4.852  13.261  0.00  0.00    +0.000 A 
ATOM      6  C   UNL     1      45.880   3.583  12.962  0.00  0.00    +0.000 A 
ATOM      7  C   UNL     1      45.156   3.370  11.786  0.00  0.00    +0.000 A 
BRANCH   2   8
ATOM      8  C   UNL     1      44.130   4.201   9.629  0.00  0.00    +0.000 C 
BRANCH   8   9
ATOM      9  N   UNL     1      44.114   2.794   9.240  0.00  0.00    +0.000 NA
ATOM     10  H   UNL     1      43.503   2.679   8.435  0.00  0.00    +0.000 HD
ATOM     11  H   UNL     1      43.701   2.252   9.998  0.00  0.00    +0.000 HD
ENDBRANCH   8   9
ENDBRANCH   2   8
ENDBRANCH   1   5
BRANCH   1  12
ATOM     12  O   UNL     1      46.805   4.151  15.525  0.00  0.00    +0.000 OA
BRANCH  12  13
ATOM     13  C   UNL     1      47.875   3.625  16.219  0.00  0.00    +0.000 A 
ATOM     14  N   UNL     1      48.475   2.513  15.723  0.00  0.00    +0.000 NA
ATOM     15  C   UNL     1      49.484   1.965  16.438  0.00  0.00    +0.000 A 
ATOM     16  C   UNL     1      49.941   2.480  17.641  0.00  0.00    +0.000 A 
ATOM     17  C   UNL     1      49.329   3.625  18.141  0.00  0.00    +0.000 A 
ATOM     18  C   UNL     1      48.285   4.199  17.408  0.00  0.00    +0.000 A 
BRANCH  18  19
ATOM     19  N   UNL     1      47.625   5.364  17.931  0.00  0.00    +0.000 N 
ATOM     20  O   UNL     1      48.203   6.452  17.814  0.00  0.00    +0.000 OA
ATOM     21  O   UNL     1      46.557   5.177  18.532  0.00  0.00    +0.000 OA
ENDBRANCH  18  19
ENDBRANCH  12  13
ENDBRANCH   1  12
TORSDOF 6
ENDMDL
MODEL 9
REMARK VINA RESULT:    -6.120      3.260      4.764
REMARK INTER + INTRA:          -8.001
REMARK INTER:                  -7.542
REMARK INTRA:                  -0.459
REMARK UNBOUND:                 0.087
REMARK  Name = 
REMARK  6 active torsions:
REMARK  status: ('A' for Active; 'I' for Inactive)
REMARK    1  A    between atoms: N_1  and  C_2
REMARK    2  A    between atoms: C_2  and  C_3
REMARK    3  A    between atoms: C_6  and  C_7
REMARK    4  A    between atoms: C_7  and  O_8
REMARK    5  A    between atoms: O_8  and  C_9
REMARK    6  A    between atoms: C_14  and  N_15
REMARK                            x       y       z     vdW  Elec       q    Type
REMARK                         _______ _______ _______ _____ _____    ______ ____
ROOT
ATOM      1  C   UNL     1      46.018   5.113  14.002  0.00  0.00    +0.000 C 
ENDROOT
BRANCH   1   5
ATOM      2  C   UNL     1      45.158   4.237   9.850  0.00  0.00    +0.000 A 
ATOM      3  C   UNL     1      45.661   5.490  10.226  0.00  0.00    +0.000 A 
ATOM      4  C   UNL     1      45.923   5.781  11.567  0.00  0.00    +0.000 A 
ATOM      5  C   UNL     1      45.692   4.820  12.558  0.00  0.00    +0.000 A 
ATOM      6  C   UNL     1      45.169   3.574  12.188  0.00  0.00    +0.000 A 
ATOM      7  C   UNL     1      44.909   3.284  10.846  0.00  0.00    +0.000 A 
BRANCH   2   8
ATOM      8  C   UNL     1      44.864   3.933   8.403  0.00  0.00    +0.000 C 
BRANCH   8   9
ATOM      9  N   UNL     1      46.000   4.245   7.542  0.00  0.00    +0.000 NA
ATOM     10  H   UNL     1      45.792   3.938   6.595  0.00  0.00    +0.000 HD
ATOM     11  H   UNL     1      46.804   3.702   7.854  0.00  0.00    +0.000 HD
ENDBRANCH   8   9
ENDBRANCH   2   8
ENDBRANCH   1   5
BRANCH   1  12
ATOM     12  O   UNL     1      47.409   4.884  14.242  0.00  0.00    +0.000 OA
BRANCH  12  13
ATOM     13  C   UNL     1      47.675   4.626  15.571  0.00  0.00    +0.000 A 
ATOM     14  N   UNL     1      47.126   3.517  16.129  0.00  0.00    +0.000 NA
ATOM     15  C   UNL     1      47.340   3.299  17.447  0.00  0.00    +0.000 A 
ATOM     16  C   UNL     1      48.089   4.141  18.253  0.00  0.00    +0.000 A 
ATOM     17  C   UNL     1      48.657   5.272  17.674  0.00  0.00    +0.000 A 
ATOM     18  C   UNL     1      48.442   5.505  16.312  0.00  0.00    +0.000 A 
BRANCH  18  19
ATOM     19  N   UNL     1      48.998   6.687  15.711  0.00  0.00    +0.000 N 
ATOM     20  O   UNL     1      50.126   6.599  15.209  0.00  0.00    +0.000 OA
ATOM     21  O   UNL     1      48.333   7.728  15.811  0.00  0.00    +0.000 OA
ENDBRANCH  18  19
ENDBRANCH  12  13
ENDBRANCH   1  12
TORSDOF 6
ENDMDL
