MODEL 1
REMARK VINA RESULT:    -8.609      0.000      0.000
REMARK INTER + INTRA:         -11.040
REMARK INTER:                 -10.622
REMARK INTRA:                  -0.418
REMARK UNBOUND:                -0.418
REMARK  Name = 
REMARK  5 active torsions:
REMARK  status: ('A' for Active; 'I' for Inactive)
REMARK    1  A    between atoms: C_1  and  C_2
REMARK    2  A    between atoms: C_4  and  C_5
REMARK    3  A    between atoms: N_10  and  C_11
REMARK    4  A    between atoms: C_11  and  C_12
REMARK    5  A    between atoms: C_16  and  C_17
REMARK                            x       y       z     vdW  Elec       q    Type
REMARK                         _______ _______ _______ _____ _____    ______ ____
ROOT
ATOM      1  C   UNL     1      49.208   8.645  13.520  0.00  0.00    +0.000 C 
ATOM      2  C   UNL     1      48.180   7.563  13.403  0.00  0.00    +0.000 A 
ATOM      3  C   UNL     1      48.219   6.452  14.206  0.00  0.00    +0.000 A 
ATOM      4  C   UNL     1      47.219   5.535  13.981  0.00  0.00    +0.000 A 
ATOM      5  N   UNL     1      46.242   5.670  13.047  0.00  0.00    +0.000 NA
ATOM      6  C   UNL     1      46.298   6.780  12.307  0.00  0.00    +0.000 A 
ATOM      7  N   UNL     1      45.412   6.992  11.276  0.00  0.00    +0.000 N 
ATOM      8  N   UNL     1      47.227   7.733  12.462  0.00  0.00    +0.000 NA
ATOM      9  H   UNL     1      45.441   7.976  11.030  0.00  0.00    +0.000 HD
ENDROOT
BRANCH   4  10
ATOM     10  C   UNL     1      47.180   4.294  14.815  0.00  0.00    +0.000 C 
ATOM     11  N   UNL     1      46.797   4.462  16.118  0.00  0.00    +0.000 N 
ATOM     12  O   UNL     1      47.472   3.190  14.370  0.00  0.00    +0.000 OA
ATOM     13  H   UNL     1      46.499   5.376  16.440  0.00  0.00    +0.000 HD
ATOM     14  H   UNL     1      46.710   3.655  16.716  0.00  0.00    +0.000 HD
ENDBRANCH   4  10
BRANCH   7  15
ATOM     15  C   UNL     1      44.080   6.429  11.364  0.00  0.00    +0.000 C 
BRANCH  15  16
ATOM     16  C   UNL     1      44.053   4.951  11.026  0.00  0.00    +0.000 A 
ATOM     17  C   UNL     1      43.229   4.084  11.737  0.00  0.00    +0.000 A 
ATOM     18  C   UNL     1      43.263   2.730  11.431  0.00  0.00    +0.000 A 
ATOM     19  C   UNL     1      44.095   2.280  10.410  0.00  0.00    +0.000 A 
ATOM     20  C   UNL     1      44.868   3.197   9.696  0.00  0.00    +0.000 A 
ATOM     21  N   UNL     1      44.851   4.525  10.008  0.00  0.00    +0.000 NA
BRANCH  20  22
ATOM     22  C   UNL     1      45.705   2.783   8.542  0.00  0.00    +0.000 A 
ATOM     23  C   UNL     1      46.045   3.664   7.513  0.00  0.00    +0.000 A 
ATOM     24  C   UNL     1      46.768   3.197   6.417  0.00  0.00    +0.000 A 
ATOM     25  C   UNL     1      47.144   1.862   6.368  0.00  0.00    +0.000 A 
ATOM     26  C   UNL     1      46.794   1.050   7.431  0.00  0.00    +0.000 A 
ATOM     27  N   UNL     1      46.093   1.476   8.506  0.00  0.00    +0.000 NA
ENDBRANCH  20  22
ENDBRANCH  15  16
ENDBRANCH   7  15
TORSDOF 4
ENDMDL
MODEL 2
REMARK VINA RESULT:    -8.206      2.460      3.846
REMARK INTER + INTRA:         -10.543
REMARK INTER:                 -10.055
REMARK INTRA:                  -0.488
REMARK UNBOUND:                -0.418
REMARK  Name = 
REMARK  5 active torsions:
REMARK  status: ('A' for Active; 'I' for Inactive)
REMARK    1  A    between atoms: C_1  and  C_2
REMARK    2  A    between atoms: C_4  and  C_5
REMARK    3  A    between atoms: N_10  and  C_11
REMARK    4  A    between atoms: C_11  and  C_12
REMARK    5  A    between atoms: C_16  and  C_17
REMARK                            x       y       z     vdW  Elec       q    Type
REMARK                         _______ _______ _______ _____ _____    ______ ____
ROOT
ATOM      1  C   UNL     1      50.050   1.619  16.784  0.00  0.00    +0.000 C 
ATOM      2  C   UNL     1      49.040   2.723  16.762  0.00  0.00    +0.000 A 
ATOM      3  C   UNL     1      48.866   3.553  17.839  0.00  0.00    +0.000 A 
ATOM      4  C   UNL     1      47.895   4.515  17.683  0.00  0.00    +0.000 A 
ATOM      5  N   UNL     1      47.136   4.674  16.568  0.00  0.00    +0.000 NA
ATOM      6  C   UNL     1      47.372   3.808  15.580  0.00  0.00    +0.000 A 
ATOM      7  N   UNL     1      46.613   3.817  14.431  0.00  0.00    +0.000 N 
ATOM      8  N   UNL     1      48.304   2.847  15.637  0.00  0.00    +0.000 NA
ATOM      9  H   UNL     1      47.110   3.291  13.719  0.00  0.00    +0.000 HD
ENDROOT
BRANCH   4  10
ATOM     10  C   UNL     1      47.641   5.469  18.807  0.00  0.00    +0.000 C 
ATOM     11  N   UNL     1      46.329   5.778  19.042  0.00  0.00    +0.000 N 
ATOM     12  O   UNL     1      48.543   5.951  19.481  0.00  0.00    +0.000 OA
ATOM     13  H   UNL     1      45.601   5.314  18.510  0.00  0.00    +0.000 HD
ATOM     14  H   UNL     1      46.093   6.381  19.814  0.00  0.00    +0.000 HD
ENDBRANCH   4  10
BRANCH   7  15
ATOM     15  C   UNL     1      46.042   5.066  13.973  0.00  0.00    +0.000 C 
BRANCH  15  16
ATOM     16  C   UNL     1      45.076   4.873  12.820  0.00  0.00    +0.000 A 
ATOM     17  C   UNL     1      43.749   5.269  12.943  0.00  0.00    +0.000 A 
ATOM     18  C   UNL     1      42.881   5.035  11.884  0.00  0.00    +0.000 A 
ATOM     19  C   UNL     1      43.364   4.437  10.724  0.00  0.00    +0.000 A 
ATOM     20  C   UNL     1      44.715   4.100  10.633  0.00  0.00    +0.000 A 
ATOM     21  N   UNL     1      45.565   4.311  11.680  0.00  0.00    +0.000 NA
BRANCH  20  22
ATOM     22  C   UNL     1      45.299   3.541   9.388  0.00  0.00    +0.000 A 
ATOM     23  C   UNL     1      45.445   2.167   9.184  0.00  0.00    +0.000 A 
ATOM     24  C   UNL     1      46.073   1.705   8.028  0.00  0.00    +0.000 A 
ATOM     25  C   UNL     1      46.539   2.620   7.095  0.00  0.00    +0.000 A 
ATOM     26  C   UNL     1      46.342   3.964   7.350  0.00  0.00    +0.000 A 
ATOM     27  N   UNL     1      45.737   4.441   8.461  0.00  0.00    +0.000 NA
ENDBRANCH  20  22
ENDBRANCH  15  16
ENDBRANCH   7  15
TORSDOF 4
ENDMDL
MODEL 3
REMARK VINA RESULT:    -7.638      3.904      7.935
REMARK INTER + INTRA:          -9.842
REMARK INTER:                  -9.363
REMARK INTRA:                  -0.479
REMARK UNBOUND:                -0.418
REMARK  Name = 
REMARK  5 active torsions:
REMARK  status: ('A' for Active; 'I' for Inactive)
REMARK    1  A    between atoms: C_1  and  C_2
REMARK    2  A    between atoms: C_4  and  C_5
REMARK    3  A    between atoms: N_10  and  C_11
REMARK    4  A    between atoms: C_11  and  C_12
REMARK    5  A    between atoms: C_16  and  C_17
REMARK                            x       y       z     vdW  Elec       q    Type
REMARK                         _______ _______ _______ _____ _____    ______ ____
ROOT
ATOM      1  C   UNL     1      44.708   7.781  11.376  0.00  0.00    +0.000 C 
ATOM      2  C   UNL     1      44.861   6.384  11.891  0.00  0.00    +0.000 A 
ATOM      3  C   UNL     1      44.289   5.318  11.245  0.00  0.00    +0.000 A 
ATOM      4  C   UNL     1      44.504   4.095  11.837  0.00  0.00    +0.000 A 
ATOM      5  N   UNL     1      45.218   3.901  12.975  0.00  0.00    +0.000 NA
ATOM      6  C   UNL     1      45.724   5.003  13.535  0.00  0.00    +0.000 A 
ATOM      7  N   UNL     1      46.400   4.944  14.733  0.00  0.00    +0.000 N 
ATOM      8  N   UNL     1      45.578   6.233  13.025  0.00  0.00    +0.000 NA
ATOM      9  H   UNL     1      46.925   5.806  14.843  0.00  0.00    +0.000 HD
ENDROOT
BRANCH   4  10
ATOM     10  C   UNL     1      43.920   2.875  11.198  0.00  0.00    +0.000 C 
ATOM     11  N   UNL     1      44.543   2.442  10.059  0.00  0.00    +0.000 N 
ATOM     12  O   UNL     1      42.945   2.291  11.657  0.00  0.00    +0.000 OA
ATOM     13  H   UNL     1      45.385   2.906   9.740  0.00  0.00    +0.000 HD
ATOM     14  H   UNL     1      44.221   1.600   9.608  0.00  0.00    +0.000 HD
ENDBRANCH   4  10
BRANCH   7  15
ATOM     15  C   UNL     1      47.132   3.742  15.072  0.00  0.00    +0.000 C 
BRANCH  15  16
ATOM     16  C   UNL     1      47.863   3.863  16.395  0.00  0.00    +0.000 A 
ATOM     17  C   UNL     1      47.271   4.527  17.465  0.00  0.00    +0.000 A 
ATOM     18  C   UNL     1      47.987   4.659  18.648  0.00  0.00    +0.000 A 
ATOM     19  C   UNL     1      49.260   4.106  18.741  0.00  0.00    +0.000 A 
ATOM     20  C   UNL     1      49.791   3.410  17.655  0.00  0.00    +0.000 A 
ATOM     21  N   UNL     1      49.098   3.296  16.485  0.00  0.00    +0.000 NA
BRANCH  20  22
ATOM     22  C   UNL     1      51.107   2.726  17.731  0.00  0.00    +0.000 A 
ATOM     23  C   UNL     1      52.281   3.404  18.068  0.00  0.00    +0.000 A 
ATOM     24  C   UNL     1      53.498   2.725  18.047  0.00  0.00    +0.000 A 
ATOM     25  C   UNL     1      53.524   1.383  17.696  0.00  0.00    +0.000 A 
ATOM     26  C   UNL     1      52.322   0.769  17.395  0.00  0.00    +0.000 A 
ATOM     27  N   UNL     1      51.128   1.401  17.407  0.00  0.00    +0.000 NA
ENDBRANCH  20  22
ENDBRANCH  15  16
ENDBRANCH   7  15
TORSDOF 4
ENDMDL
MODEL 4
REMARK VINA RESULT:    -7.619      2.022      6.757
REMARK INTER + INTRA:          -9.819
REMARK INTER:                  -9.022
REMARK INTRA:                  -0.797
REMARK UNBOUND:                -0.418
REMARK  Name = 
REMARK  5 active torsions:
REMARK  status: ('A' for Active; 'I' for Inactive)
REMARK    1  A    between atoms: C_1  and  C_2
REMARK    2  A    between atoms: C_4  and  C_5
REMARK    3  A    between atoms: N_10  and  C_11
REMARK    4  A    between atoms: C_11  and  C_12
REMARK    5  A    between atoms: C_16  and  C_17
REMARK                            x       y       z     vdW  Elec       q    Type
REMARK                         _______ _______ _______ _____ _____    ______ ____
ROOT
ATOM      1  C   UNL     1      45.973   3.420   7.597  0.00  0.00    +0.000 C 
ATOM      2  C   UNL     1      45.405   3.877   8.904  0.00  0.00    +0.000 A 
ATOM      3  C   UNL     1      44.729   3.015   9.729  0.00  0.00    +0.000 A 
ATOM      4  C   UNL     1      44.253   3.575  10.892  0.00  0.00    +0.000 A 
ATOM      5  N   UNL     1      44.411   4.876  11.245  0.00  0.00    +0.000 NA
ATOM      6  C   UNL     1      45.072   5.637  10.370  0.00  0.00    +0.000 A 
ATOM      7  N   UNL     1      45.227   6.989  10.578  0.00  0.00    +0.000 N 
ATOM      8  N   UNL     1      45.581   5.178   9.219  0.00  0.00    +0.000 NA
ATOM      9  H   UNL     1      45.967   7.321   9.968  0.00  0.00    +0.000 HD
ENDROOT
BRANCH   4  10
ATOM     10  C   UNL     1      43.506   2.706  11.855  0.00  0.00    +0.000 C 
ATOM     11  N   UNL     1      43.577   3.076  13.170  0.00  0.00    +0.000 N 
ATOM     12  O   UNL     1      42.868   1.723  11.499  0.00  0.00    +0.000 OA
ATOM     13  H   UNL     1      44.058   3.930  13.427  0.00  0.00    +0.000 HD
ATOM     14  H   UNL     1      43.058   2.554  13.860  0.00  0.00    +0.000 HD
ENDBRANCH   4  10
BRANCH   7  15
ATOM     15  C   UNL     1      45.291   7.490  11.935  0.00  0.00    +0.000 C 
BRANCH  15  16
ATOM     16  C   UNL     1      46.674   7.346  12.541  0.00  0.00    +0.000 A 
ATOM     17  C   UNL     1      47.742   8.076  12.029  0.00  0.00    +0.000 A 
ATOM     18  C   UNL     1      49.004   7.885  12.577  0.00  0.00    +0.000 A 
ATOM     19  C   UNL     1      49.163   6.994  13.635  0.00  0.00    +0.000 A 
ATOM     20  C   UNL     1      48.050   6.321  14.141  0.00  0.00    +0.000 A 
ATOM     21  N   UNL     1      46.813   6.491  13.591  0.00  0.00    +0.000 NA
BRANCH  20  22
ATOM     22  C   UNL     1      48.149   5.427  15.323  0.00  0.00    +0.000 A 
ATOM     23  C   UNL     1      47.208   4.427  15.582  0.00  0.00    +0.000 A 
ATOM     24  C   UNL     1      47.310   3.672  16.748  0.00  0.00    +0.000 A 
ATOM     25  C   UNL     1      48.350   3.921  17.633  0.00  0.00    +0.000 A 
ATOM     26  C   UNL     1      49.258   4.910  17.303  0.00  0.00    +0.000 A 
ATOM     27  N   UNL     1      49.184   5.658  16.180  0.00  0.00    +0.000 NA
ENDBRANCH  20  22
ENDBRANCH  15  16
ENDBRANCH   7  15
TORSDOF 4
ENDMDL
MODEL 5
REMARK VINA RESULT:    -7.332      2.655      4.893
REMARK INTER + INTRA:          -9.465
REMARK INTER:                  -8.704
REMARK INTRA:                  -0.761
REMARK UNBOUND:                -0.418
REMARK  Name = 
REMARK  5 active torsions:
REMARK  status: ('A' for Active; 'I' for Inactive)
REMARK    1  A    between atoms: C_1  and  C_2
REMARK    2  A    between atoms: C_4  and  C_5
REMARK    3  A    between atoms: N_10  and  C_11
REMARK    4  A    between atoms: C_11  and  C_12
REMARK    5  A    between atoms: C_16  and  C_17
REMARK                            x       y       z     vdW  Elec       q    Type
REMARK                         _______ _______ _______ _____ _____    ______ ____
ROOT
ATOM      1  C   UNL     1      47.803   7.289  19.594  0.00  0.00    +0.000 C 
ATOM      2  C   UNL     1      48.066   6.542  18.323  0.00  0.00    +0.000 A 
ATOM      3  C   UNL     1      47.821   5.196  18.222  0.00  0.00    +0.000 A 
ATOM      4  C   UNL     1      48.120   4.640  17.000  0.00  0.00    +0.000 A 
ATOM      5  N   UNL     1      48.622   5.325  15.941  0.00  0.00    +0.000 NA
ATOM      6  C   UNL     1      48.836   6.627  16.142  0.00  0.00    +0.000 A 
ATOM      7  N   UNL     1      49.416   7.410  15.170  0.00  0.00    +0.000 N 
ATOM      8  N   UNL     1      48.566   7.257  17.293  0.00  0.00    +0.000 NA
ATOM      9  H   UNL     1      49.242   8.383  15.402  0.00  0.00    +0.000 HD
ENDROOT
BRANCH   4  10
ATOM     10  C   UNL     1      47.880   3.177  16.798  0.00  0.00    +0.000 C 
ATOM     11  N   UNL     1      46.980   2.597  17.650  0.00  0.00    +0.000 N 
ATOM     12  O   UNL     1      48.448   2.529  15.928  0.00  0.00    +0.000 OA
ATOM     13  H   UNL     1      46.477   3.171  18.317  0.00  0.00    +0.000 HD
ATOM     14  H   UNL     1      46.745   1.623  17.534  0.00  0.00    +0.000 HD
ENDBRANCH   4  10
BRANCH   7  15
ATOM     15  C   UNL     1      49.209   7.074  13.777  0.00  0.00    +0.000 C 
BRANCH  15  16
ATOM     16  C   UNL     1      47.778   7.309  13.332  0.00  0.00    +0.000 A 
ATOM     17  C   UNL     1      47.236   8.589  13.361  0.00  0.00    +0.000 A 
ATOM     18  C   UNL     1      45.909   8.761  12.990  0.00  0.00    +0.000 A 
ATOM     19  C   UNL     1      45.167   7.660  12.576  0.00  0.00    +0.000 A 
ATOM     20  C   UNL     1      45.771   6.403  12.520  0.00  0.00    +0.000 A 
ATOM     21  N   UNL     1      47.069   6.228  12.903  0.00  0.00    +0.000 NA
BRANCH  20  22
ATOM     22  C   UNL     1      45.051   5.212  12.003  0.00  0.00    +0.000 A 
ATOM     23  C   UNL     1      44.881   4.977  10.637  0.00  0.00    +0.000 A 
ATOM     24  C   UNL     1      44.129   3.883  10.214  0.00  0.00    +0.000 A 
ATOM     25  C   UNL     1      43.564   3.039  11.159  0.00  0.00    +0.000 A 
ATOM     26  C   UNL     1      43.790   3.317  12.495  0.00  0.00    +0.000 A 
ATOM     27  N   UNL     1      44.515   4.370  12.933  0.00  0.00    +0.000 NA
ENDBRANCH  20  22
ENDBRANCH  15  16
ENDBRANCH   7  15
TORSDOF 4
ENDMDL
MODEL 6
REMARK VINA RESULT:    -7.270      2.135      3.265
REMARK INTER + INTRA:          -9.389
REMARK INTER:                  -8.917
REMARK INTRA:                  -0.471
REMARK UNBOUND:                -0.418
REMARK  Name = 
REMARK  5 active torsions:
REMARK  status: ('A' for Active; 'I' for Inactive)
REMARK    1  A    between atoms: C_1  and  C_2
REMARK    2  A    between atoms: C_4  and  C_5
REMARK    3  A    between atoms: N_10  and  C_11
REMARK    4  A    between atoms: C_11  and  C_12
REMARK    5  A    between atoms: C_16  and  C_17
REMARK                            x       y       z     vdW  Elec       q    Type
REMARK                         _______ _______ _______ _____ _____    ______ ____
ROOT
ATOM      1  C   UNL     1      48.193   2.909  18.252  0.00  0.00    +0.000 C 
ATOM      2  C   UNL     1      48.094   3.924  17.157  0.00  0.00    +0.000 A 
ATOM      3  C   UNL     1      48.908   5.027  17.130  0.00  0.00    +0.000 A 
ATOM      4  C   UNL     1      48.700   5.881  16.072  0.00  0.00    +0.000 A 
ATOM      5  N   UNL     1      47.770   5.693  15.099  0.00  0.00    +0.000 NA
ATOM      6  C   UNL     1      47.019   4.597  15.221  0.00  0.00    +0.000 A 
ATOM      7  N   UNL     1      45.992   4.339  14.342  0.00  0.00    +0.000 N 
ATOM      8  N   UNL     1      47.158   3.704  16.209  0.00  0.00    +0.000 NA
ATOM      9  H   UNL     1      45.735   3.361  14.432  0.00  0.00    +0.000 HD
ENDROOT
BRANCH   4  10
ATOM     10  C   UNL     1      49.547   7.109  15.960  0.00  0.00    +0.000 C 
ATOM     11  N   UNL     1      50.568   7.049  15.052  0.00  0.00    +0.000 N 
ATOM     12  O   UNL     1      49.347   8.112  16.635  0.00  0.00    +0.000 OA
ATOM     13  H   UNL     1      50.668   6.230  14.462  0.00  0.00    +0.000 HD
ATOM     14  H   UNL     1      51.145   7.861  14.901  0.00  0.00    +0.000 HD
ENDBRANCH   4  10
BRANCH   7  15
ATOM     15  C   UNL     1      46.094   4.814  12.978  0.00  0.00    +0.000 C 
BRANCH  15  16
ATOM     16  C   UNL     1      45.293   3.967  12.008  0.00  0.00    +0.000 A 
ATOM     17  C   UNL     1      44.016   3.531  12.347  0.00  0.00    +0.000 A 
ATOM     18  C   UNL     1      43.329   2.718  11.455  0.00  0.00    +0.000 A 
ATOM     19  C   UNL     1      43.920   2.384  10.240  0.00  0.00    +0.000 A 
ATOM     20  C   UNL     1      45.184   2.885   9.928  0.00  0.00    +0.000 A 
ATOM     21  N   UNL     1      45.870   3.667  10.811  0.00  0.00    +0.000 NA
BRANCH  20  22
ATOM     22  C   UNL     1      45.822   2.632   8.611  0.00  0.00    +0.000 A 
ATOM     23  C   UNL     1      45.900   3.611   7.619  0.00  0.00    +0.000 A 
ATOM     24  C   UNL     1      46.441   3.291   6.375  0.00  0.00    +0.000 A 
ATOM     25  C   UNL     1      46.899   2.002   6.144  0.00  0.00    +0.000 A 
ATOM     26  C   UNL     1      46.812   1.087   7.177  0.00  0.00    +0.000 A 
ATOM     27  N   UNL     1      46.293   1.370   8.393  0.00  0.00    +0.000 NA
ENDBRANCH  20  22
ENDBRANCH  15  16
ENDBRANCH   7  15
TORSDOF 4
ENDMDL
MODEL 7
REMARK VINA RESULT:    -7.121      3.598      8.609
REMARK INTER + INTRA:          -9.204
REMARK INTER:                  -8.649
REMARK INTRA:                  -0.555
REMARK UNBOUND:                -0.418
REMARK  Name = 
REMARK  5 active torsions:
REMARK  status: ('A' for Active; 'I' for Inactive)
REMARK    1  A    between atoms: C_1  and  C_2
REMARK    2  A    between atoms: C_4  and  C_5
REMARK    3  A    between atoms: N_10  and  C_11
REMARK    4  A    between atoms: C_11  and  C_12
REMARK    5  A    between atoms: C_16  and  C_17
REMARK                            x       y       z     vdW  Elec       q    Type
REMARK                         _______ _______ _______ _____ _____    ______ ____
ROOT
ATOM      1  C   UNL     1      44.838   7.896  11.409  0.00  0.00    +0.000 C 
ATOM      2  C   UNL     1      44.981   6.481  11.876  0.00  0.00    +0.000 A 
ATOM      3  C   UNL     1      44.416   5.440  11.185  0.00  0.00    +0.000 A 
ATOM      4  C   UNL     1      44.619   4.196  11.736  0.00  0.00    +0.000 A 
ATOM      5  N   UNL     1      45.318   3.960  12.876  0.00  0.00    +0.000 NA
ATOM      6  C   UNL     1      45.818   5.039  13.482  0.00  0.00    +0.000 A 
ATOM      7  N   UNL     1      46.477   4.937  14.686  0.00  0.00    +0.000 N 
ATOM      8  N   UNL     1      45.682   6.287  13.014  0.00  0.00    +0.000 NA
ATOM      9  H   UNL     1      47.003   5.792  14.834  0.00  0.00    +0.000 HD
ENDROOT
BRANCH   4  10
ATOM     10  C   UNL     1      44.041   3.001  11.046  0.00  0.00    +0.000 C 
ATOM     11  N   UNL     1      44.785   2.487  10.019  0.00  0.00    +0.000 N 
ATOM     12  O   UNL     1      42.969   2.505  11.372  0.00  0.00    +0.000 OA
ATOM     13  H   UNL     1      45.698   2.878   9.816  0.00  0.00    +0.000 HD
ATOM     14  H   UNL     1      44.467   1.656   9.546  0.00  0.00    +0.000 HD
ENDBRANCH   4  10
BRANCH   7  15
ATOM     15  C   UNL     1      47.202   3.721  14.991  0.00  0.00    +0.000 C 
BRANCH  15  16
ATOM     16  C   UNL     1      47.869   3.772  16.353  0.00  0.00    +0.000 A 
ATOM     17  C   UNL     1      48.675   2.720  16.778  0.00  0.00    +0.000 A 
ATOM     18  C   UNL     1      49.232   2.778  18.049  0.00  0.00    +0.000 A 
ATOM     19  C   UNL     1      48.994   3.891  18.850  0.00  0.00    +0.000 A 
ATOM     20  C   UNL     1      48.216   4.941  18.358  0.00  0.00    +0.000 A 
ATOM     21  N   UNL     1      47.651   4.877  17.118  0.00  0.00    +0.000 NA
BRANCH  20  22
ATOM     22  C   UNL     1      48.004   6.187  19.136  0.00  0.00    +0.000 A 
ATOM     23  C   UNL     1      47.630   6.172  20.482  0.00  0.00    +0.000 A 
ATOM     24  C   UNL     1      47.369   7.374  21.137  0.00  0.00    +0.000 A 
ATOM     25  C   UNL     1      47.489   8.569  20.443  0.00  0.00    +0.000 A 
ATOM     26  C   UNL     1      47.884   8.512  19.119  0.00  0.00    +0.000 A 
ATOM     27  N   UNL     1      48.144   7.362  18.458  0.00  0.00    +0.000 NA
ENDBRANCH  20  22
ENDBRANCH  15  16
ENDBRANCH   7  15
TORSDOF 4
ENDMDL
MODEL 8
REMARK VINA RESULT:    -6.977      2.177      2.942
REMARK INTER + INTRA:          -9.027
REMARK INTER:                  -8.622
REMARK INTRA:                  -0.405
REMARK UNBOUND:                -0.418
REMARK  Name = 
REMARK  5 active torsions:
REMARK  status: ('A' for Active; 'I' for Inactive)
REMARK    1  A    between atoms: C_1  and  C_2
REMARK    2  A    between atoms: C_4  and  C_5
REMARK    3  A    between atoms: N_10  and  C_11
REMARK    4  A    between atoms: C_11  and  C_12
REMARK    5  A    between atoms: C_16  and  C_17
REMARK                            x       y       z     vdW  Elec       q    Type
REMARK                         _______ _______ _______ _____ _____    ______ ____
ROOT
ATOM      1  C   UNL     1      44.678  11.499  10.585  0.00  0.00    +0.000 C 
ATOM      2  C   UNL     1      44.738  10.135  11.198  0.00  0.00    +0.000 A 
ATOM      3  C   UNL     1      45.735   9.788  12.074  0.00  0.00    +0.000 A 
ATOM      4  C   UNL     1      45.671   8.499  12.550  0.00  0.00    +0.000 A 
ATOM      5  N   UNL     1      44.715   7.596  12.210  0.00  0.00    +0.000 NA
ATOM      6  C   UNL     1      43.796   8.025  11.342  0.00  0.00    +0.000 A 
ATOM      7  N   UNL     1      42.823   7.178  10.862  0.00  0.00    +0.000 N 
ATOM      8  N   UNL     1      43.771   9.265  10.835  0.00  0.00    +0.000 NA
ATOM      9  H   UNL     1      42.086   7.743  10.450  0.00  0.00    +0.000 HD
ENDROOT
BRANCH   4  10
ATOM     10  C   UNL     1      46.716   8.036  13.514  0.00  0.00    +0.000 C 
ATOM     11  N   UNL     1      47.052   8.922  14.501  0.00  0.00    +0.000 N 
ATOM     12  O   UNL     1      47.246   6.934  13.435  0.00  0.00    +0.000 OA
ATOM     13  H   UNL     1      46.550   9.800  14.580  0.00  0.00    +0.000 HD
ATOM     14  H   UNL     1      47.719   8.649  15.206  0.00  0.00    +0.000 HD
ENDBRANCH   4  10
BRANCH   7  15
ATOM     15  C   UNL     1      42.357   6.093  11.699  0.00  0.00    +0.000 C 
BRANCH  15  16
ATOM     16  C   UNL     1      43.317   4.919  11.712  0.00  0.00    +0.000 A 
ATOM     17  C   UNL     1      43.514   4.187  12.878  0.00  0.00    +0.000 A 
ATOM     18  C   UNL     1      44.435   3.147  12.867  0.00  0.00    +0.000 A 
ATOM     19  C   UNL     1      45.114   2.849  11.690  0.00  0.00    +0.000 A 
ATOM     20  C   UNL     1      44.847   3.584  10.535  0.00  0.00    +0.000 A 
ATOM     21  N   UNL     1      43.958   4.619  10.548  0.00  0.00    +0.000 NA
BRANCH  20  22
ATOM     22  C   UNL     1      45.479   3.251   9.233  0.00  0.00    +0.000 A 
ATOM     23  C   UNL     1      45.794   4.228   8.285  0.00  0.00    +0.000 A 
ATOM     24  C   UNL     1      46.313   3.847   7.050  0.00  0.00    +0.000 A 
ATOM     25  C   UNL     1      46.515   2.501   6.782  0.00  0.00    +0.000 A 
ATOM     26  C   UNL     1      46.201   1.588   7.772  0.00  0.00    +0.000 A 
ATOM     27  N   UNL     1      45.697   1.929   8.979  0.00  0.00    +0.000 NA
ENDBRANCH  20  22
ENDBRANCH  15  16
ENDBRANCH   7  15
TORSDOF 4
ENDMDL
MODEL 9
REMARK VINA RESULT:    -6.816      3.848      8.360
REMARK INTER + INTRA:          -8.828
REMARK INTER:                  -8.171
REMARK INTRA:                  -0.656
REMARK UNBOUND:                -0.418
REMARK  Name = 
REMARK  5 active torsions:
REMARK  status: ('A' for Active; 'I' for Inactive)
REMARK    1  A    between atoms: C_1  and  C_2
REMARK    2  A    between atoms: C_4  and  C_5
REMARK    3  A    between atoms: N_10  and  C_11
REMARK    4  A    between atoms: C_11  and  C_12
REMARK    5  A    between atoms: C_16  and  C_17
REMARK                            x       y       z     vdW  Elec       q    Type
REMARK                         _______ _______ _______ _____ _____    ______ ____
ROOT
ATOM      1  C   UNL     1      47.390   7.446  11.752  0.00  0.00    +0.000 C 
ATOM      2  C   UNL     1      46.894   6.243  12.493  0.00  0.00    +0.000 A 
ATOM      3  C   UNL     1      46.018   5.360  11.915  0.00  0.00    +0.000 A 
ATOM      4  C   UNL     1      45.639   4.307  12.715  0.00  0.00    +0.000 A 
ATOM      5  N   UNL     1      46.068   4.110  13.988  0.00  0.00    +0.000 NA
ATOM      6  C   UNL     1      46.909   5.031  14.464  0.00  0.00    +0.000 A 
ATOM      7  N   UNL     1      47.351   4.983  15.767  0.00  0.00    +0.000 N 
ATOM      8  N   UNL     1      47.342   6.082  13.756  0.00  0.00    +0.000 NA
ATOM      9  H   UNL     1      48.166   5.584  15.848  0.00  0.00    +0.000 HD
ENDROOT
BRANCH   4  10
ATOM     10  C   UNL     1      44.688   3.292  12.165  0.00  0.00    +0.000 C 
ATOM     11  N   UNL     1      44.937   2.872  10.886  0.00  0.00    +0.000 N 
ATOM     12  O   UNL     1      43.742   2.856  12.809  0.00  0.00    +0.000 OA
ATOM     13  H   UNL     1      45.765   3.202  10.402  0.00  0.00    +0.000 HD
ATOM     14  H   UNL     1      44.356   2.157  10.478  0.00  0.00    +0.000 HD
ENDBRANCH   4  10
BRANCH   7  15
ATOM     15  C   UNL     1      47.480   3.698  16.421  0.00  0.00    +0.000 C 
BRANCH  15  16
ATOM     16  C   UNL     1      48.912   3.390  16.816  0.00  0.00    +0.000 A 
ATOM     17  C   UNL     1      49.335   2.072  16.949  0.00  0.00    +0.000 A 
ATOM     18  C   UNL     1      50.640   1.827  17.357  0.00  0.00    +0.000 A 
ATOM     19  C   UNL     1      51.494   2.899  17.594  0.00  0.00    +0.000 A 
ATOM     20  C   UNL     1      51.035   4.203  17.402  0.00  0.00    +0.000 A 
ATOM     21  N   UNL     1      49.747   4.446  17.021  0.00  0.00    +0.000 NA
BRANCH  20  22
ATOM     22  C   UNL     1      51.929   5.378  17.557  0.00  0.00    +0.000 A 
ATOM     23  C   UNL     1      52.815   5.505  18.629  0.00  0.00    +0.000 A 
ATOM     24  C   UNL     1      53.572   6.667  18.763  0.00  0.00    +0.000 A 
ATOM     25  C   UNL     1      53.438   7.679  17.824  0.00  0.00    +0.000 A 
ATOM     26  C   UNL     1      52.559   7.479  16.775  0.00  0.00    +0.000 A 
ATOM     27  N   UNL     1      51.812   6.363  16.620  0.00  0.00    +0.000 NA
ENDBRANCH  20  22
ENDBRANCH  15  16
ENDBRANCH   7  15
TORSDOF 4
ENDMDL
