MODEL 1
REMARK VINA RESULT:    -8.703      0.000      0.000
REMARK INTER + INTRA:         -12.630
REMARK INTER:                 -11.755
REMARK INTRA:                  -0.874
REMARK UNBOUND:                -0.874
REMARK  Name = 
REMARK  6 active torsions:
REMARK  status: ('A' for Active; 'I' for Inactive)
REMARK    1  A    between atoms: C_2  and  C_4
REMARK    2  A    between atoms: N_8  and  C_9
REMARK    3  A    between atoms: C_9  and  C_10
REMARK    4  A    between atoms: C_10  and  C_13
REMARK    5  A    between atoms: C_17  and  O_18
REMARK    6  A    between atoms: O_18  and  C_19
REMARK                            x       y       z     vdW  Elec       q    Type
REMARK                         _______ _______ _______ _____ _____    ______ ____
ROOT
ATOM      1  C   UNL     1      43.589   4.728  10.945  0.00  0.00    +0.000 C 
ENDROOT
BRANCH   1   6
ATOM      2  C   UNL     1      46.483   2.622   7.497  0.00  0.00    +0.000 A 
ATOM      3  C   UNL     1      46.000   1.664   8.354  0.00  0.00    +0.000 A 
ATOM      4  N   UNL     1      45.080   1.917   9.313  0.00  0.00    +0.000 NA
ATOM      5  C   UNL     1      44.640   3.180   9.420  0.00  0.00    +0.000 A 
ATOM      6  N   UNL     1      43.638   3.393  10.342  0.00  0.00    +0.000 N 
ATOM      7  N   UNL     1      45.094   4.193   8.669  0.00  0.00    +0.000 NA
ATOM      8  C   UNL     1      46.012   3.894   7.720  0.00  0.00    +0.000 A 
ATOM      9  H   UNL     1      43.624   2.609  10.989  0.00  0.00    +0.000 HD
BRANCH   2  11
ATOM     10  N   UNL     1      47.371   3.146   5.299  0.00  0.00    +0.000 N 
ATOM     11  C   UNL     1      47.439   2.358   6.415  0.00  0.00    +0.000 C 
ATOM     12  O   UNL     1      48.299   1.493   6.531  0.00  0.00    +0.000 OA
ATOM     13  H   UNL     1      48.118   3.025   4.624  0.00  0.00    +0.000 HD
ATOM     14  H   UNL     1      46.872   4.025   5.272  0.00  0.00    +0.000 HD
ENDBRANCH   2  11
ENDBRANCH   1   6
BRANCH   1  15
ATOM     15  C   UNL     1      43.889   4.694  12.465  0.00  0.00    +0.000 C 
ATOM     16  F   UNL     1      42.947   5.438  13.118  0.00  0.00    +0.000 F 
ATOM     17  F   UNL     1      43.696   3.411  12.901  0.00  0.00    +0.000 F 
BRANCH  15  18
ATOM     18  C   UNL     1      45.281   5.189  12.762  0.00  0.00    +0.000 A 
ATOM     19  C   UNL     1      45.909   6.084  11.904  0.00  0.00    +0.000 A 
ATOM     20  N   UNL     1      47.152   6.573  12.104  0.00  0.00    +0.000 NA
ATOM     21  C   UNL     1      47.804   6.138  13.210  0.00  0.00    +0.000 A 
ATOM     22  C   UNL     1      47.267   5.255  14.137  0.00  0.00    +0.000 A 
ATOM     23  C   UNL     1      45.987   4.766  13.900  0.00  0.00    +0.000 A 
BRANCH  22  24
ATOM     24  O   UNL     1      48.062   4.911  15.197  0.00  0.00    +0.000 OA
BRANCH  24  25
ATOM     25  C   UNL     1      47.487   4.140  16.274  0.00  0.00    +0.000 C 
ATOM     26  C   UNL     1      47.778   4.623  17.719  0.00  0.00    +0.000 C 
ATOM     27  C   UNL     1      48.014   3.156  18.114  0.00  0.00    +0.000 C 
ATOM     28  C   UNL     1      48.274   2.853  16.630  0.00  0.00    +0.000 C 
ENDBRANCH  24  25
ENDBRANCH  22  24
ENDBRANCH  15  18
ENDBRANCH   1  15
TORSDOF 6
ENDMDL
MODEL 2
REMARK VINA RESULT:    -8.267      2.108      3.501
REMARK INTER + INTRA:         -12.041
REMARK INTER:                 -11.141
REMARK INTRA:                  -0.900
REMARK UNBOUND:                -0.874
REMARK  Name = 
REMARK  6 active torsions:
REMARK  status: ('A' for Active; 'I' for Inactive)
REMARK    1  A    between atoms: C_2  and  C_4
REMARK    2  A    between atoms: N_8  and  C_9
REMARK    3  A    between atoms: C_9  and  C_10
REMARK    4  A    between atoms: C_10  and  C_13
REMARK    5  A    between atoms: C_17  and  O_18
REMARK    6  A    between atoms: O_18  and  C_19
REMARK                            x       y       z     vdW  Elec       q    Type
REMARK                         _______ _______ _______ _____ _____    ______ ____
ROOT
ATOM      1  C   UNL     1      43.343   4.975  10.533  0.00  0.00    +0.000 C 
ENDROOT
BRANCH   1   6
ATOM      2  C   UNL     1      46.384   2.109   7.842  0.00  0.00    +0.000 A 
ATOM      3  C   UNL     1      46.380   3.389   7.343  0.00  0.00    +0.000 A 
ATOM      4  N   UNL     1      45.751   4.423   7.946  0.00  0.00    +0.000 NA
ATOM      5  C   UNL     1      45.094   4.157   9.086  0.00  0.00    +0.000 A 
ATOM      6  N   UNL     1      44.540   5.243   9.729  0.00  0.00    +0.000 N 
ATOM      7  N   UNL     1      44.993   2.932   9.619  0.00  0.00    +0.000 NA
ATOM      8  C   UNL     1      45.640   1.928   8.983  0.00  0.00    +0.000 A 
ATOM      9  H   UNL     1      44.470   6.009   9.065  0.00  0.00    +0.000 HD
BRANCH   2  11
ATOM     10  N   UNL     1      46.793  -0.276   7.655  0.00  0.00    +0.000 N 
ATOM     11  C   UNL     1      47.105   0.986   7.231  0.00  0.00    +0.000 C 
ATOM     12  O   UNL     1      47.922   1.173   6.338  0.00  0.00    +0.000 OA
ATOM     13  H   UNL     1      47.212  -1.036   7.132  0.00  0.00    +0.000 HD
ATOM     14  H   UNL     1      45.954  -0.493   8.178  0.00  0.00    +0.000 HD
ENDBRANCH   2  11
ENDBRANCH   1   6
BRANCH   1  15
ATOM     15  C   UNL     1      43.383   5.704  11.900  0.00  0.00    +0.000 C 
ATOM     16  F   UNL     1      43.103   7.027  11.703  0.00  0.00    +0.000 F 
ATOM     17  F   UNL     1      42.348   5.228  12.659  0.00  0.00    +0.000 F 
BRANCH  15  18
ATOM     18  C   UNL     1      44.714   5.521  12.582  0.00  0.00    +0.000 A 
ATOM     19  C   UNL     1      45.113   4.264  13.022  0.00  0.00    +0.000 A 
ATOM     20  N   UNL     1      46.290   4.022  13.639  0.00  0.00    +0.000 NA
ATOM     21  C   UNL     1      47.104   5.087  13.834  0.00  0.00    +0.000 A 
ATOM     22  C   UNL     1      46.809   6.380  13.426  0.00  0.00    +0.000 A 
ATOM     23  C   UNL     1      45.588   6.599  12.798  0.00  0.00    +0.000 A 
BRANCH  22  24
ATOM     24  O   UNL     1      47.738   7.346  13.706  0.00  0.00    +0.000 OA
BRANCH  24  25
ATOM     25  C   UNL     1      48.103   8.281  12.669  0.00  0.00    +0.000 C 
ATOM     26  C   UNL     1      49.077   7.772  11.574  0.00  0.00    +0.000 C 
ATOM     27  C   UNL     1      49.822   9.113  11.676  0.00  0.00    +0.000 C 
ATOM     28  C   UNL     1      49.211   9.286  13.075  0.00  0.00    +0.000 C 
ENDBRANCH  24  25
ENDBRANCH  22  24
ENDBRANCH  15  18
ENDBRANCH   1  15
TORSDOF 6
ENDMDL
MODEL 3
REMARK VINA RESULT:    -8.042      2.647      8.156
REMARK INTER + INTRA:         -11.737
REMARK INTER:                 -11.113
REMARK INTRA:                  -0.624
REMARK UNBOUND:                -0.874
REMARK  Name = 
REMARK  6 active torsions:
REMARK  status: ('A' for Active; 'I' for Inactive)
REMARK    1  A    between atoms: C_2  and  C_4
REMARK    2  A    between atoms: N_8  and  C_9
REMARK    3  A    between atoms: C_9  and  C_10
REMARK    4  A    between atoms: C_10  and  C_13
REMARK    5  A    between atoms: C_17  and  O_18
REMARK    6  A    between atoms: O_18  and  C_19
REMARK                            x       y       z     vdW  Elec       q    Type
REMARK                         _______ _______ _______ _____ _____    ______ ____
ROOT
ATOM      1  C   UNL     1      46.558   5.875  12.951  0.00  0.00    +0.000 C 
ENDROOT
BRANCH   1   6
ATOM      2  C   UNL     1      48.407   4.508  17.358  0.00  0.00    +0.000 A 
ATOM      3  C   UNL     1      47.449   3.612  16.952  0.00  0.00    +0.000 A 
ATOM      4  N   UNL     1      46.863   3.647  15.733  0.00  0.00    +0.000 NA
ATOM      5  C   UNL     1      47.248   4.625  14.898  0.00  0.00    +0.000 A 
ATOM      6  N   UNL     1      46.705   4.585  13.632  0.00  0.00    +0.000 N 
ATOM      7  N   UNL     1      48.132   5.578  15.225  0.00  0.00    +0.000 NA
ATOM      8  C   UNL     1      48.694   5.502  16.453  0.00  0.00    +0.000 A 
ATOM      9  H   UNL     1      45.878   3.995  13.655  0.00  0.00    +0.000 HD
BRANCH   2  11
ATOM     10  N   UNL     1      48.534   3.687  19.638  0.00  0.00    +0.000 N 
ATOM     11  C   UNL     1      49.093   4.454  18.654  0.00  0.00    +0.000 C 
ATOM     12  O   UNL     1      50.156   5.036  18.829  0.00  0.00    +0.000 OA
ATOM     13  H   UNL     1      49.089   3.566  20.478  0.00  0.00    +0.000 HD
ATOM     14  H   UNL     1      47.823   2.989  19.460  0.00  0.00    +0.000 HD
ENDBRANCH   2  11
ENDBRANCH   1   6
BRANCH   1  15
ATOM     15  C   UNL     1      45.150   6.051  12.330  0.00  0.00    +0.000 C 
ATOM     16  F   UNL     1      44.211   5.877  13.308  0.00  0.00    +0.000 F 
ATOM     17  F   UNL     1      45.023   7.358  11.942  0.00  0.00    +0.000 F 
BRANCH  15  18
ATOM     18  C   UNL     1      44.931   5.097  11.184  0.00  0.00    +0.000 A 
ATOM     19  C   UNL     1      44.052   4.028  11.315  0.00  0.00    +0.000 A 
ATOM     20  N   UNL     1      43.803   3.135  10.333  0.00  0.00    +0.000 NA
ATOM     21  C   UNL     1      44.471   3.312   9.168  0.00  0.00    +0.000 A 
ATOM     22  C   UNL     1      45.361   4.349   8.927  0.00  0.00    +0.000 A 
ATOM     23  C   UNL     1      45.600   5.250   9.959  0.00  0.00    +0.000 A 
BRANCH  22  24
ATOM     24  O   UNL     1      45.959   4.380   7.696  0.00  0.00    +0.000 OA
BRANCH  24  25
ATOM     25  C   UNL     1      46.150   3.139   6.985  0.00  0.00    +0.000 C 
ATOM     26  C   UNL     1      47.428   2.326   7.319  0.00  0.00    +0.000 C 
ATOM     27  C   UNL     1      47.606   2.071   5.813  0.00  0.00    +0.000 C 
ATOM     28  C   UNL     1      46.724   3.303   5.554  0.00  0.00    +0.000 C 
ENDBRANCH  24  25
ENDBRANCH  22  24
ENDBRANCH  15  18
ENDBRANCH   1  15
TORSDOF 6
ENDMDL
MODEL 4
REMARK VINA RESULT:    -7.279      2.900      7.334
REMARK INTER + INTRA:         -10.707
REMARK INTER:                 -10.011
REMARK INTRA:                  -0.696
REMARK UNBOUND:                -0.874
REMARK  Name = 
REMARK  6 active torsions:
REMARK  status: ('A' for Active; 'I' for Inactive)
REMARK    1  A    between atoms: C_2  and  C_4
REMARK    2  A    between atoms: N_8  and  C_9
REMARK    3  A    between atoms: C_9  and  C_10
REMARK    4  A    between atoms: C_10  and  C_13
REMARK    5  A    between atoms: C_17  and  O_18
REMARK    6  A    between atoms: O_18  and  C_19
REMARK                            x       y       z     vdW  Elec       q    Type
REMARK                         _______ _______ _______ _____ _____    ______ ____
ROOT
ATOM      1  C   UNL     1      44.475   7.001  11.351  0.00  0.00    +0.000 C 
ENDROOT
BRANCH   1   6
ATOM      2  C   UNL     1      48.656   7.406  14.009  0.00  0.00    +0.000 A 
ATOM      3  C   UNL     1      47.978   8.601  14.013  0.00  0.00    +0.000 A 
ATOM      4  N   UNL     1      46.743   8.760  13.486  0.00  0.00    +0.000 NA
ATOM      5  C   UNL     1      46.174   7.681  12.926  0.00  0.00    +0.000 A 
ATOM      6  N   UNL     1      44.881   7.846  12.479  0.00  0.00    +0.000 N 
ATOM      7  N   UNL     1      46.779   6.490  12.823  0.00  0.00    +0.000 NA
ATOM      8  C   UNL     1      48.013   6.376  13.366  0.00  0.00    +0.000 A 
ATOM      9  H   UNL     1      44.698   8.840  12.382  0.00  0.00    +0.000 HD
BRANCH   2  11
ATOM     10  N   UNL     1      51.049   7.809  14.039  0.00  0.00    +0.000 N 
ATOM     11  C   UNL     1      49.973   7.200  14.623  0.00  0.00    +0.000 C 
ATOM     12  O   UNL     1      50.092   6.548  15.653  0.00  0.00    +0.000 OA
ATOM     13  H   UNL     1      51.922   7.754  14.551  0.00  0.00    +0.000 HD
ATOM     14  H   UNL     1      50.964   8.560  13.366  0.00  0.00    +0.000 HD
ENDBRANCH   2  11
ENDBRANCH   1   6
BRANCH   1  15
ATOM     15  C   UNL     1      43.452   5.917  11.772  0.00  0.00    +0.000 C 
ATOM     16  F   UNL     1      43.523   5.745  13.127  0.00  0.00    +0.000 F 
ATOM     17  F   UNL     1      42.196   6.414  11.541  0.00  0.00    +0.000 F 
BRANCH  15  18
ATOM     18  C   UNL     1      43.690   4.621  11.041  0.00  0.00    +0.000 A 
ATOM     19  C   UNL     1      43.411   3.405  11.653  0.00  0.00    +0.000 A 
ATOM     20  N   UNL     1      43.595   2.205  11.061  0.00  0.00    +0.000 NA
ATOM     21  C   UNL     1      44.093   2.221   9.801  0.00  0.00    +0.000 A 
ATOM     22  C   UNL     1      44.396   3.376   9.094  0.00  0.00    +0.000 A 
ATOM     23  C   UNL     1      44.199   4.596   9.732  0.00  0.00    +0.000 A 
BRANCH  22  24
ATOM     24  O   UNL     1      44.898   3.217   7.831  0.00  0.00    +0.000 OA
BRANCH  24  25
ATOM     25  C   UNL     1      46.329   3.142   7.657  0.00  0.00    +0.000 C 
ATOM     26  C   UNL     1      46.881   3.417   6.233  0.00  0.00    +0.000 C 
ATOM     27  C   UNL     1      47.833   2.225   6.420  0.00  0.00    +0.000 C 
ATOM     28  C   UNL     1      46.880   1.701   7.506  0.00  0.00    +0.000 C 
ENDBRANCH  24  25
ENDBRANCH  22  24
ENDBRANCH  15  18
ENDBRANCH   1  15
TORSDOF 6
ENDMDL
MODEL 5
REMARK VINA RESULT:    -6.977      1.938      2.299
REMARK INTER + INTRA:         -10.299
REMARK INTER:                  -9.632
REMARK INTRA:                  -0.667
REMARK UNBOUND:                -0.874
REMARK  Name = 
REMARK  6 active torsions:
REMARK  status: ('A' for Active; 'I' for Inactive)
REMARK    1  A    between atoms: C_2  and  C_4
REMARK    2  A    between atoms: N_8  and  C_9
REMARK    3  A    between atoms: C_9  and  C_10
REMARK    4  A    between atoms: C_10  and  C_13
REMARK    5  A    between atoms: C_17  and  O_18
REMARK    6  A    between atoms: O_18  and  C_19
REMARK                            x       y       z     vdW  Elec       q    Type
REMARK                         _______ _______ _______ _____ _____    ______ ____
ROOT
ATOM      1  C   UNL     1      45.010   6.403  10.584  0.00  0.00    +0.000 C 
ENDROOT
BRANCH   1   6
ATOM      2  C   UNL     1      46.606   2.964   7.370  0.00  0.00    +0.000 A 
ATOM      3  C   UNL     1      45.751   2.394   8.282  0.00  0.00    +0.000 A 
ATOM      4  N   UNL     1      45.055   3.106   9.198  0.00  0.00    +0.000 NA
ATOM      5  C   UNL     1      45.233   4.436   9.202  0.00  0.00    +0.000 A 
ATOM      6  N   UNL     1      44.445   5.147  10.081  0.00  0.00    +0.000 N 
ATOM      7  N   UNL     1      46.087   5.076   8.391  0.00  0.00    +0.000 NA
ATOM      8  C   UNL     1      46.761   4.324   7.489  0.00  0.00    +0.000 A 
ATOM      9  H   UNL     1      44.086   4.506  10.783  0.00  0.00    +0.000 HD
BRANCH   2  11
ATOM     10  N   UNL     1      47.292   2.702   5.057  0.00  0.00    +0.000 N 
ATOM     11  C   UNL     1      47.327   2.216   6.334  0.00  0.00    +0.000 C 
ATOM     12  O   UNL     1      47.980   1.218   6.617  0.00  0.00    +0.000 OA
ATOM     13  H   UNL     1      47.897   2.240   4.388  0.00  0.00    +0.000 HD
ATOM     14  H   UNL     1      47.003   3.645   4.831  0.00  0.00    +0.000 HD
ENDBRANCH   2  11
ENDBRANCH   1   6
BRANCH   1  15
ATOM     15  C   UNL     1      44.695   6.625  12.085  0.00  0.00    +0.000 C 
ATOM     16  F   UNL     1      44.645   7.969  12.331  0.00  0.00    +0.000 F 
ATOM     17  F   UNL     1      43.424   6.173  12.318  0.00  0.00    +0.000 F 
BRANCH  15  18
ATOM     18  C   UNL     1      45.709   5.943  12.967  0.00  0.00    +0.000 A 
ATOM     19  C   UNL     1      45.478   4.656  13.439  0.00  0.00    +0.000 A 
ATOM     20  N   UNL     1      46.339   3.979  14.230  0.00  0.00    +0.000 NA
ATOM     21  C   UNL     1      47.480   4.623  14.575  0.00  0.00    +0.000 A 
ATOM     22  C   UNL     1      47.814   5.902  14.152  0.00  0.00    +0.000 A 
ATOM     23  C   UNL     1      46.906   6.574  13.342  0.00  0.00    +0.000 A 
BRANCH  22  24
ATOM     24  O   UNL     1      49.004   6.412  14.597  0.00  0.00    +0.000 OA
BRANCH  24  25
ATOM     25  C   UNL     1      49.303   6.344  16.008  0.00  0.00    +0.000 C 
ATOM     26  C   UNL     1      48.981   7.602  16.857  0.00  0.00    +0.000 C 
ATOM     27  C   UNL     1      50.331   7.413  17.568  0.00  0.00    +0.000 C 
ATOM     28  C   UNL     1      50.794   6.588  16.357  0.00  0.00    +0.000 C 
ENDBRANCH  24  25
ENDBRANCH  22  24
ENDBRANCH  15  18
ENDBRANCH   1  15
TORSDOF 6
ENDMDL
MODEL 6
REMARK VINA RESULT:    -6.961      2.409      2.677
REMARK INTER + INTRA:         -10.276
REMARK INTER:                  -9.626
REMARK INTRA:                  -0.650
REMARK UNBOUND:                -0.874
REMARK  Name = 
REMARK  6 active torsions:
REMARK  status: ('A' for Active; 'I' for Inactive)
REMARK    1  A    between atoms: C_2  and  C_4
REMARK    2  A    between atoms: N_8  and  C_9
REMARK    3  A    between atoms: C_9  and  C_10
REMARK    4  A    between atoms: C_10  and  C_13
REMARK    5  A    between atoms: C_17  and  O_18
REMARK    6  A    between atoms: O_18  and  C_19
REMARK                            x       y       z     vdW  Elec       q    Type
REMARK                         _______ _______ _______ _____ _____    ______ ____
ROOT
ATOM      1  C   UNL     1      43.763   5.612  10.511  0.00  0.00    +0.000 C 
ENDROOT
BRANCH   1   6
ATOM      2  C   UNL     1      46.376   2.410   7.751  0.00  0.00    +0.000 A 
ATOM      3  C   UNL     1      45.692   1.735   8.733  0.00  0.00    +0.000 A 
ATOM      4  N   UNL     1      44.794   2.323   9.555  0.00  0.00    +0.000 NA
ATOM      5  C   UNL     1      44.583   3.638   9.389  0.00  0.00    +0.000 A 
ATOM      6  N   UNL     1      43.597   4.195  10.176  0.00  0.00    +0.000 N 
ATOM      7  N   UNL     1      45.243   4.392   8.498  0.00  0.00    +0.000 NA
ATOM      8  C   UNL     1      46.131   3.761   7.695  0.00  0.00    +0.000 A 
ATOM      9  H   UNL     1      43.416   3.569  10.955  0.00  0.00    +0.000 HD
BRANCH   2  11
ATOM     10  N   UNL     1      48.405   2.504   6.422  0.00  0.00    +0.000 N 
ATOM     11  C   UNL     1      47.313   1.779   6.814  0.00  0.00    +0.000 C 
ATOM     12  O   UNL     1      47.148   0.625   6.438  0.00  0.00    +0.000 OA
ATOM     13  H   UNL     1      49.098   2.004   5.877  0.00  0.00    +0.000 HD
ATOM     14  H   UNL     1      48.721   3.335   6.905  0.00  0.00    +0.000 HD
ENDBRANCH   2  11
ENDBRANCH   1   6
BRANCH   1  15
ATOM     15  C   UNL     1      44.291   5.812  11.954  0.00  0.00    +0.000 C 
ATOM     16  F   UNL     1      43.239   5.740  12.824  0.00  0.00    +0.000 F 
ATOM     17  F   UNL     1      45.084   4.739  12.263  0.00  0.00    +0.000 F 
BRANCH  15  18
ATOM     18  C   UNL     1      45.029   7.119  12.094  0.00  0.00    +0.000 A 
ATOM     19  C   UNL     1      44.537   8.273  11.498  0.00  0.00    +0.000 A 
ATOM     20  N   UNL     1      45.140   9.479  11.581  0.00  0.00    +0.000 NA
ATOM     21  C   UNL     1      46.296   9.532  12.285  0.00  0.00    +0.000 A 
ATOM     22  C   UNL     1      46.869   8.444  12.928  0.00  0.00    +0.000 A 
ATOM     23  C   UNL     1      46.227   7.215  12.821  0.00  0.00    +0.000 A 
BRANCH  22  24
ATOM     24  O   UNL     1      48.046   8.666  13.593  0.00  0.00    +0.000 OA
BRANCH  24  25
ATOM     25  C   UNL     1      48.225   8.082  14.901  0.00  0.00    +0.000 C 
ATOM     26  C   UNL     1      48.859   8.983  15.993  0.00  0.00    +0.000 C 
ATOM     27  C   UNL     1      49.715   7.782  16.425  0.00  0.00    +0.000 C 
ATOM     28  C   UNL     1      49.478   7.179  15.032  0.00  0.00    +0.000 C 
ENDBRANCH  24  25
ENDBRANCH  22  24
ENDBRANCH  15  18
ENDBRANCH   1  15
TORSDOF 6
ENDMDL
MODEL 7
REMARK VINA RESULT:    -6.600      2.514      8.206
REMARK INTER + INTRA:          -9.789
REMARK INTER:                  -9.126
REMARK INTRA:                  -0.663
REMARK UNBOUND:                -0.874
REMARK  Name = 
REMARK  6 active torsions:
REMARK  status: ('A' for Active; 'I' for Inactive)
REMARK    1  A    between atoms: C_2  and  C_4
REMARK    2  A    between atoms: N_8  and  C_9
REMARK    3  A    between atoms: C_9  and  C_10
REMARK    4  A    between atoms: C_10  and  C_13
REMARK    5  A    between atoms: C_17  and  O_18
REMARK    6  A    between atoms: O_18  and  C_19
REMARK                            x       y       z     vdW  Elec       q    Type
REMARK                         _______ _______ _______ _____ _____    ______ ____
ROOT
ATOM      1  C   UNL     1      46.809   6.282  11.935  0.00  0.00    +0.000 C 
ENDROOT
BRANCH   1   6
ATOM      2  C   UNL     1      49.383   6.861  16.147  0.00  0.00    +0.000 A 
ATOM      3  C   UNL     1      49.463   8.002  15.387  0.00  0.00    +0.000 A 
ATOM      4  N   UNL     1      48.757   8.191  14.249  0.00  0.00    +0.000 NA
ATOM      5  C   UNL     1      47.949   7.194  13.858  0.00  0.00    +0.000 A 
ATOM      6  N   UNL     1      47.172   7.447  12.748  0.00  0.00    +0.000 N 
ATOM      7  N   UNL     1      47.847   6.022  14.502  0.00  0.00    +0.000 NA
ATOM      8  C   UNL     1      48.571   5.877  15.636  0.00  0.00    +0.000 A 
ATOM      9  H   UNL     1      47.574   8.235  12.247  0.00  0.00    +0.000 HD
BRANCH   2  11
ATOM     10  N   UNL     1      51.396   7.085  17.484  0.00  0.00    +0.000 N 
ATOM     11  C   UNL     1      50.099   6.658  17.412  0.00  0.00    +0.000 C 
ATOM     12  O   UNL     1      49.536   6.170  18.384  0.00  0.00    +0.000 OA
ATOM     13  H   UNL     1      51.826   7.048  18.401  0.00  0.00    +0.000 HD
ATOM     14  H   UNL     1      51.807   7.724  16.816  0.00  0.00    +0.000 HD
ENDBRANCH   2  11
ENDBRANCH   1   6
BRANCH   1  15
ATOM     15  C   UNL     1      45.283   6.202  11.679  0.00  0.00    +0.000 C 
ATOM     16  F   UNL     1      44.631   6.249  12.879  0.00  0.00    +0.000 F 
ATOM     17  F   UNL     1      44.908   7.344  11.024  0.00  0.00    +0.000 F 
BRANCH  15  18
ATOM     18  C   UNL     1      44.920   4.962  10.904  0.00  0.00    +0.000 A 
ATOM     19  C   UNL     1      44.233   3.923  11.520  0.00  0.00    +0.000 A 
ATOM     20  N   UNL     1      43.871   2.783  10.892  0.00  0.00    +0.000 NA
ATOM     21  C   UNL     1      44.221   2.672   9.588  0.00  0.00    +0.000 A 
ATOM     22  C   UNL     1      44.897   3.651   8.874  0.00  0.00    +0.000 A 
ATOM     23  C   UNL     1      45.260   4.811   9.550  0.00  0.00    +0.000 A 
BRANCH  22  24
ATOM     24  O   UNL     1      45.182   3.378   7.563  0.00  0.00    +0.000 OA
BRANCH  24  25
ATOM     25  C   UNL     1      46.564   3.280   7.159  0.00  0.00    +0.000 C 
ATOM     26  C   UNL     1      46.845   3.125   5.641  0.00  0.00    +0.000 C 
ATOM     27  C   UNL     1      47.898   2.061   5.989  0.00  0.00    +0.000 C 
ATOM     28  C   UNL     1      47.183   1.869   7.335  0.00  0.00    +0.000 C 
ENDBRANCH  24  25
ENDBRANCH  22  24
ENDBRANCH  15  18
ENDBRANCH   1  15
TORSDOF 6
ENDMDL
MODEL 8
REMARK VINA RESULT:    -6.282      4.106      6.296
REMARK INTER + INTRA:          -9.360
REMARK INTER:                  -8.680
REMARK INTRA:                  -0.680
REMARK UNBOUND:                -0.874
REMARK  Name = 
REMARK  6 active torsions:
REMARK  status: ('A' for Active; 'I' for Inactive)
REMARK    1  A    between atoms: C_2  and  C_4
REMARK    2  A    between atoms: N_8  and  C_9
REMARK    3  A    between atoms: C_9  and  C_10
REMARK    4  A    between atoms: C_10  and  C_13
REMARK    5  A    between atoms: C_17  and  O_18
REMARK    6  A    between atoms: O_18  and  C_19
REMARK                            x       y       z     vdW  Elec       q    Type
REMARK                         _______ _______ _______ _____ _____    ______ ____
ROOT
ATOM      1  C   UNL     1      47.007   4.347  16.505  0.00  0.00    +0.000 C 
ENDROOT
BRANCH   1   6
ATOM      2  C   UNL     1      45.412   5.146  11.867  0.00  0.00    +0.000 A 
ATOM      3  C   UNL     1      46.249   6.163  12.257  0.00  0.00    +0.000 A 
ATOM      4  N   UNL     1      46.942   6.154  13.419  0.00  0.00    +0.000 NA
ATOM      5  C   UNL     1      46.779   5.089  14.219  0.00  0.00    +0.000 A 
ATOM      6  N   UNL     1      47.564   5.060  15.351  0.00  0.00    +0.000 N 
ATOM      7  N   UNL     1      45.941   4.077  13.951  0.00  0.00    +0.000 NA
ATOM      8  C   UNL     1      45.270   4.127  12.777  0.00  0.00    +0.000 A 
ATOM      9  H   UNL     1      47.908   6.000  15.529  0.00  0.00    +0.000 HD
BRANCH   2  11
ATOM     10  N   UNL     1      45.437   5.153   9.440  0.00  0.00    +0.000 N 
ATOM     11  C   UNL     1      44.694   5.113  10.587  0.00  0.00    +0.000 C 
ATOM     12  O   UNL     1      43.475   5.001  10.551  0.00  0.00    +0.000 OA
ATOM     13  H   UNL     1      44.929   5.003   8.575  0.00  0.00    +0.000 HD
ATOM     14  H   UNL     1      46.433   4.973   9.418  0.00  0.00    +0.000 HD
ENDBRANCH   2  11
ENDBRANCH   1   6
BRANCH   1  15
ATOM     15  C   UNL     1      47.903   3.163  16.948  0.00  0.00    +0.000 C 
ATOM     16  F   UNL     1      47.163   2.316  17.725  0.00  0.00    +0.000 F 
ATOM     17  F   UNL     1      48.221   2.437  15.831  0.00  0.00    +0.000 F 
BRANCH  15  18
ATOM     18  C   UNL     1      49.132   3.644  17.676  0.00  0.00    +0.000 A 
ATOM     19  C   UNL     1      49.029   4.616  18.665  0.00  0.00    +0.000 A 
ATOM     20  N   UNL     1      50.082   5.095  19.362  0.00  0.00    +0.000 NA
ATOM     21  C   UNL     1      51.298   4.586  19.049  0.00  0.00    +0.000 A 
ATOM     22  C   UNL     1      51.512   3.607  18.089  0.00  0.00    +0.000 A 
ATOM     23  C   UNL     1      50.408   3.137  17.385  0.00  0.00    +0.000 A 
BRANCH  22  24
ATOM     24  O   UNL     1      52.806   3.206  17.889  0.00  0.00    +0.000 OA
BRANCH  24  25
ATOM     25  C   UNL     1      53.227   1.931  18.418  0.00  0.00    +0.000 C 
ATOM     26  C   UNL     1      54.743   1.608  18.357  0.00  0.00    +0.000 C 
ATOM     27  C   UNL     1      54.377   0.186  17.903  0.00  0.00    +0.000 C 
ATOM     28  C   UNL     1      53.015   0.736  17.453  0.00  0.00    +0.000 C 
ENDBRANCH  24  25
ENDBRANCH  22  24
ENDBRANCH  15  18
ENDBRANCH   1  15
TORSDOF 6
ENDMDL
MODEL 9
REMARK VINA RESULT:    -6.119      4.243      7.722
REMARK INTER + INTRA:          -9.139
REMARK INTER:                  -8.209
REMARK INTRA:                  -0.930
REMARK UNBOUND:                -0.874
REMARK  Name = 
REMARK  6 active torsions:
REMARK  status: ('A' for Active; 'I' for Inactive)
REMARK    1  A    between atoms: C_2  and  C_4
REMARK    2  A    between atoms: N_8  and  C_9
REMARK    3  A    between atoms: C_9  and  C_10
REMARK    4  A    between atoms: C_10  and  C_13
REMARK    5  A    between atoms: C_17  and  O_18
REMARK    6  A    between atoms: O_18  and  C_19
REMARK                            x       y       z     vdW  Elec       q    Type
REMARK                         _______ _______ _______ _____ _____    ______ ____
ROOT
ATOM      1  C   UNL     1      49.530   7.556  13.131  0.00  0.00    +0.000 C 
ENDROOT
BRANCH   1   6
ATOM      2  C   UNL     1      48.523   4.613  17.008  0.00  0.00    +0.000 A 
ATOM      3  C   UNL     1      49.704   5.282  17.219  0.00  0.00    +0.000 A 
ATOM      4  N   UNL     1      50.170   6.251  16.399  0.00  0.00    +0.000 NA
ATOM      5  C   UNL     1      49.425   6.552  15.324  0.00  0.00    +0.000 A 
ATOM      6  N   UNL     1      49.874   7.605  14.556  0.00  0.00    +0.000 N 
ATOM      7  N   UNL     1      48.289   5.916  15.004  0.00  0.00    +0.000 NA
ATOM      8  C   UNL     1      47.860   4.955  15.853  0.00  0.00    +0.000 A 
ATOM      9  H   UNL     1      50.852   7.768  14.774  0.00  0.00    +0.000 HD
BRANCH   2  11
ATOM     10  N   UNL     1      46.867   2.908  17.501  0.00  0.00    +0.000 N 
ATOM     11  C   UNL     1      47.974   3.598  17.914  0.00  0.00    +0.000 C 
ATOM     12  O   UNL     1      48.521   3.343  18.980  0.00  0.00    +0.000 OA
ATOM     13  H   UNL     1      46.584   2.131  18.086  0.00  0.00    +0.000 HD
ATOM     14  H   UNL     1      46.552   2.891  16.540  0.00  0.00    +0.000 HD
ENDBRANCH   2  11
ENDBRANCH   1   6
BRANCH   1  15
ATOM     15  C   UNL     1      48.557   8.693  12.727  0.00  0.00    +0.000 C 
ATOM     16  F   UNL     1      48.395   9.535  13.791  0.00  0.00    +0.000 F 
ATOM     17  F   UNL     1      49.172   9.448  11.764  0.00  0.00    +0.000 F 
BRANCH  15  18
ATOM     18  C   UNL     1      47.235   8.144  12.255  0.00  0.00    +0.000 A 
ATOM     19  C   UNL     1      46.096   8.939  12.272  0.00  0.00    +0.000 A 
ATOM     20  N   UNL     1      44.879   8.519  11.864  0.00  0.00    +0.000 NA
ATOM     21  C   UNL     1      44.794   7.240  11.427  0.00  0.00    +0.000 A 
ATOM     22  C   UNL     1      45.868   6.365  11.359  0.00  0.00    +0.000 A 
ATOM     23  C   UNL     1      47.107   6.825  11.790  0.00  0.00    +0.000 A 
BRANCH  22  24
ATOM     24  O   UNL     1      45.611   5.101  10.900  0.00  0.00    +0.000 OA
BRANCH  24  25
ATOM     25  C   UNL     1      44.315   4.519  11.158  0.00  0.00    +0.000 C 
ATOM     26  C   UNL     1      44.110   3.842  12.539  0.00  0.00    +0.000 C 
ATOM     27  C   UNL     1      43.387   2.693  11.819  0.00  0.00    +0.000 C 
ATOM     28  C   UNL     1      44.107   3.117  10.530  0.00  0.00    +0.000 C 
ENDBRANCH  24  25
ENDBRANCH  22  24
ENDBRANCH  15  18
ENDBRANCH   1  15
TORSDOF 6
ENDMDL
