MODEL 1
REMARK VINA RESULT:    -8.706      0.000      0.000
REMARK INTER + INTRA:         -12.719
REMARK INTER:                 -11.760
REMARK INTRA:                  -0.959
REMARK UNBOUND:                -0.959
REMARK  Name = 
REMARK  9 active torsions:
REMARK  status: ('A' for Active; 'I' for Inactive)
REMARK    1  A    between atoms: C_1  and  C_2
REMARK    2  A    between atoms: C_4  and  C_5
REMARK    3  A    between atoms: C_9  and  N_10
REMARK    4  A    between atoms: N_10  and  C_11
REMARK    5  A    between atoms: C_11  and  C_12
REMARK    6  A    between atoms: C_12  and  C_13
REMARK    7  A    between atoms: C_12  and  C_14
REMARK    8  A    between atoms: C_12  and  C_15
REMARK    9  A    between atoms: C_18  and  C_19
REMARK                            x       y       z     vdW  Elec       q    Type
REMARK                         _______ _______ _______ _____ _____    ______ ____
ROOT
ATOM      1  N   UNL     1      44.816   6.451  10.889  0.00  0.00    +0.000 N 
ATOM      2  H   UNL     1      44.879   6.993  10.037  0.00  0.00    +0.000 HD
ENDROOT
BRANCH   1   7
ATOM      3  C   UNL     1      44.912   3.203   9.494  0.00  0.00    +0.000 A 
ATOM      4  N   UNL     1      43.967   2.500  10.148  0.00  0.00    +0.000 NA
ATOM      5  C   UNL     1      43.286   3.161  11.091  0.00  0.00    +0.000 A 
ATOM      6  C   UNL     1      43.513   4.479  11.400  0.00  0.00    +0.000 A 
ATOM      7  C   UNL     1      44.491   5.130  10.680  0.00  0.00    +0.000 A 
ATOM      8  N   UNL     1      45.195   4.503   9.725  0.00  0.00    +0.000 NA
BRANCH   3  12
ATOM      9  C   UNL     1      47.368   3.176   5.113  0.00  0.00    +0.000 C 
ATOM     10  C   UNL     1      46.857   2.470   6.334  0.00  0.00    +0.000 A 
ATOM     11  C   UNL     1      46.121   3.155   7.295  0.00  0.00    +0.000 A 
ATOM     12  C   UNL     1      45.672   2.491   8.451  0.00  0.00    +0.000 A 
ATOM     13  C   UNL     1      45.988   1.130   8.563  0.00  0.00    +0.000 A 
ATOM     14  C   UNL     1      46.716   0.520   7.555  0.00  0.00    +0.000 A 
ATOM     15  N   UNL     1      47.158   1.158   6.451  0.00  0.00    +0.000 NA
ENDBRANCH   3  12
ENDBRANCH   1   7
BRANCH   1  16
ATOM     16  C   UNL     1      44.991   7.050  12.198  0.00  0.00    +0.000 C 
BRANCH  16  17
ATOM     17  C   UNL     1      46.488   7.181  12.616  0.00  0.00    +0.000 C 
ATOM     18  C   UNL     1      47.365   7.137  11.341  0.00  0.00    +0.000 C 
ATOM     19  C   UNL     1      46.683   8.585  13.240  0.00  0.00    +0.000 C 
BRANCH  17  20
ATOM     20  C   UNL     1      46.861   6.117  13.647  0.00  0.00    +0.000 A 
ATOM     21  C   UNL     1      46.133   4.960  13.870  0.00  0.00    +0.000 A 
ATOM     22  N   UNL     1      46.439   4.025  14.792  0.00  0.00    +0.000 NA
ATOM     23  C   UNL     1      47.547   4.273  15.528  0.00  0.00    +0.000 A 
ATOM     24  N   UNL     1      48.344   5.348  15.401  0.00  0.00    +0.000 NA
ATOM     25  C   UNL     1      47.976   6.241  14.465  0.00  0.00    +0.000 A 
BRANCH  23  26
ATOM     26  C   UNL     1      47.899   3.251  16.584  0.00  0.00    +0.000 C 
ATOM     27  N   UNL     1      46.897   2.948  17.478  0.00  0.00    +0.000 N 
ATOM     28  O   UNL     1      48.994   2.708  16.675  0.00  0.00    +0.000 OA
ATOM     29  H   UNL     1      45.999   3.412  17.415  0.00  0.00    +0.000 HD
ATOM     30  H   UNL     1      47.089   2.290  18.217  0.00  0.00    +0.000 HD
ENDBRANCH  23  26
ENDBRANCH  17  20
ENDBRANCH  16  17
ENDBRANCH   1  16
TORSDOF 6
ENDMDL
MODEL 2
REMARK VINA RESULT:    -7.998      2.650      8.304
REMARK INTER + INTRA:         -11.763
REMARK INTER:                 -11.016
REMARK INTRA:                  -0.747
REMARK UNBOUND:                -0.959
REMARK  Name = 
REMARK  9 active torsions:
REMARK  status: ('A' for Active; 'I' for Inactive)
REMARK    1  A    between atoms: C_1  and  C_2
REMARK    2  A    between atoms: C_4  and  C_5
REMARK    3  A    between atoms: C_9  and  N_10
REMARK    4  A    between atoms: N_10  and  C_11
REMARK    5  A    between atoms: C_11  and  C_12
REMARK    6  A    between atoms: C_12  and  C_13
REMARK    7  A    between atoms: C_12  and  C_14
REMARK    8  A    between atoms: C_12  and  C_15
REMARK    9  A    between atoms: C_18  and  C_19
REMARK                            x       y       z     vdW  Elec       q    Type
REMARK                         _______ _______ _______ _____ _____    ______ ____
ROOT
ATOM      1  N   UNL     1      45.781   5.437  12.122  0.00  0.00    +0.000 N 
ATOM      2  H   UNL     1      45.481   6.143  11.462  0.00  0.00    +0.000 HD
ENDROOT
BRANCH   1   7
ATOM      3  C   UNL     1      47.960   5.566  14.904  0.00  0.00    +0.000 A 
ATOM      4  N   UNL     1      48.879   6.503  14.601  0.00  0.00    +0.000 NA
ATOM      5  C   UNL     1      48.744   7.099  13.410  0.00  0.00    +0.000 A 
ATOM      6  C   UNL     1      47.740   6.795  12.525  0.00  0.00    +0.000 A 
ATOM      7  C   UNL     1      46.835   5.832  12.914  0.00  0.00    +0.000 A 
ATOM      8  N   UNL     1      46.933   5.212  14.100  0.00  0.00    +0.000 NA
BRANCH   3  12
ATOM      9  C   UNL     1      49.375   5.615  19.722  0.00  0.00    +0.000 C 
ATOM     10  C   UNL     1      48.777   4.914  18.539  0.00  0.00    +0.000 A 
ATOM     11  C   UNL     1      48.682   5.553  17.307  0.00  0.00    +0.000 A 
ATOM     12  C   UNL     1      48.092   4.899  16.212  0.00  0.00    +0.000 A 
ATOM     13  C   UNL     1      47.633   3.592  16.427  0.00  0.00    +0.000 A 
ATOM     14  C   UNL     1      47.774   3.024  17.682  0.00  0.00    +0.000 A 
ATOM     15  N   UNL     1      48.330   3.655  18.737  0.00  0.00    +0.000 NA
ENDBRANCH   3  12
ENDBRANCH   1   7
BRANCH   1  16
ATOM     16  C   UNL     1      45.180   4.117  12.164  0.00  0.00    +0.000 C 
BRANCH  16  17
ATOM     17  C   UNL     1      44.218   3.844  10.967  0.00  0.00    +0.000 C 
ATOM     18  C   UNL     1      43.172   2.788  11.402  0.00  0.00    +0.000 C 
ATOM     19  C   UNL     1      43.437   5.151  10.682  0.00  0.00    +0.000 C 
BRANCH  17  20
ATOM     20  C   UNL     1      45.002   3.445   9.718  0.00  0.00    +0.000 A 
ATOM     21  C   UNL     1      45.327   2.139   9.387  0.00  0.00    +0.000 A 
ATOM     22  N   UNL     1      46.037   1.776   8.300  0.00  0.00    +0.000 NA
ATOM     23  C   UNL     1      46.437   2.791   7.500  0.00  0.00    +0.000 A 
ATOM     24  N   UNL     1      46.177   4.094   7.701  0.00  0.00    +0.000 NA
ATOM     25  C   UNL     1      45.468   4.384   8.807  0.00  0.00    +0.000 A 
BRANCH  23  26
ATOM     26  C   UNL     1      47.254   2.411   6.287  0.00  0.00    +0.000 C 
ATOM     27  N   UNL     1      47.214   3.301   5.238  0.00  0.00    +0.000 N 
ATOM     28  O   UNL     1      47.919   1.385   6.202  0.00  0.00    +0.000 OA
ATOM     29  H   UNL     1      46.649   4.139   5.300  0.00  0.00    +0.000 HD
ATOM     30  H   UNL     1      47.723   3.082   4.395  0.00  0.00    +0.000 HD
ENDBRANCH  23  26
ENDBRANCH  17  20
ENDBRANCH  16  17
ENDBRANCH   1  16
TORSDOF 6
ENDMDL
MODEL 3
REMARK VINA RESULT:    -7.474      2.960      7.716
REMARK INTER + INTRA:         -11.055
REMARK INTER:                 -10.228
REMARK INTRA:                  -0.827
REMARK UNBOUND:                -0.959
REMARK  Name = 
REMARK  9 active torsions:
REMARK  status: ('A' for Active; 'I' for Inactive)
REMARK    1  A    between atoms: C_1  and  C_2
REMARK    2  A    between atoms: C_4  and  C_5
REMARK    3  A    between atoms: C_9  and  N_10
REMARK    4  A    between atoms: N_10  and  C_11
REMARK    5  A    between atoms: C_11  and  C_12
REMARK    6  A    between atoms: C_12  and  C_13
REMARK    7  A    between atoms: C_12  and  C_14
REMARK    8  A    between atoms: C_12  and  C_15
REMARK    9  A    between atoms: C_18  and  C_19
REMARK                            x       y       z     vdW  Elec       q    Type
REMARK                         _______ _______ _______ _____ _____    ______ ____
ROOT
ATOM      1  N   UNL     1      46.007   4.250  12.928  0.00  0.00    +0.000 N 
ATOM      2  H   UNL     1      45.938   3.242  12.971  0.00  0.00    +0.000 HD
ENDROOT
BRANCH   1   7
ATOM      3  C   UNL     1      48.505   6.360  14.272  0.00  0.00    +0.000 A 
ATOM      4  N   UNL     1      48.672   5.956  15.547  0.00  0.00    +0.000 NA
ATOM      5  C   UNL     1      47.904   4.938  15.950  0.00  0.00    +0.000 A 
ATOM      6  C   UNL     1      46.987   4.318  15.136  0.00  0.00    +0.000 A 
ATOM      7  C   UNL     1      46.883   4.784  13.844  0.00  0.00    +0.000 A 
ATOM      8  N   UNL     1      47.637   5.802  13.401  0.00  0.00    +0.000 NA
BRANCH   3  12
ATOM      9  C   UNL     1      49.327  10.232  11.182  0.00  0.00    +0.000 C 
ATOM     10  C   UNL     1      49.750   9.350  12.320  0.00  0.00    +0.000 A 
ATOM     11  C   UNL     1      48.955   8.283  12.725  0.00  0.00    +0.000 A 
ATOM     12  C   UNL     1      49.344   7.481  13.811  0.00  0.00    +0.000 A 
ATOM     13  C   UNL     1      50.558   7.802  14.433  0.00  0.00    +0.000 A 
ATOM     14  C   UNL     1      51.295   8.876  13.962  0.00  0.00    +0.000 A 
ATOM     15  N   UNL     1      50.917   9.654  12.927  0.00  0.00    +0.000 NA
ENDBRANCH   3  12
ENDBRANCH   1   7
BRANCH   1  16
ATOM     16  C   UNL     1      45.198   5.039  12.018  0.00  0.00    +0.000 C 
BRANCH  16  17
ATOM     17  C   UNL     1      44.265   4.172  11.119  0.00  0.00    +0.000 C 
ATOM     18  C   UNL     1      43.676   3.023  11.975  0.00  0.00    +0.000 C 
ATOM     19  C   UNL     1      43.070   5.058  10.685  0.00  0.00    +0.000 C 
BRANCH  17  20
ATOM     20  C   UNL     1      45.006   3.683   9.875  0.00  0.00    +0.000 A 
ATOM     21  C   UNL     1      45.217   2.349   9.569  0.00  0.00    +0.000 A 
ATOM     22  N   UNL     1      45.889   1.906   8.487  0.00  0.00    +0.000 NA
ATOM     23  C   UNL     1      46.370   2.868   7.666  0.00  0.00    +0.000 A 
ATOM     24  N   UNL     1      46.222   4.192   7.843  0.00  0.00    +0.000 NA
ATOM     25  C   UNL     1      45.546   4.562   8.945  0.00  0.00    +0.000 A 
BRANCH  23  26
ATOM     26  C   UNL     1      47.146   2.397   6.458  0.00  0.00    +0.000 C 
ATOM     27  N   UNL     1      47.020   3.173   5.328  0.00  0.00    +0.000 N 
ATOM     28  O   UNL     1      47.850   1.393   6.444  0.00  0.00    +0.000 OA
ATOM     29  H   UNL     1      46.424   3.991   5.334  0.00  0.00    +0.000 HD
ATOM     30  H   UNL     1      47.500   2.888   4.488  0.00  0.00    +0.000 HD
ENDBRANCH  23  26
ENDBRANCH  17  20
ENDBRANCH  16  17
ENDBRANCH   1  16
TORSDOF 6
ENDMDL
MODEL 4
REMARK VINA RESULT:    -7.413      3.465      7.568
REMARK INTER + INTRA:         -10.973
REMARK INTER:                 -10.378
REMARK INTRA:                  -0.595
REMARK UNBOUND:                -0.959
REMARK  Name = 
REMARK  9 active torsions:
REMARK  status: ('A' for Active; 'I' for Inactive)
REMARK    1  A    between atoms: C_1  and  C_2
REMARK    2  A    between atoms: C_4  and  C_5
REMARK    3  A    between atoms: C_9  and  N_10
REMARK    4  A    between atoms: N_10  and  C_11
REMARK    5  A    between atoms: C_11  and  C_12
REMARK    6  A    between atoms: C_12  and  C_13
REMARK    7  A    between atoms: C_12  and  C_14
REMARK    8  A    between atoms: C_12  and  C_15
REMARK    9  A    between atoms: C_18  and  C_19
REMARK                            x       y       z     vdW  Elec       q    Type
REMARK                         _______ _______ _______ _____ _____    ______ ____
ROOT
ATOM      1  N   UNL     1      46.212   5.256  11.690  0.00  0.00    +0.000 N 
ATOM      2  H   UNL     1      46.913   4.873  11.069  0.00  0.00    +0.000 HD
ENDROOT
BRANCH   1   7
ATOM      3  C   UNL     1      47.916   8.335  12.026  0.00  0.00    +0.000 A 
ATOM      4  N   UNL     1      47.081   9.138  12.714  0.00  0.00    +0.000 NA
ATOM      5  C   UNL     1      45.905   8.605  13.064  0.00  0.00    +0.000 A 
ATOM      6  C   UNL     1      45.539   7.318  12.756  0.00  0.00    +0.000 A 
ATOM      7  C   UNL     1      46.452   6.559  12.059  0.00  0.00    +0.000 A 
ATOM      8  N   UNL     1      47.644   7.056  11.690  0.00  0.00    +0.000 NA
BRANCH   3  12
ATOM      9  C   UNL     1      52.750   7.771  10.784  0.00  0.00    +0.000 C 
ATOM     10  C   UNL     1      51.554   8.641  11.035  0.00  0.00    +0.000 A 
ATOM     11  C   UNL     1      50.341   8.085  11.429  0.00  0.00    +0.000 A 
ATOM     12  C   UNL     1      49.217   8.905  11.632  0.00  0.00    +0.000 A 
ATOM     13  C   UNL     1      49.393  10.281  11.434  0.00  0.00    +0.000 A 
ATOM     14  C   UNL     1      50.637  10.756  11.051  0.00  0.00    +0.000 A 
ATOM     15  N   UNL     1      51.713   9.969  10.845  0.00  0.00    +0.000 NA
ENDBRANCH   3  12
ENDBRANCH   1   7
BRANCH   1  16
ATOM     16  C   UNL     1      45.102   4.461  12.181  0.00  0.00    +0.000 C 
BRANCH  16  17
ATOM     17  C   UNL     1      44.143   3.983  11.048  0.00  0.00    +0.000 C 
ATOM     18  C   UNL     1      43.224   2.871  11.611  0.00  0.00    +0.000 C 
ATOM     19  C   UNL     1      43.222   5.172  10.674  0.00  0.00    +0.000 C 
BRANCH  17  20
ATOM     20  C   UNL     1      44.931   3.551   9.812  0.00  0.00    +0.000 A 
ATOM     21  C   UNL     1      45.251   2.237   9.513  0.00  0.00    +0.000 A 
ATOM     22  N   UNL     1      45.966   1.845   8.439  0.00  0.00    +0.000 NA
ATOM     23  C   UNL     1      46.376   2.840   7.618  0.00  0.00    +0.000 A 
ATOM     24  N   UNL     1      46.121   4.148   7.788  0.00  0.00    +0.000 NA
ATOM     25  C   UNL     1      45.408   4.467   8.883  0.00  0.00    +0.000 A 
BRANCH  23  26
ATOM     26  C   UNL     1      47.198   2.428   6.419  0.00  0.00    +0.000 C 
ATOM     27  N   UNL     1      47.128   3.268   5.330  0.00  0.00    +0.000 N 
ATOM     28  O   UNL     1      47.891   1.418   6.377  0.00  0.00    +0.000 OA
ATOM     29  H   UNL     1      46.539   4.092   5.358  0.00  0.00    +0.000 HD
ATOM     30  H   UNL     1      47.639   3.025   4.496  0.00  0.00    +0.000 HD
ENDBRANCH  23  26
ENDBRANCH  17  20
ENDBRANCH  16  17
ENDBRANCH   1  16
TORSDOF 6
ENDMDL
MODEL 5
REMARK VINA RESULT:    -7.161      2.119      4.072
REMARK INTER + INTRA:         -10.632
REMARK INTER:                  -9.799
REMARK INTRA:                  -0.833
REMARK UNBOUND:                -0.959
REMARK  Name = 
REMARK  9 active torsions:
REMARK  status: ('A' for Active; 'I' for Inactive)
REMARK    1  A    between atoms: C_1  and  C_2
REMARK    2  A    between atoms: C_4  and  C_5
REMARK    3  A    between atoms: C_9  and  N_10
REMARK    4  A    between atoms: N_10  and  C_11
REMARK    5  A    between atoms: C_11  and  C_12
REMARK    6  A    between atoms: C_12  and  C_13
REMARK    7  A    between atoms: C_12  and  C_14
REMARK    8  A    between atoms: C_12  and  C_15
REMARK    9  A    between atoms: C_18  and  C_19
REMARK                            x       y       z     vdW  Elec       q    Type
REMARK                         _______ _______ _______ _____ _____    ______ ____
ROOT
ATOM      1  N   UNL     1      46.742   8.746  14.017  0.00  0.00    +0.000 N 
ATOM      2  H   UNL     1      46.376   8.525  14.934  0.00  0.00    +0.000 HD
ENDROOT
BRANCH   1   7
ATOM      3  C   UNL     1      44.631   7.074  11.725  0.00  0.00    +0.000 A 
ATOM      4  N   UNL     1      44.034   8.045  11.007  0.00  0.00    +0.000 NA
ATOM      5  C   UNL     1      44.366   9.302  11.324  0.00  0.00    +0.000 A 
ATOM      6  C   UNL     1      45.258   9.618  12.319  0.00  0.00    +0.000 A 
ATOM      7  C   UNL     1      45.831   8.567  13.000  0.00  0.00    +0.000 A 
ATOM      8  N   UNL     1      45.527   7.292  12.712  0.00  0.00    +0.000 NA
BRANCH   3  12
ATOM      9  C   UNL     1      45.129   3.007   8.820  0.00  0.00    +0.000 C 
ATOM     10  C   UNL     1      44.510   3.716   9.989  0.00  0.00    +0.000 A 
ATOM     11  C   UNL     1      44.839   5.037  10.275  0.00  0.00    +0.000 A 
ATOM     12  C   UNL     1      44.277   5.683  11.390  0.00  0.00    +0.000 A 
ATOM     13  C   UNL     1      43.376   4.940  12.165  0.00  0.00    +0.000 A 
ATOM     14  C   UNL     1      43.094   3.632  11.806  0.00  0.00    +0.000 A 
ATOM     15  N   UNL     1      43.642   3.007  10.743  0.00  0.00    +0.000 NA
ENDBRANCH   3  12
ENDBRANCH   1   7
BRANCH   1  16
ATOM     16  C   UNL     1      48.120   9.148  13.815  0.00  0.00    +0.000 C 
BRANCH  16  17
ATOM     17  C   UNL     1      49.095   7.941  13.665  0.00  0.00    +0.000 C 
ATOM     18  C   UNL     1      49.183   7.556  12.168  0.00  0.00    +0.000 C 
ATOM     19  C   UNL     1      50.508   8.420  14.083  0.00  0.00    +0.000 C 
BRANCH  17  20
ATOM     20  C   UNL     1      48.671   6.782  14.566  0.00  0.00    +0.000 A 
ATOM     21  C   UNL     1      48.971   6.696  15.916  0.00  0.00    +0.000 A 
ATOM     22  N   UNL     1      48.622   5.668  16.716  0.00  0.00    +0.000 NA
ATOM     23  C   UNL     1      47.927   4.674  16.118  0.00  0.00    +0.000 A 
ATOM     24  N   UNL     1      47.563   4.644  14.825  0.00  0.00    +0.000 NA
ATOM     25  C   UNL     1      47.948   5.698  14.084  0.00  0.00    +0.000 A 
BRANCH  23  26
ATOM     26  C   UNL     1      47.544   3.500  16.989  0.00  0.00    +0.000 C 
ATOM     27  N   UNL     1      48.588   2.719  17.431  0.00  0.00    +0.000 N 
ATOM     28  O   UNL     1      46.391   3.225  17.301  0.00  0.00    +0.000 OA
ATOM     29  H   UNL     1      49.539   2.935  17.158  0.00  0.00    +0.000 HD
ATOM     30  H   UNL     1      48.384   1.909  17.996  0.00  0.00    +0.000 HD
ENDBRANCH  23  26
ENDBRANCH  17  20
ENDBRANCH  16  17
ENDBRANCH   1  16
TORSDOF 6
ENDMDL
MODEL 6
REMARK VINA RESULT:    -6.939      3.810      8.113
REMARK INTER + INTRA:         -10.333
REMARK INTER:                  -9.484
REMARK INTRA:                  -0.849
REMARK UNBOUND:                -0.959
REMARK  Name = 
REMARK  9 active torsions:
REMARK  status: ('A' for Active; 'I' for Inactive)
REMARK    1  A    between atoms: C_1  and  C_2
REMARK    2  A    between atoms: C_4  and  C_5
REMARK    3  A    between atoms: C_9  and  N_10
REMARK    4  A    between atoms: N_10  and  C_11
REMARK    5  A    between atoms: C_11  and  C_12
REMARK    6  A    between atoms: C_12  and  C_13
REMARK    7  A    between atoms: C_12  and  C_14
REMARK    8  A    between atoms: C_12  and  C_15
REMARK    9  A    between atoms: C_18  and  C_19
REMARK                            x       y       z     vdW  Elec       q    Type
REMARK                         _______ _______ _______ _____ _____    ______ ____
ROOT
ATOM      1  N   UNL     1      48.269   6.381  15.860  0.00  0.00    +0.000 N 
ATOM      2  H   UNL     1      47.809   7.104  16.398  0.00  0.00    +0.000 HD
ENDROOT
BRANCH   1   7
ATOM      3  C   UNL     1      49.532   3.444  17.369  0.00  0.00    +0.000 A 
ATOM      4  N   UNL     1      48.450   2.714  17.703  0.00  0.00    +0.000 NA
ATOM      5  C   UNL     1      47.261   3.250  17.403  0.00  0.00    +0.000 A 
ATOM      6  C   UNL     1      47.117   4.471  16.792  0.00  0.00    +0.000 A 
ATOM      7  C   UNL     1      48.273   5.151  16.476  0.00  0.00    +0.000 A 
ATOM      8  N   UNL     1      49.484   4.647  16.757  0.00  0.00    +0.000 NA
BRANCH   3  12
ATOM      9  C   UNL     1      54.123   3.862  19.361  0.00  0.00    +0.000 C 
ATOM     10  C   UNL     1      53.071   3.065  18.648  0.00  0.00    +0.000 A 
ATOM     11  C   UNL     1      51.841   3.633  18.333  0.00  0.00    +0.000 A 
ATOM     12  C   UNL     1      50.850   2.869  17.691  0.00  0.00    +0.000 A 
ATOM     13  C   UNL     1      51.175   1.542  17.383  0.00  0.00    +0.000 A 
ATOM     14  C   UNL     1      52.427   1.055  17.723  0.00  0.00    +0.000 A 
ATOM     15  N   UNL     1      53.375   1.783  18.348  0.00  0.00    +0.000 NA
ENDBRANCH   3  12
ENDBRANCH   1   7
BRANCH   1  16
ATOM     16  C   UNL     1      48.912   6.659  14.590  0.00  0.00    +0.000 C 
BRANCH  16  17
ATOM     17  C   UNL     1      47.951   7.303  13.544  0.00  0.00    +0.000 C 
ATOM     18  C   UNL     1      47.453   8.661  14.096  0.00  0.00    +0.000 C 
ATOM     19  C   UNL     1      48.780   7.618  12.273  0.00  0.00    +0.000 C 
BRANCH  17  20
ATOM     20  C   UNL     1      46.820   6.343  13.180  0.00  0.00    +0.000 A 
ATOM     21  C   UNL     1      46.955   4.965  13.127  0.00  0.00    +0.000 A 
ATOM     22  N   UNL     1      45.971   4.109  12.785  0.00  0.00    +0.000 NA
ATOM     23  C   UNL     1      44.781   4.679  12.484  0.00  0.00    +0.000 A 
ATOM     24  N   UNL     1      44.518   5.997  12.511  0.00  0.00    +0.000 NA
ATOM     25  C   UNL     1      45.546   6.792  12.856  0.00  0.00    +0.000 A 
BRANCH  23  26
ATOM     26  C   UNL     1      43.668   3.742  12.076  0.00  0.00    +0.000 C 
ATOM     27  N   UNL     1      43.790   2.443  12.515  0.00  0.00    +0.000 N 
ATOM     28  O   UNL     1      42.705   4.077  11.395  0.00  0.00    +0.000 OA
ATOM     29  H   UNL     1      44.596   2.162  13.061  0.00  0.00    +0.000 HD
ATOM     30  H   UNL     1      43.086   1.773  12.249  0.00  0.00    +0.000 HD
ENDBRANCH  23  26
ENDBRANCH  17  20
ENDBRANCH  16  17
ENDBRANCH   1  16
TORSDOF 6
ENDMDL
MODEL 7
REMARK VINA RESULT:    -6.663      2.769      5.372
REMARK INTER + INTRA:          -9.959
REMARK INTER:                  -9.360
REMARK INTRA:                  -0.599
REMARK UNBOUND:                -0.959
REMARK  Name = 
REMARK  9 active torsions:
REMARK  status: ('A' for Active; 'I' for Inactive)
REMARK    1  A    between atoms: C_1  and  C_2
REMARK    2  A    between atoms: C_4  and  C_5
REMARK    3  A    between atoms: C_9  and  N_10
REMARK    4  A    between atoms: N_10  and  C_11
REMARK    5  A    between atoms: C_11  and  C_12
REMARK    6  A    between atoms: C_12  and  C_13
REMARK    7  A    between atoms: C_12  and  C_14
REMARK    8  A    between atoms: C_12  and  C_15
REMARK    9  A    between atoms: C_18  and  C_19
REMARK                            x       y       z     vdW  Elec       q    Type
REMARK                         _______ _______ _______ _____ _____    ______ ____
ROOT
ATOM      1  N   UNL     1      48.675   5.786  15.068  0.00  0.00    +0.000 N 
ATOM      2  H   UNL     1      49.397   5.233  14.625  0.00  0.00    +0.000 HD
ENDROOT
BRANCH   1   7
ATOM      3  C   UNL     1      46.072   5.930  12.679  0.00  0.00    +0.000 A 
ATOM      4  N   UNL     1      45.915   7.238  12.394  0.00  0.00    +0.000 NA
ATOM      5  C   UNL     1      46.721   8.085  13.043  0.00  0.00    +0.000 A 
ATOM      6  C   UNL     1      47.665   7.679  13.954  0.00  0.00    +0.000 A 
ATOM      7  C   UNL     1      47.769   6.325  14.183  0.00  0.00    +0.000 A 
ATOM      8  N   UNL     1      46.981   5.441  13.551  0.00  0.00    +0.000 NA
BRANCH   3  12
ATOM      9  C   UNL     1      44.584   3.644   8.462  0.00  0.00    +0.000 C 
ATOM     10  C   UNL     1      44.466   3.876   9.939  0.00  0.00    +0.000 A 
ATOM     11  C   UNL     1      45.290   4.793  10.583  0.00  0.00    +0.000 A 
ATOM     12  C   UNL     1      45.192   4.982  11.973  0.00  0.00    +0.000 A 
ATOM     13  C   UNL     1      44.227   4.223  12.648  0.00  0.00    +0.000 A 
ATOM     14  C   UNL     1      43.439   3.338  11.931  0.00  0.00    +0.000 A 
ATOM     15  N   UNL     1      43.539   3.148  10.599  0.00  0.00    +0.000 NA
ENDBRANCH   3  12
ENDBRANCH   1   7
BRANCH   1  16
ATOM     16  C   UNL     1      48.657   6.025  16.499  0.00  0.00    +0.000 C 
BRANCH  16  17
ATOM     17  C   UNL     1      48.306   4.752  17.328  0.00  0.00    +0.000 C 
ATOM     18  C   UNL     1      47.794   5.192  18.721  0.00  0.00    +0.000 C 
ATOM     19  C   UNL     1      47.121   4.042  16.625  0.00  0.00    +0.000 C 
BRANCH  17  20
ATOM     20  C   UNL     1      49.496   3.796  17.392  0.00  0.00    +0.000 A 
ATOM     21  C   UNL     1      49.452   2.470  16.994  0.00  0.00    +0.000 A 
ATOM     22  N   UNL     1      50.489   1.611  17.067  0.00  0.00    +0.000 NA
ATOM     23  C   UNL     1      51.637   2.124  17.566  0.00  0.00    +0.000 A 
ATOM     24  N   UNL     1      51.813   3.393  17.973  0.00  0.00    +0.000 NA
ATOM     25  C   UNL     1      50.736   4.192  17.877  0.00  0.00    +0.000 A 
BRANCH  23  26
ATOM     26  C   UNL     1      52.807   1.175  17.679  0.00  0.00    +0.000 C 
ATOM     27  N   UNL     1      52.510  -0.086  18.144  0.00  0.00    +0.000 N 
ATOM     28  O   UNL     1      53.961   1.472  17.389  0.00  0.00    +0.000 OA
ATOM     29  H   UNL     1      51.560  -0.325  18.402  0.00  0.00    +0.000 HD
ATOM     30  H   UNL     1      53.260  -0.750  18.261  0.00  0.00    +0.000 HD
ENDBRANCH  23  26
ENDBRANCH  17  20
ENDBRANCH  16  17
ENDBRANCH   1  16
TORSDOF 6
ENDMDL
MODEL 8
REMARK VINA RESULT:    -6.549      3.167      8.208
REMARK INTER + INTRA:          -9.805
REMARK INTER:                  -9.044
REMARK INTRA:                  -0.761
REMARK UNBOUND:                -0.959
REMARK  Name = 
REMARK  9 active torsions:
REMARK  status: ('A' for Active; 'I' for Inactive)
REMARK    1  A    between atoms: C_1  and  C_2
REMARK    2  A    between atoms: C_4  and  C_5
REMARK    3  A    between atoms: C_9  and  N_10
REMARK    4  A    between atoms: N_10  and  C_11
REMARK    5  A    between atoms: C_11  and  C_12
REMARK    6  A    between atoms: C_12  and  C_13
REMARK    7  A    between atoms: C_12  and  C_14
REMARK    8  A    between atoms: C_12  and  C_15
REMARK    9  A    between atoms: C_18  and  C_19
REMARK                            x       y       z     vdW  Elec       q    Type
REMARK                         _______ _______ _______ _____ _____    ______ ____
ROOT
ATOM      1  N   UNL     1      46.335   5.278  13.000  0.00  0.00    +0.000 N 
ATOM      2  H   UNL     1      46.809   5.797  12.272  0.00  0.00    +0.000 HD
ENDROOT
BRANCH   1   7
ATOM      3  C   UNL     1      48.743   6.013  15.482  0.00  0.00    +0.000 A 
ATOM      4  N   UNL     1      48.607   5.050  16.415  0.00  0.00    +0.000 NA
ATOM      5  C   UNL     1      47.662   4.132  16.182  0.00  0.00    +0.000 A 
ATOM      6  C   UNL     1      46.859   4.142  15.068  0.00  0.00    +0.000 A 
ATOM      7  C   UNL     1      47.068   5.154  14.158  0.00  0.00    +0.000 A 
ATOM      8  N   UNL     1      48.007   6.093  14.353  0.00  0.00    +0.000 NA
BRANCH   3  12
ATOM      9  C   UNL     1      51.278  10.103  14.043  0.00  0.00    +0.000 C 
ATOM     10  C   UNL     1      51.011   9.006  15.031  0.00  0.00    +0.000 A 
ATOM     11  C   UNL     1      50.044   8.039  14.776  0.00  0.00    +0.000 A 
ATOM     12  C   UNL     1      49.780   7.033  15.721  0.00  0.00    +0.000 A 
ATOM     13  C   UNL     1      50.542   7.053  16.897  0.00  0.00    +0.000 A 
ATOM     14  C   UNL     1      51.493   8.045  17.070  0.00  0.00    +0.000 A 
ATOM     15  N   UNL     1      51.739   9.019  16.168  0.00  0.00    +0.000 NA
ENDBRANCH   3  12
ENDBRANCH   1   7
BRANCH   1  16
ATOM     16  C   UNL     1      45.032   4.676  12.792  0.00  0.00    +0.000 C 
BRANCH  16  17
ATOM     17  C   UNL     1      44.343   5.147  11.474  0.00  0.00    +0.000 C 
ATOM     18  C   UNL     1      42.814   4.946  11.614  0.00  0.00    +0.000 C 
ATOM     19  C   UNL     1      44.579   6.672  11.337  0.00  0.00    +0.000 C 
BRANCH  17  20
ATOM     20  C   UNL     1      44.941   4.435  10.262  0.00  0.00    +0.000 A 
ATOM     21  C   UNL     1      45.595   5.081   9.225  0.00  0.00    +0.000 A 
ATOM     22  N   UNL     1      46.107   4.467   8.139  0.00  0.00    +0.000 NA
ATOM     23  C   UNL     1      45.951   3.123   8.102  0.00  0.00    +0.000 A 
ATOM     24  N   UNL     1      45.350   2.380   9.047  0.00  0.00    +0.000 NA
ATOM     25  C   UNL     1      44.859   3.058  10.099  0.00  0.00    +0.000 A 
BRANCH  23  26
ATOM     26  C   UNL     1      46.497   2.415   6.884  0.00  0.00    +0.000 C 
ATOM     27  N   UNL     1      47.129   1.216   7.123  0.00  0.00    +0.000 N 
ATOM     28  O   UNL     1      46.406   2.849   5.741  0.00  0.00    +0.000 OA
ATOM     29  H   UNL     1      47.221   0.867   8.070  0.00  0.00    +0.000 HD
ATOM     30  H   UNL     1      47.531   0.715   6.346  0.00  0.00    +0.000 HD
ENDBRANCH  23  26
ENDBRANCH  17  20
ENDBRANCH  16  17
ENDBRANCH   1  16
TORSDOF 6
ENDMDL
MODEL 9
REMARK VINA RESULT:    -6.066      3.577      6.515
REMARK INTER + INTRA:          -9.153
REMARK INTER:                  -8.463
REMARK INTRA:                  -0.690
REMARK UNBOUND:                -0.959
REMARK  Name = 
REMARK  9 active torsions:
REMARK  status: ('A' for Active; 'I' for Inactive)
REMARK    1  A    between atoms: C_1  and  C_2
REMARK    2  A    between atoms: C_4  and  C_5
REMARK    3  A    between atoms: C_9  and  N_10
REMARK    4  A    between atoms: N_10  and  C_11
REMARK    5  A    between atoms: C_11  and  C_12
REMARK    6  A    between atoms: C_12  and  C_13
REMARK    7  A    between atoms: C_12  and  C_14
REMARK    8  A    between atoms: C_12  and  C_15
REMARK    9  A    between atoms: C_18  and  C_19
REMARK                            x       y       z     vdW  Elec       q    Type
REMARK                         _______ _______ _______ _____ _____    ______ ____
ROOT
ATOM      1  N   UNL     1      46.580   4.133  15.060  0.00  0.00    +0.000 N 
ATOM      2  H   UNL     1      45.794   4.163  15.695  0.00  0.00    +0.000 HD
ENDROOT
BRANCH   1   7
ATOM      3  C   UNL     1      46.779   6.462  12.406  0.00  0.00    +0.000 A 
ATOM      4  N   UNL     1      45.938   6.005  11.459  0.00  0.00    +0.000 NA
ATOM      5  C   UNL     1      45.293   4.867  11.742  0.00  0.00    +0.000 A 
ATOM      6  C   UNL     1      45.456   4.181  12.920  0.00  0.00    +0.000 A 
ATOM      7  C   UNL     1      46.328   4.719  13.840  0.00  0.00    +0.000 A 
ATOM      8  N   UNL     1      46.993   5.859  13.596  0.00  0.00    +0.000 NA
BRANCH   3  12
ATOM      9  C   UNL     1      46.849  11.458  11.895  0.00  0.00    +0.000 C 
ATOM     10  C   UNL     1      47.539  10.127  11.860  0.00  0.00    +0.000 A 
ATOM     11  C   UNL     1      46.837   8.955  12.118  0.00  0.00    +0.000 A 
ATOM     12  C   UNL     1      47.499   7.714  12.112  0.00  0.00    +0.000 A 
ATOM     13  C   UNL     1      48.870   7.730  11.821  0.00  0.00    +0.000 A 
ATOM     14  C   UNL     1      49.494   8.940  11.566  0.00  0.00    +0.000 A 
ATOM     15  N   UNL     1      48.862  10.132  11.582  0.00  0.00    +0.000 NA
ENDBRANCH   3  12
ENDBRANCH   1   7
BRANCH   1  16
ATOM     16  C   UNL     1      47.824   3.471  15.404  0.00  0.00    +0.000 C 
BRANCH  16  17
ATOM     17  C   UNL     1      48.211   3.636  16.905  0.00  0.00    +0.000 C 
ATOM     18  C   UNL     1      48.054   5.125  17.297  0.00  0.00    +0.000 C 
ATOM     19  C   UNL     1      47.180   2.844  17.748  0.00  0.00    +0.000 C 
BRANCH  17  20
ATOM     20  C   UNL     1      49.609   3.081  17.172  0.00  0.00    +0.000 A 
ATOM     21  C   UNL     1      49.985   1.770  16.931  0.00  0.00    +0.000 A 
ATOM     22  N   UNL     1      51.209   1.263  17.183  0.00  0.00    +0.000 NA
ATOM     23  C   UNL     1      52.104   2.133  17.705  0.00  0.00    +0.000 A 
ATOM     24  N   UNL     1      51.869   3.429  17.973  0.00  0.00    +0.000 NA
ATOM     25  C   UNL     1      50.626   3.866  17.701  0.00  0.00    +0.000 A 
BRANCH  23  26
ATOM     26  C   UNL     1      53.476   1.583  18.019  0.00  0.00    +0.000 C 
ATOM     27  N   UNL     1      54.523   2.175  17.352  0.00  0.00    +0.000 N 
ATOM     28  O   UNL     1      53.683   0.666  18.806  0.00  0.00    +0.000 OA
ATOM     29  H   UNL     1      54.350   2.919  16.686  0.00  0.00    +0.000 HD
ATOM     30  H   UNL     1      55.457   1.828  17.507  0.00  0.00    +0.000 HD
ENDBRANCH  23  26
ENDBRANCH  17  20
ENDBRANCH  16  17
ENDBRANCH   1  16
TORSDOF 6
ENDMDL
