MODEL 1
REMARK VINA RESULT:    -6.973      0.000      0.000
REMARK INTER + INTRA:          -7.190
REMARK INTER:                  -8.195
REMARK INTRA:                   1.005
REMARK UNBOUND:                 1.005
REMARK  Name = 
REMARK  5 active torsions:
REMARK  status: ('A' for Active; 'I' for Inactive)
REMARK    1  A    between atoms: C_1  and  C_2
REMARK    2  A    between atoms: C_2  and  C_3
REMARK    3  A    between atoms: C_5  and  N_6
REMARK    4  A    between atoms: C_5  and  C_16
REMARK    5  A    between atoms: C_10  and  C_11
REMARK                            x       y       z     vdW  Elec       q    Type
REMARK                         _______ _______ _______ _____ _____    ______ ____
ROOT
ATOM      1  C   UNL     1      43.072   4.562  13.140  0.00  0.00    +0.000 C 
ATOM      2  C   UNL     1      43.646   3.583  12.116  0.00  0.00    +0.000 C 
ATOM      3  C   UNL     1      43.263   2.145  12.467  0.00  0.00    +0.000 C 
ATOM      4  C   UNL     1      45.160   3.760  11.828  0.00  0.00    +0.000 C 
ATOM      5  C   UNL     1      44.844   4.404  10.443  0.00  0.00    +0.000 C 
ATOM      6  C   UNL     1      43.354   3.962  10.642  0.00  0.00    +0.000 C 
ENDROOT
BRANCH   5   7
ATOM      7  N   UNL     1      44.937   5.842  10.490  0.00  0.00    +0.000 N 
ATOM      8  C   UNL     1      45.630   6.603  11.430  0.00  0.00    +0.000 A 
ATOM      9  N   UNL     1      46.567   6.037  12.200  0.00  0.00    +0.000 NA
ATOM     10  C   UNL     1      47.275   6.841  13.023  0.00  0.00    +0.000 A 
ATOM     11  C   UNL     1      47.065   8.194  13.120  0.00  0.00    +0.000 A 
ATOM     12  C   UNL     1      46.038   8.674  12.345  0.00  0.00    +0.000 A 
ATOM     13  N   UNL     1      45.315   7.907  11.492  0.00  0.00    +0.000 NA
ATOM     14  H   UNL     1      44.124   6.374  10.205  0.00  0.00    +0.000 HD
BRANCH  11  15
ATOM     15  C   UNL     1      47.897   9.008  14.018  0.00  0.00    +0.000 C 
ATOM     16  N   UNL     1      47.537   9.084  15.336  0.00  0.00    +0.000 N 
ATOM     17  O   UNL     1      48.857   9.636  13.592  0.00  0.00    +0.000 OA
ATOM     18  H   UNL     1      46.634   8.799  15.688  0.00  0.00    +0.000 HD
ATOM     19  H   UNL     1      48.054   9.755  15.893  0.00  0.00    +0.000 HD
ENDBRANCH  11  15
ENDBRANCH   5   7
BRANCH   5  20
ATOM     20  C   UNL     1      45.570   3.843   9.132  0.00  0.00    +0.000 A 
ATOM     21  C   UNL     1      46.063   4.676   8.113  0.00  0.00    +0.000 A 
ATOM     22  N   UNL     1      46.679   4.274   6.969  0.00  0.00    +0.000 NA
ATOM     23  C   UNL     1      46.802   2.944   6.799  0.00  0.00    +0.000 A 
ATOM     24  C   UNL     1      46.356   2.018   7.720  0.00  0.00    +0.000 A 
ATOM     25  F   UNL     1      46.506   0.708   7.499  0.00  0.00    +0.000 F 
ATOM     26  C   UNL     1      45.743   2.467   8.886  0.00  0.00    +0.000 A 
ENDBRANCH   5  20
TORSDOF 3
ENDMDL
MODEL 2
REMARK VINA RESULT:    -6.964      4.125      5.826
REMARK INTER + INTRA:          -7.180
REMARK INTER:                  -7.705
REMARK INTRA:                   0.525
REMARK UNBOUND:                 1.005
REMARK  Name = 
REMARK  5 active torsions:
REMARK  status: ('A' for Active; 'I' for Inactive)
REMARK    1  A    between atoms: C_1  and  C_2
REMARK    2  A    between atoms: C_2  and  C_3
REMARK    3  A    between atoms: C_5  and  N_6
REMARK    4  A    between atoms: C_5  and  C_16
REMARK    5  A    between atoms: C_10  and  C_11
REMARK                            x       y       z     vdW  Elec       q    Type
REMARK                         _______ _______ _______ _____ _____    ______ ____
ROOT
ATOM      1  C   UNL     1      43.487   2.998  12.133  0.00  0.00    +0.000 C 
ATOM      2  C   UNL     1      44.014   4.419  11.934  0.00  0.00    +0.000 C 
ATOM      3  C   UNL     1      43.030   5.252  11.112  0.00  0.00    +0.000 C 
ATOM      4  C   UNL     1      45.472   4.503  11.412  0.00  0.00    +0.000 C 
ATOM      5  C   UNL     1      45.976   4.941  12.822  0.00  0.00    +0.000 C 
ATOM      6  C   UNL     1      44.476   5.114  13.240  0.00  0.00    +0.000 C 
ENDROOT
BRANCH   5   7
ATOM      7  N   UNL     1      46.560   3.839  13.545  0.00  0.00    +0.000 N 
ATOM      8  C   UNL     1      47.141   3.885  14.811  0.00  0.00    +0.000 A 
ATOM      9  N   UNL     1      46.904   4.920  15.626  0.00  0.00    +0.000 NA
ATOM     10  C   UNL     1      47.412   4.865  16.877  0.00  0.00    +0.000 A 
ATOM     11  C   UNL     1      48.170   3.817  17.338  0.00  0.00    +0.000 A 
ATOM     12  C   UNL     1      48.419   2.834  16.410  0.00  0.00    +0.000 A 
ATOM     13  N   UNL     1      47.913   2.841  15.152  0.00  0.00    +0.000 NA
ATOM     14  H   UNL     1      47.052   3.134  13.008  0.00  0.00    +0.000 HD
BRANCH  11  15
ATOM     15  C   UNL     1      48.664   3.815  18.722  0.00  0.00    +0.000 C 
ATOM     16  N   UNL     1      48.209   2.840  19.567  0.00  0.00    +0.000 N 
ATOM     17  O   UNL     1      49.424   4.687  19.122  0.00  0.00    +0.000 OA
ATOM     18  H   UNL     1      47.408   2.256  19.370  0.00  0.00    +0.000 HD
ATOM     19  H   UNL     1      48.468   2.947  20.540  0.00  0.00    +0.000 HD
ENDBRANCH  11  15
ENDBRANCH   5   7
BRANCH   5  20
ATOM     20  C   UNL     1      46.894   6.244  12.959  0.00  0.00    +0.000 A 
ATOM     21  C   UNL     1      46.380   7.513  13.277  0.00  0.00    +0.000 A 
ATOM     22  N   UNL     1      47.092   8.665  13.399  0.00  0.00    +0.000 NA
ATOM     23  C   UNL     1      48.415   8.570  13.169  0.00  0.00    +0.000 A 
ATOM     24  C   UNL     1      49.044   7.385  12.843  0.00  0.00    +0.000 A 
ATOM     25  F   UNL     1      50.364   7.350  12.627  0.00  0.00    +0.000 F 
ATOM     26  C   UNL     1      48.285   6.224  12.741  0.00  0.00    +0.000 A 
ENDBRANCH   5  20
TORSDOF 3
ENDMDL
MODEL 3
REMARK VINA RESULT:    -6.637      3.627      7.138
REMARK INTER + INTRA:          -6.796
REMARK INTER:                  -7.391
REMARK INTRA:                   0.595
REMARK UNBOUND:                 1.005
REMARK  Name = 
REMARK  5 active torsions:
REMARK  status: ('A' for Active; 'I' for Inactive)
REMARK    1  A    between atoms: C_1  and  C_2
REMARK    2  A    between atoms: C_2  and  C_3
REMARK    3  A    between atoms: C_5  and  N_6
REMARK    4  A    between atoms: C_5  and  C_16
REMARK    5  A    between atoms: C_10  and  C_11
REMARK                            x       y       z     vdW  Elec       q    Type
REMARK                         _______ _______ _______ _____ _____    ______ ____
ROOT
ATOM      1  C   UNL     1      49.522   6.993  15.095  0.00  0.00    +0.000 C 
ATOM      2  C   UNL     1      49.236   8.275  14.314  0.00  0.00    +0.000 C 
ATOM      3  C   UNL     1      50.455   9.197  14.321  0.00  0.00    +0.000 C 
ATOM      4  C   UNL     1      47.921   8.996  14.711  0.00  0.00    +0.000 C 
ATOM      5  C   UNL     1      47.233   8.515  13.395  0.00  0.00    +0.000 C 
ATOM      6  C   UNL     1      48.643   8.040  12.902  0.00  0.00    +0.000 C 
ENDROOT
BRANCH   5   7
ATOM      7  N   UNL     1      46.385   7.372  13.625  0.00  0.00    +0.000 N 
ATOM      8  C   UNL     1      45.800   6.560  12.656  0.00  0.00    +0.000 A 
ATOM      9  N   UNL     1      46.255   6.573  11.397  0.00  0.00    +0.000 NA
ATOM     10  C   UNL     1      45.716   5.694  10.523  0.00  0.00    +0.000 A 
ATOM     11  C   UNL     1      44.719   4.813  10.859  0.00  0.00    +0.000 A 
ATOM     12  C   UNL     1      44.267   4.918  12.152  0.00  0.00    +0.000 A 
ATOM     13  N   UNL     1      44.792   5.772  13.066  0.00  0.00    +0.000 NA
ATOM     14  H   UNL     1      45.754   7.408  14.416  0.00  0.00    +0.000 HD
BRANCH  11  15
ATOM     15  C   UNL     1      44.203   3.866   9.860  0.00  0.00    +0.000 C 
ATOM     16  N   UNL     1      44.175   4.262   8.551  0.00  0.00    +0.000 N 
ATOM     17  O   UNL     1      43.769   2.771  10.194  0.00  0.00    +0.000 OA
ATOM     18  H   UNL     1      44.283   5.222   8.254  0.00  0.00    +0.000 HD
ATOM     19  H   UNL     1      43.696   3.637   7.914  0.00  0.00    +0.000 HD
ENDBRANCH  11  15
ENDBRANCH   5   7
BRANCH   5  20
ATOM     20  C   UNL     1      46.490   9.581  12.463  0.00  0.00    +0.000 A 
ATOM     21  C   UNL     1      47.178  10.517  11.670  0.00  0.00    +0.000 A 
ATOM     22  N   UNL     1      46.618  11.457  10.864  0.00  0.00    +0.000 NA
ATOM     23  C   UNL     1      45.272  11.500  10.849  0.00  0.00    +0.000 A 
ATOM     24  C   UNL     1      44.479  10.643  11.585  0.00  0.00    +0.000 A 
ATOM     25  F   UNL     1      43.146  10.730  11.531  0.00  0.00    +0.000 F 
ATOM     26  C   UNL     1      45.087   9.683  12.388  0.00  0.00    +0.000 A 
ENDBRANCH   5  20
TORSDOF 3
ENDMDL
MODEL 4
REMARK VINA RESULT:    -6.479      3.777      7.356
REMARK INTER + INTRA:          -6.611
REMARK INTER:                  -7.381
REMARK INTRA:                   0.771
REMARK UNBOUND:                 1.005
REMARK  Name = 
REMARK  5 active torsions:
REMARK  status: ('A' for Active; 'I' for Inactive)
REMARK    1  A    between atoms: C_1  and  C_2
REMARK    2  A    between atoms: C_2  and  C_3
REMARK    3  A    between atoms: C_5  and  N_6
REMARK    4  A    between atoms: C_5  and  C_16
REMARK    5  A    between atoms: C_10  and  C_11
REMARK                            x       y       z     vdW  Elec       q    Type
REMARK                         _______ _______ _______ _____ _____    ______ ____
ROOT
ATOM      1  C   UNL     1      49.041   9.387  11.781  0.00  0.00    +0.000 C 
ATOM      2  C   UNL     1      49.694   8.518  12.856  0.00  0.00    +0.000 C 
ATOM      3  C   UNL     1      51.214   8.679  12.833  0.00  0.00    +0.000 C 
ATOM      4  C   UNL     1      49.235   7.037  12.859  0.00  0.00    +0.000 C 
ATOM      5  C   UNL     1      48.379   7.280  14.140  0.00  0.00    +0.000 C 
ATOM      6  C   UNL     1      49.074   8.680  14.266  0.00  0.00    +0.000 C 
ENDROOT
BRANCH   5   7
ATOM      7  N   UNL     1      46.984   7.454  13.823  0.00  0.00    +0.000 N 
ATOM      8  C   UNL     1      46.228   6.688  12.938  0.00  0.00    +0.000 A 
ATOM      9  N   UNL     1      46.662   5.485  12.543  0.00  0.00    +0.000 NA
ATOM     10  C   UNL     1      45.844   4.745  11.763  0.00  0.00    +0.000 A 
ATOM     11  C   UNL     1      44.609   5.175  11.345  0.00  0.00    +0.000 A 
ATOM     12  C   UNL     1      44.277   6.448  11.742  0.00  0.00    +0.000 A 
ATOM     13  N   UNL     1      45.060   7.216  12.539  0.00  0.00    +0.000 NA
ATOM     14  H   UNL     1      46.624   8.400  13.794  0.00  0.00    +0.000 HD
BRANCH  11  15
ATOM     15  C   UNL     1      43.762   4.300  10.522  0.00  0.00    +0.000 C 
ATOM     16  N   UNL     1      43.824   4.438   9.162  0.00  0.00    +0.000 N 
ATOM     17  O   UNL     1      42.990   3.502  11.037  0.00  0.00    +0.000 OA
ATOM     18  H   UNL     1      44.244   5.232   8.698  0.00  0.00    +0.000 HD
ATOM     19  H   UNL     1      43.135   3.913   8.636  0.00  0.00    +0.000 HD
ENDBRANCH  11  15
ENDBRANCH   5   7
BRANCH   5  20
ATOM     20  C   UNL     1      48.548   6.302  15.394  0.00  0.00    +0.000 A 
ATOM     21  C   UNL     1      49.607   6.410  16.313  0.00  0.00    +0.000 A 
ATOM     22  N   UNL     1      49.822   5.612  17.393  0.00  0.00    +0.000 NA
ATOM     23  C   UNL     1      48.939   4.612  17.576  0.00  0.00    +0.000 A 
ATOM     24  C   UNL     1      47.859   4.393  16.744  0.00  0.00    +0.000 A 
ATOM     25  F   UNL     1      47.013   3.384  16.976  0.00  0.00    +0.000 F 
ATOM     26  C   UNL     1      47.662   5.239  15.657  0.00  0.00    +0.000 A 
ENDBRANCH   5  20
TORSDOF 3
ENDMDL
MODEL 5
REMARK VINA RESULT:    -6.322      3.723      7.012
REMARK INTER + INTRA:          -6.425
REMARK INTER:                  -6.972
REMARK INTRA:                   0.547
REMARK UNBOUND:                 1.005
REMARK  Name = 
REMARK  5 active torsions:
REMARK  status: ('A' for Active; 'I' for Inactive)
REMARK    1  A    between atoms: C_1  and  C_2
REMARK    2  A    between atoms: C_2  and  C_3
REMARK    3  A    between atoms: C_5  and  N_6
REMARK    4  A    between atoms: C_5  and  C_16
REMARK    5  A    between atoms: C_10  and  C_11
REMARK                            x       y       z     vdW  Elec       q    Type
REMARK                         _______ _______ _______ _____ _____    ______ ____
ROOT
ATOM      1  C   UNL     1      48.775   6.284  15.748  0.00  0.00    +0.000 C 
ATOM      2  C   UNL     1      49.222   7.449  14.866  0.00  0.00    +0.000 C 
ATOM      3  C   UNL     1      50.704   7.755  15.082  0.00  0.00    +0.000 C 
ATOM      4  C   UNL     1      48.318   8.707  14.946  0.00  0.00    +0.000 C 
ATOM      5  C   UNL     1      47.717   8.394  13.540  0.00  0.00    +0.000 C 
ATOM      6  C   UNL     1      48.829   7.302  13.373  0.00  0.00    +0.000 C 
ENDROOT
BRANCH   5   7
ATOM      7  N   UNL     1      46.425   7.763  13.642  0.00  0.00    +0.000 N 
ATOM      8  C   UNL     1      45.826   6.932  12.698  0.00  0.00    +0.000 A 
ATOM      9  N   UNL     1      46.559   6.366  11.732  0.00  0.00    +0.000 NA
ATOM     10  C   UNL     1      45.944   5.492  10.905  0.00  0.00    +0.000 A 
ATOM     11  C   UNL     1      44.611   5.178  10.996  0.00  0.00    +0.000 A 
ATOM     12  C   UNL     1      43.924   5.858  11.972  0.00  0.00    +0.000 A 
ATOM     13  N   UNL     1      44.505   6.728  12.834  0.00  0.00    +0.000 NA
ATOM     14  H   UNL     1      45.688   8.277  14.110  0.00  0.00    +0.000 HD
BRANCH  11  15
ATOM     15  C   UNL     1      44.020   4.194  10.077  0.00  0.00    +0.000 C 
ATOM     16  N   UNL     1      44.089   4.445   8.734  0.00  0.00    +0.000 N 
ATOM     17  O   UNL     1      43.443   3.202  10.502  0.00  0.00    +0.000 OA
ATOM     18  H   UNL     1      44.324   5.347   8.344  0.00  0.00    +0.000 HD
ATOM     19  H   UNL     1      43.559   3.815   8.143  0.00  0.00    +0.000 HD
ENDBRANCH  11  15
ENDBRANCH   5   7
BRANCH   5  20
ATOM     20  C   UNL     1      47.690   9.539  12.424  0.00  0.00    +0.000 A 
ATOM     21  C   UNL     1      46.526  10.248  12.082  0.00  0.00    +0.000 A 
ATOM     22  N   UNL     1      46.422  11.224  11.141  0.00  0.00    +0.000 NA
ATOM     23  C   UNL     1      47.549  11.514  10.462  0.00  0.00    +0.000 A 
ATOM     24  C   UNL     1      48.757  10.888  10.697  0.00  0.00    +0.000 A 
ATOM     25  F   UNL     1      49.845  11.218   9.993  0.00  0.00    +0.000 F 
ATOM     26  C   UNL     1      48.828   9.905  11.679  0.00  0.00    +0.000 A 
ENDBRANCH   5  20
TORSDOF 3
ENDMDL
MODEL 6
REMARK VINA RESULT:    -6.190      6.007      8.454
REMARK INTER + INTRA:          -6.270
REMARK INTER:                  -7.131
REMARK INTRA:                   0.861
REMARK UNBOUND:                 1.005
REMARK  Name = 
REMARK  5 active torsions:
REMARK  status: ('A' for Active; 'I' for Inactive)
REMARK    1  A    between atoms: C_1  and  C_2
REMARK    2  A    between atoms: C_2  and  C_3
REMARK    3  A    between atoms: C_5  and  N_6
REMARK    4  A    between atoms: C_5  and  C_16
REMARK    5  A    between atoms: C_10  and  C_11
REMARK                            x       y       z     vdW  Elec       q    Type
REMARK                         _______ _______ _______ _____ _____    ______ ____
ROOT
ATOM      1  C   UNL     1      47.250   7.408  19.259  0.00  0.00    +0.000 C 
ATOM      2  C   UNL     1      48.102   6.178  19.575  0.00  0.00    +0.000 C 
ATOM      3  C   UNL     1      48.019   5.829  21.061  0.00  0.00    +0.000 C 
ATOM      4  C   UNL     1      49.556   6.243  19.041  0.00  0.00    +0.000 C 
ATOM      5  C   UNL     1      49.212   5.221  17.913  0.00  0.00    +0.000 C 
ATOM      6  C   UNL     1      47.846   4.970  18.638  0.00  0.00    +0.000 C 
ENDROOT
BRANCH   5   7
ATOM      7  N   UNL     1      48.983   5.878  16.651  0.00  0.00    +0.000 N 
ATOM      8  C   UNL     1      48.198   5.412  15.598  0.00  0.00    +0.000 A 
ATOM      9  N   UNL     1      47.301   4.441  15.802  0.00  0.00    +0.000 NA
ATOM     10  C   UNL     1      46.500   4.097  14.769  0.00  0.00    +0.000 A 
ATOM     11  C   UNL     1      46.579   4.677  13.528  0.00  0.00    +0.000 A 
ATOM     12  C   UNL     1      47.575   5.614  13.392  0.00  0.00    +0.000 A 
ATOM     13  N   UNL     1      48.387   6.002  14.406  0.00  0.00    +0.000 NA
ATOM     14  H   UNL     1      49.749   6.407  16.252  0.00  0.00    +0.000 HD
BRANCH  11  15
ATOM     15  C   UNL     1      45.652   4.270  12.462  0.00  0.00    +0.000 C 
ATOM     16  N   UNL     1      45.197   2.980  12.463  0.00  0.00    +0.000 N 
ATOM     17  O   UNL     1      45.333   5.048  11.572  0.00  0.00    +0.000 OA
ATOM     18  H   UNL     1      45.611   2.239  13.011  0.00  0.00    +0.000 HD
ATOM     19  H   UNL     1      44.667   2.702  11.644  0.00  0.00    +0.000 HD
ENDBRANCH  11  15
ENDBRANCH   5   7
BRANCH   5  20
ATOM     20  C   UNL     1      50.141   3.934  17.709  0.00  0.00    +0.000 A 
ATOM     21  C   UNL     1      49.638   2.681  17.317  0.00  0.00    +0.000 A 
ATOM     22  N   UNL     1      50.359   1.543  17.135  0.00  0.00    +0.000 NA
ATOM     23  C   UNL     1      51.681   1.635  17.378  0.00  0.00    +0.000 A 
ATOM     24  C   UNL     1      52.299   2.804  17.773  0.00  0.00    +0.000 A 
ATOM     25  F   UNL     1      53.617   2.836  17.999  0.00  0.00    +0.000 F 
ATOM     26  C   UNL     1      51.530   3.952  17.935  0.00  0.00    +0.000 A 
ENDBRANCH   5  20
TORSDOF 3
ENDMDL
MODEL 7
REMARK VINA RESULT:    -5.940      4.085      6.806
REMARK INTER + INTRA:          -5.976
REMARK INTER:                  -6.483
REMARK INTRA:                   0.507
REMARK UNBOUND:                 1.005
REMARK  Name = 
REMARK  5 active torsions:
REMARK  status: ('A' for Active; 'I' for Inactive)
REMARK    1  A    between atoms: C_1  and  C_2
REMARK    2  A    between atoms: C_2  and  C_3
REMARK    3  A    between atoms: C_5  and  N_6
REMARK    4  A    between atoms: C_5  and  C_16
REMARK    5  A    between atoms: C_10  and  C_11
REMARK                            x       y       z     vdW  Elec       q    Type
REMARK                         _______ _______ _______ _____ _____    ______ ____
ROOT
ATOM      1  C   UNL     1      52.266   8.860  13.030  0.00  0.00    +0.000 C 
ATOM      2  C   UNL     1      51.020   8.713  12.156  0.00  0.00    +0.000 C 
ATOM      3  C   UNL     1      51.350   8.997  10.691  0.00  0.00    +0.000 C 
ATOM      4  C   UNL     1      49.776   9.485  12.666  0.00  0.00    +0.000 C 
ATOM      5  C   UNL     1      49.114   8.154  13.139  0.00  0.00    +0.000 C 
ATOM      6  C   UNL     1      50.246   7.388  12.372  0.00  0.00    +0.000 C 
ENDROOT
BRANCH   5   7
ATOM      7  N   UNL     1      49.267   7.959  14.558  0.00  0.00    +0.000 N 
ATOM      8  C   UNL     1      48.736   6.919  15.319  0.00  0.00    +0.000 A 
ATOM      9  N   UNL     1      48.302   5.801  14.726  0.00  0.00    +0.000 NA
ATOM     10  C   UNL     1      47.889   4.787  15.519  0.00  0.00    +0.000 A 
ATOM     11  C   UNL     1      47.876   4.859  16.890  0.00  0.00    +0.000 A 
ATOM     12  C   UNL     1      48.273   6.069  17.407  0.00  0.00    +0.000 A 
ATOM     13  N   UNL     1      48.712   7.104  16.649  0.00  0.00    +0.000 NA
ATOM     14  H   UNL     1      49.295   8.784  15.145  0.00  0.00    +0.000 HD
BRANCH  11  15
ATOM     15  C   UNL     1      47.441   3.703  17.687  0.00  0.00    +0.000 C 
ATOM     16  N   UNL     1      48.161   3.384  18.805  0.00  0.00    +0.000 N 
ATOM     17  O   UNL     1      46.489   3.018  17.337  0.00  0.00    +0.000 OA
ATOM     18  H   UNL     1      49.083   3.750  19.002  0.00  0.00    +0.000 HD
ATOM     19  H   UNL     1      47.912   2.509  19.252  0.00  0.00    +0.000 HD
ENDBRANCH  11  15
ENDBRANCH   5   7
BRANCH   5  20
ATOM     20  C   UNL     1      47.616   7.819  12.689  0.00  0.00    +0.000 A 
ATOM     21  C   UNL     1      46.493   8.494  13.200  0.00  0.00    +0.000 A 
ATOM     22  N   UNL     1      45.194   8.259  12.876  0.00  0.00    +0.000 NA
ATOM     23  C   UNL     1      44.974   7.265  11.994  0.00  0.00    +0.000 A 
ATOM     24  C   UNL     1      45.987   6.523  11.422  0.00  0.00    +0.000 A 
ATOM     25  F   UNL     1      45.709   5.548  10.549  0.00  0.00    +0.000 F 
ATOM     26  C   UNL     1      47.306   6.802  11.766  0.00  0.00    +0.000 A 
ENDBRANCH   5  20
TORSDOF 3
ENDMDL
MODEL 8
REMARK VINA RESULT:    -5.848      4.128      7.821
REMARK INTER + INTRA:          -5.868
REMARK INTER:                  -6.086
REMARK INTRA:                   0.218
REMARK UNBOUND:                 1.005
REMARK  Name = 
REMARK  5 active torsions:
REMARK  status: ('A' for Active; 'I' for Inactive)
REMARK    1  A    between atoms: C_1  and  C_2
REMARK    2  A    between atoms: C_2  and  C_3
REMARK    3  A    between atoms: C_5  and  N_6
REMARK    4  A    between atoms: C_5  and  C_16
REMARK    5  A    between atoms: C_10  and  C_11
REMARK                            x       y       z     vdW  Elec       q    Type
REMARK                         _______ _______ _______ _____ _____    ______ ____
ROOT
ATOM      1  C   UNL     1      48.511  10.993  10.745  0.00  0.00    +0.000 C 
ATOM      2  C   UNL     1      49.436  10.499  11.857  0.00  0.00    +0.000 C 
ATOM      3  C   UNL     1      50.849  11.052  11.672  0.00  0.00    +0.000 C 
ATOM      4  C   UNL     1      49.404   8.967  12.094  0.00  0.00    +0.000 C 
ATOM      5  C   UNL     1      48.586   9.164  13.408  0.00  0.00    +0.000 C 
ATOM      6  C   UNL     1      48.874  10.700  13.288  0.00  0.00    +0.000 C 
ENDROOT
BRANCH   5   7
ATOM      7  N   UNL     1      47.182   8.913  13.204  0.00  0.00    +0.000 N 
ATOM      8  C   UNL     1      46.581   7.678  12.963  0.00  0.00    +0.000 A 
ATOM      9  N   UNL     1      47.236   6.543  13.236  0.00  0.00    +0.000 NA
ATOM     10  C   UNL     1      46.570   5.378  13.076  0.00  0.00    +0.000 A 
ATOM     11  C   UNL     1      45.273   5.306  12.631  0.00  0.00    +0.000 A 
ATOM     12  C   UNL     1      44.706   6.515  12.310  0.00  0.00    +0.000 A 
ATOM     13  N   UNL     1      45.331   7.707  12.473  0.00  0.00    +0.000 NA
ATOM     14  H   UNL     1      46.647   9.615  12.708  0.00  0.00    +0.000 HD
BRANCH  11  15
ATOM     15  C   UNL     1      44.605   4.002  12.510  0.00  0.00    +0.000 C 
ATOM     16  N   UNL     1      45.367   2.874  12.640  0.00  0.00    +0.000 N 
ATOM     17  O   UNL     1      43.410   3.927  12.256  0.00  0.00    +0.000 OA
ATOM     18  H   UNL     1      46.377   2.872  12.601  0.00  0.00    +0.000 HD
ATOM     19  H   UNL     1      44.899   2.002  12.422  0.00  0.00    +0.000 HD
ENDBRANCH  11  15
ENDBRANCH   5   7
BRANCH   5  20
ATOM     20  C   UNL     1      49.086   8.464  14.757  0.00  0.00    +0.000 A 
ATOM     21  C   UNL     1      48.437   8.631  15.993  0.00  0.00    +0.000 A 
ATOM     22  N   UNL     1      48.808   8.080  17.179  0.00  0.00    +0.000 NA
ATOM     23  C   UNL     1      49.919   7.319  17.158  0.00  0.00    +0.000 A 
ATOM     24  C   UNL     1      50.651   7.080  16.013  0.00  0.00    +0.000 A 
ATOM     25  F   UNL     1      51.746   6.314  16.050  0.00  0.00    +0.000 F 
ATOM     26  C   UNL     1      50.233   7.649  14.813  0.00  0.00    +0.000 A 
ENDBRANCH   5  20
TORSDOF 3
ENDMDL
MODEL 9
REMARK VINA RESULT:    -5.798      4.788      8.344
REMARK INTER + INTRA:          -5.809
REMARK INTER:                  -6.328
REMARK INTRA:                   0.519
REMARK UNBOUND:                 1.005
REMARK  Name = 
REMARK  5 active torsions:
REMARK  status: ('A' for Active; 'I' for Inactive)
REMARK    1  A    between atoms: C_1  and  C_2
REMARK    2  A    between atoms: C_2  and  C_3
REMARK    3  A    between atoms: C_5  and  N_6
REMARK    4  A    between atoms: C_5  and  C_16
REMARK    5  A    between atoms: C_10  and  C_11
REMARK                            x       y       z     vdW  Elec       q    Type
REMARK                         _______ _______ _______ _____ _____    ______ ____
ROOT
ATOM      1  C   UNL     1      50.507   8.147  11.230  0.00  0.00    +0.000 C 
ATOM      2  C   UNL     1      50.335   8.887  12.556  0.00  0.00    +0.000 C 
ATOM      3  C   UNL     1      50.945  10.287  12.479  0.00  0.00    +0.000 C 
ATOM      4  C   UNL     1      50.789   8.089  13.807  0.00  0.00    +0.000 C 
ATOM      5  C   UNL     1      49.304   7.837  14.213  0.00  0.00    +0.000 C 
ATOM      6  C   UNL     1      48.888   8.870  13.111  0.00  0.00    +0.000 C 
ENDROOT
BRANCH   5   7
ATOM      7  N   UNL     1      48.866   6.517  13.836  0.00  0.00    +0.000 N 
ATOM      8  C   UNL     1      47.557   6.115  13.572  0.00  0.00    +0.000 A 
ATOM      9  N   UNL     1      46.609   7.025  13.319  0.00  0.00    +0.000 NA
ATOM     10  C   UNL     1      45.382   6.575  12.974  0.00  0.00    +0.000 A 
ATOM     11  C   UNL     1      45.062   5.243  12.892  0.00  0.00    +0.000 A 
ATOM     12  C   UNL     1      46.078   4.384  13.236  0.00  0.00    +0.000 A 
ATOM     13  N   UNL     1      47.328   4.792  13.570  0.00  0.00    +0.000 NA
ATOM     14  H   UNL     1      49.353   5.727  14.242  0.00  0.00    +0.000 HD
BRANCH  11  15
ATOM     15  C   UNL     1      43.713   4.831  12.481  0.00  0.00    +0.000 C 
ATOM     16  N   UNL     1      42.643   5.448  13.070  0.00  0.00    +0.000 N 
ATOM     17  O   UNL     1      43.548   3.931  11.667  0.00  0.00    +0.000 OA
ATOM     18  H   UNL     1      42.711   6.006  13.910  0.00  0.00    +0.000 HD
ATOM     19  H   UNL     1      41.736   5.049  12.859  0.00  0.00    +0.000 HD
ENDBRANCH  11  15
ENDBRANCH   5   7
BRANCH   5  20
ATOM     20  C   UNL     1      48.829   8.176  15.702  0.00  0.00    +0.000 A 
ATOM     21  C   UNL     1      48.817   7.225  16.738  0.00  0.00    +0.000 A 
ATOM     22  N   UNL     1      48.418   7.434  18.021  0.00  0.00    +0.000 NA
ATOM     23  C   UNL     1      47.973   8.673  18.308  0.00  0.00    +0.000 A 
ATOM     24  C   UNL     1      47.928   9.695  17.382  0.00  0.00    +0.000 A 
ATOM     25  F   UNL     1      47.478  10.907  17.724  0.00  0.00    +0.000 F 
ATOM     26  C   UNL     1      48.358   9.447  16.082  0.00  0.00    +0.000 A 
ENDBRANCH   5  20
TORSDOF 3
ENDMDL
