MODEL 1
REMARK VINA RESULT:    -8.168      0.000      0.000
REMARK INTER + INTRA:         -10.155
REMARK INTER:                  -9.600
REMARK INTRA:                  -0.554
REMARK UNBOUND:                -0.554
REMARK  Name = 
REMARK  5 active torsions:
REMARK  status: ('A' for Active; 'I' for Inactive)
REMARK    1  A    between atoms: C_1  and  C_2
REMARK    2  A    between atoms: N_6  and  C_7
REMARK    3  A    between atoms: C_7  and  C_8
REMARK    4  A    between atoms: C_12  and  C_13
REMARK    5  A    between atoms: C_17  and  C_18
REMARK                            x       y       z     vdW  Elec       q    Type
REMARK                         _______ _______ _______ _____ _____    ______ ____
ROOT
ATOM      1  C   UNL     1      44.815   4.946  11.837  0.00  0.00    +0.000 A 
ATOM      2  C   UNL     1      45.177   4.059  12.847  0.00  0.00    +0.000 A 
ATOM      3  C   UNL     1      46.238   4.393  13.678  0.00  0.00    +0.000 A 
ATOM      4  C   UNL     1      46.913   5.592  13.478  0.00  0.00    +0.000 A 
ATOM      5  C   UNL     1      46.518   6.439  12.443  0.00  0.00    +0.000 A 
ATOM      6  N   UNL     1      45.484   6.114  11.621  0.00  0.00    +0.000 NA
ENDROOT
BRANCH   5   7
ATOM      7  C   UNL     1      47.216   7.706  12.156  0.00  0.00    +0.000 A 
ATOM      8  C   UNL     1      46.579   8.948  12.219  0.00  0.00    +0.000 A 
ATOM      9  N   UNL     1      47.179  10.151  12.039  0.00  0.00    +0.000 NA
ATOM     10  C   UNL     1      48.499  10.129  11.763  0.00  0.00    +0.000 A 
ATOM     11  C   UNL     1      49.244   8.964  11.643  0.00  0.00    +0.000 A 
ATOM     12  C   UNL     1      50.706   8.998  11.334  0.00  0.00    +0.000 C 
ATOM     13  C   UNL     1      48.581   7.745  11.836  0.00  0.00    +0.000 A 
ENDBRANCH   5   7
BRANCH   1  14
ATOM     14  C   UNL     1      43.642   4.621  10.929  0.00  0.00    +0.000 C 
BRANCH  14  20
ATOM     15  C   UNL     1      47.329   1.254   6.786  0.00  0.00    +0.000 C 
ATOM     16  C   UNL     1      46.471   2.185   7.568  0.00  0.00    +0.000 A 
ATOM     17  C   UNL     1      45.744   1.802   8.674  0.00  0.00    +0.000 A 
ATOM     18  N   UNL     1      44.942   2.632   9.375  0.00  0.00    +0.000 NA
ATOM     19  C   UNL     1      44.849   3.898   8.942  0.00  0.00    +0.000 A 
ATOM     20  N   UNL     1      43.969   4.782   9.527  0.00  0.00    +0.000 N 
ATOM     21  N   UNL     1      45.532   4.374   7.894  0.00  0.00    +0.000 NA
ATOM     22  C   UNL     1      46.325   3.511   7.229  0.00  0.00    +0.000 A 
ATOM     23  H   UNL     1      44.221   5.723   9.247  0.00  0.00    +0.000 HD
ENDBRANCH  14  20
ENDBRANCH   1  14
TORSDOF 3
ENDMDL
MODEL 2
REMARK VINA RESULT:    -8.041      2.415      3.769
REMARK INTER + INTRA:         -10.006
REMARK INTER:                  -9.563
REMARK INTRA:                  -0.443
REMARK UNBOUND:                -0.554
REMARK  Name = 
REMARK  5 active torsions:
REMARK  status: ('A' for Active; 'I' for Inactive)
REMARK    1  A    between atoms: C_1  and  C_2
REMARK    2  A    between atoms: N_6  and  C_7
REMARK    3  A    between atoms: C_7  and  C_8
REMARK    4  A    between atoms: C_12  and  C_13
REMARK    5  A    between atoms: C_17  and  C_18
REMARK                            x       y       z     vdW  Elec       q    Type
REMARK                         _______ _______ _______ _____ _____    ______ ____
ROOT
ATOM      1  C   UNL     1      44.466   4.679  11.429  0.00  0.00    +0.000 A 
ATOM      2  C   UNL     1      44.027   5.925  10.992  0.00  0.00    +0.000 A 
ATOM      3  C   UNL     1      44.558   7.063  11.584  0.00  0.00    +0.000 A 
ATOM      4  C   UNL     1      45.501   6.931  12.597  0.00  0.00    +0.000 A 
ATOM      5  C   UNL     1      45.898   5.658  13.006  0.00  0.00    +0.000 A 
ATOM      6  N   UNL     1      45.376   4.539  12.436  0.00  0.00    +0.000 NA
ENDROOT
BRANCH   5   7
ATOM      7  C   UNL     1      46.866   5.451  14.099  0.00  0.00    +0.000 A 
ATOM      8  C   UNL     1      47.967   6.289  14.298  0.00  0.00    +0.000 A 
ATOM      9  N   UNL     1      48.851   6.197  15.322  0.00  0.00    +0.000 NA
ATOM     10  C   UNL     1      48.645   5.200  16.208  0.00  0.00    +0.000 A 
ATOM     11  C   UNL     1      47.608   4.283  16.110  0.00  0.00    +0.000 A 
ATOM     12  C   UNL     1      47.427   3.196  17.119  0.00  0.00    +0.000 C 
ATOM     13  C   UNL     1      46.721   4.416  15.033  0.00  0.00    +0.000 A 
ENDBRANCH   5   7
BRANCH   1  14
ATOM     14  C   UNL     1      43.924   3.415  10.782  0.00  0.00    +0.000 C 
BRANCH  14  20
ATOM     15  C   UNL     1      47.445   2.588   5.396  0.00  0.00    +0.000 C 
ATOM     16  C   UNL     1      46.733   2.579   6.702  0.00  0.00    +0.000 A 
ATOM     17  C   UNL     1      46.153   3.697   7.260  0.00  0.00    +0.000 A 
ATOM     18  N   UNL     1      45.527   3.706   8.457  0.00  0.00    +0.000 NA
ATOM     19  C   UNL     1      45.494   2.549   9.134  0.00  0.00    +0.000 A 
ATOM     20  N   UNL     1      44.977   2.492  10.410  0.00  0.00    +0.000 N 
ATOM     21  N   UNL     1      46.005   1.403   8.669  0.00  0.00    +0.000 NA
ATOM     22  C   UNL     1      46.614   1.441   7.468  0.00  0.00    +0.000 A 
ATOM     23  H   UNL     1      44.804   1.522  10.647  0.00  0.00    +0.000 HD
ENDBRANCH  14  20
ENDBRANCH   1  14
TORSDOF 3
ENDMDL
MODEL 3
REMARK VINA RESULT:    -7.868      3.115      7.304
REMARK INTER + INTRA:          -9.803
REMARK INTER:                  -9.408
REMARK INTRA:                  -0.395
REMARK UNBOUND:                -0.554
REMARK  Name = 
REMARK  5 active torsions:
REMARK  status: ('A' for Active; 'I' for Inactive)
REMARK    1  A    between atoms: C_1  and  C_2
REMARK    2  A    between atoms: N_6  and  C_7
REMARK    3  A    between atoms: C_7  and  C_8
REMARK    4  A    between atoms: C_12  and  C_13
REMARK    5  A    between atoms: C_17  and  C_18
REMARK                            x       y       z     vdW  Elec       q    Type
REMARK                         _______ _______ _______ _____ _____    ______ ____
ROOT
ATOM      1  C   UNL     1      45.187   4.832  12.656  0.00  0.00    +0.000 A 
ATOM      2  C   UNL     1      43.823   5.021  12.861  0.00  0.00    +0.000 A 
ATOM      3  C   UNL     1      42.944   4.691  11.838  0.00  0.00    +0.000 A 
ATOM      4  C   UNL     1      43.444   4.191  10.641  0.00  0.00    +0.000 A 
ATOM      5  C   UNL     1      44.821   4.032  10.483  0.00  0.00    +0.000 A 
ATOM      6  N   UNL     1      45.688   4.361  11.478  0.00  0.00    +0.000 NA
ENDROOT
BRANCH   5   7
ATOM      7  C   UNL     1      45.415   3.542   9.225  0.00  0.00    +0.000 A 
ATOM      8  C   UNL     1      45.754   4.393   8.170  0.00  0.00    +0.000 A 
ATOM      9  N   UNL     1      46.367   4.016   7.021  0.00  0.00    +0.000 NA
ATOM     10  C   UNL     1      46.655   2.705   6.895  0.00  0.00    +0.000 A 
ATOM     11  C   UNL     1      46.346   1.750   7.853  0.00  0.00    +0.000 A 
ATOM     12  C   UNL     1      46.687   0.308   7.661  0.00  0.00    +0.000 C 
ATOM     13  C   UNL     1      45.710   2.186   9.024  0.00  0.00    +0.000 A 
ENDBRANCH   5   7
BRANCH   1  14
ATOM     14  C   UNL     1      46.171   5.159  13.766  0.00  0.00    +0.000 C 
BRANCH  14  20
ATOM     15  C   UNL     1      50.506   3.881  18.421  0.00  0.00    +0.000 C 
ATOM     16  C   UNL     1      49.440   3.957  17.386  0.00  0.00    +0.000 A 
ATOM     17  C   UNL     1      48.938   5.143  16.896  0.00  0.00    +0.000 A 
ATOM     18  N   UNL     1      47.952   5.223  15.976  0.00  0.00    +0.000 NA
ATOM     19  C   UNL     1      47.434   4.066  15.538  0.00  0.00    +0.000 A 
ATOM     20  N   UNL     1      46.351   4.055  14.686  0.00  0.00    +0.000 N 
ATOM     21  N   UNL     1      47.867   2.863  15.933  0.00  0.00    +0.000 NA
ATOM     22  C   UNL     1      48.856   2.832  16.847  0.00  0.00    +0.000 A 
ATOM     23  H   UNL     1      46.271   3.132  14.275  0.00  0.00    +0.000 HD
ENDBRANCH  14  20
ENDBRANCH   1  14
TORSDOF 3
ENDMDL
MODEL 4
REMARK VINA RESULT:    -7.682      1.456      6.493
REMARK INTER + INTRA:          -9.584
REMARK INTER:                  -8.961
REMARK INTRA:                  -0.623
REMARK UNBOUND:                -0.554
REMARK  Name = 
REMARK  5 active torsions:
REMARK  status: ('A' for Active; 'I' for Inactive)
REMARK    1  A    between atoms: C_1  and  C_2
REMARK    2  A    between atoms: N_6  and  C_7
REMARK    3  A    between atoms: C_7  and  C_8
REMARK    4  A    between atoms: C_12  and  C_13
REMARK    5  A    between atoms: C_17  and  C_18
REMARK                            x       y       z     vdW  Elec       q    Type
REMARK                         _______ _______ _______ _____ _____    ______ ____
ROOT
ATOM      1  C   UNL     1      44.527   5.407  12.257  0.00  0.00    +0.000 A 
ATOM      2  C   UNL     1      43.489   4.714  12.873  0.00  0.00    +0.000 A 
ATOM      3  C   UNL     1      43.047   3.529  12.301  0.00  0.00    +0.000 A 
ATOM      4  C   UNL     1      43.642   3.071  11.130  0.00  0.00    +0.000 A 
ATOM      5  C   UNL     1      44.670   3.811  10.546  0.00  0.00    +0.000 A 
ATOM      6  N   UNL     1      45.102   4.976  11.098  0.00  0.00    +0.000 NA
ENDROOT
BRANCH   5   7
ATOM      7  C   UNL     1      45.316   3.398   9.286  0.00  0.00    +0.000 A 
ATOM      8  C   UNL     1      45.657   4.308   8.281  0.00  0.00    +0.000 A 
ATOM      9  N   UNL     1      46.315   4.004   7.135  0.00  0.00    +0.000 NA
ATOM     10  C   UNL     1      46.649   2.709   6.958  0.00  0.00    +0.000 A 
ATOM     11  C   UNL     1      46.343   1.702   7.862  0.00  0.00    +0.000 A 
ATOM     12  C   UNL     1      46.736   0.281   7.615  0.00  0.00    +0.000 C 
ATOM     13  C   UNL     1      45.660   2.063   9.032  0.00  0.00    +0.000 A 
ENDBRANCH   5   7
BRANCH   1  14
ATOM     14  C   UNL     1      45.050   6.693  12.874  0.00  0.00    +0.000 C 
BRANCH  14  20
ATOM     15  C   UNL     1      50.947   8.940  11.369  0.00  0.00    +0.000 C 
ATOM     16  C   UNL     1      49.705   8.290  11.867  0.00  0.00    +0.000 A 
ATOM     17  C   UNL     1      48.445   8.816  11.683  0.00  0.00    +0.000 A 
ATOM     18  N   UNL     1      47.313   8.247  12.153  0.00  0.00    +0.000 NA
ATOM     19  C   UNL     1      47.449   7.112  12.853  0.00  0.00    +0.000 A 
ATOM     20  N   UNL     1      46.362   6.526  13.465  0.00  0.00    +0.000 N 
ATOM     21  N   UNL     1      48.624   6.509  13.067  0.00  0.00    +0.000 NA
ATOM     22  C   UNL     1      49.725   7.109  12.574  0.00  0.00    +0.000 A 
ATOM     23  H   UNL     1      46.605   5.574  13.715  0.00  0.00    +0.000 HD
ENDBRANCH  14  20
ENDBRANCH   1  14
TORSDOF 3
ENDMDL
MODEL 5
REMARK VINA RESULT:    -7.526      2.244      3.839
REMARK INTER + INTRA:          -9.401
REMARK INTER:                  -8.807
REMARK INTRA:                  -0.594
REMARK UNBOUND:                -0.554
REMARK  Name = 
REMARK  5 active torsions:
REMARK  status: ('A' for Active; 'I' for Inactive)
REMARK    1  A    between atoms: C_1  and  C_2
REMARK    2  A    between atoms: N_6  and  C_7
REMARK    3  A    between atoms: C_7  and  C_8
REMARK    4  A    between atoms: C_12  and  C_13
REMARK    5  A    between atoms: C_17  and  C_18
REMARK                            x       y       z     vdW  Elec       q    Type
REMARK                         _______ _______ _______ _____ _____    ______ ____
ROOT
ATOM      1  C   UNL     1      45.217   5.676  11.852  0.00  0.00    +0.000 A 
ATOM      2  C   UNL     1      45.537   6.962  11.429  0.00  0.00    +0.000 A 
ATOM      3  C   UNL     1      46.511   7.668  12.121  0.00  0.00    +0.000 A 
ATOM      4  C   UNL     1      47.134   7.081  13.216  0.00  0.00    +0.000 A 
ATOM      5  C   UNL     1      46.768   5.793  13.607  0.00  0.00    +0.000 A 
ATOM      6  N   UNL     1      45.808   5.099  12.938  0.00  0.00    +0.000 NA
ENDROOT
BRANCH   5   7
ATOM      7  C   UNL     1      47.364   5.130  14.782  0.00  0.00    +0.000 A 
ATOM      8  C   UNL     1      47.169   3.774  15.060  0.00  0.00    +0.000 A 
ATOM      9  N   UNL     1      47.746   3.090  16.079  0.00  0.00    +0.000 NA
ATOM     10  C   UNL     1      48.562   3.793  16.891  0.00  0.00    +0.000 A 
ATOM     11  C   UNL     1      48.816   5.149  16.743  0.00  0.00    +0.000 A 
ATOM     12  C   UNL     1      49.729   5.881  17.674  0.00  0.00    +0.000 C 
ATOM     13  C   UNL     1      48.197   5.815  15.677  0.00  0.00    +0.000 A 
ENDBRANCH   5   7
BRANCH   1  14
ATOM     14  C   UNL     1      44.174   4.868  11.099  0.00  0.00    +0.000 C 
BRANCH  14  20
ATOM     15  C   UNL     1      47.200   1.197   6.687  0.00  0.00    +0.000 C 
ATOM     16  C   UNL     1      46.479   2.192   7.528  0.00  0.00    +0.000 A 
ATOM     17  C   UNL     1      45.878   1.881   8.727  0.00  0.00    +0.000 A 
ATOM     18  N   UNL     1      45.199   2.770   9.485  0.00  0.00    +0.000 NA
ATOM     19  C   UNL     1      45.103   4.021   9.013  0.00  0.00    +0.000 A 
ATOM     20  N   UNL     1      44.335   4.963   9.663  0.00  0.00    +0.000 N 
ATOM     21  N   UNL     1      45.670   4.430   7.873  0.00  0.00    +0.000 NA
ATOM     22  C   UNL     1      46.343   3.510   7.153  0.00  0.00    +0.000 A 
ATOM     23  H   UNL     1      44.586   5.882   9.316  0.00  0.00    +0.000 HD
ENDBRANCH  14  20
ENDBRANCH   1  14
TORSDOF 3
ENDMDL
MODEL 6
REMARK VINA RESULT:    -6.933      3.393      7.483
REMARK INTER + INTRA:          -8.703
REMARK INTER:                  -8.294
REMARK INTRA:                  -0.409
REMARK UNBOUND:                -0.554
REMARK  Name = 
REMARK  5 active torsions:
REMARK  status: ('A' for Active; 'I' for Inactive)
REMARK    1  A    between atoms: C_1  and  C_2
REMARK    2  A    between atoms: N_6  and  C_7
REMARK    3  A    between atoms: C_7  and  C_8
REMARK    4  A    between atoms: C_12  and  C_13
REMARK    5  A    between atoms: C_17  and  C_18
REMARK                            x       y       z     vdW  Elec       q    Type
REMARK                         _______ _______ _______ _____ _____    ______ ____
ROOT
ATOM      1  C   UNL     1      46.740   6.934  12.970  0.00  0.00    +0.000 A 
ATOM      2  C   UNL     1      46.010   8.117  12.909  0.00  0.00    +0.000 A 
ATOM      3  C   UNL     1      44.937   8.193  12.031  0.00  0.00    +0.000 A 
ATOM      4  C   UNL     1      44.625   7.096  11.235  0.00  0.00    +0.000 A 
ATOM      5  C   UNL     1      45.398   5.938  11.327  0.00  0.00    +0.000 A 
ATOM      6  N   UNL     1      46.455   5.860  12.179  0.00  0.00    +0.000 NA
ENDROOT
BRANCH   5   7
ATOM      7  C   UNL     1      45.141   4.755  10.484  0.00  0.00    +0.000 A 
ATOM      8  C   UNL     1      44.304   3.711  10.886  0.00  0.00    +0.000 A 
ATOM      9  N   UNL     1      43.971   2.635  10.132  0.00  0.00    +0.000 NA
ATOM     10  C   UNL     1      44.511   2.574   8.898  0.00  0.00    +0.000 A 
ATOM     11  C   UNL     1      45.380   3.528   8.387  0.00  0.00    +0.000 A 
ATOM     12  C   UNL     1      45.952   3.411   7.012  0.00  0.00    +0.000 C 
ATOM     13  C   UNL     1      45.698   4.622   9.204  0.00  0.00    +0.000 A 
ENDBRANCH   5   7
BRANCH   1  14
ATOM     14  C   UNL     1      47.903   6.812  13.940  0.00  0.00    +0.000 C 
BRANCH  14  20
ATOM     15  C   UNL     1      51.501   4.185  18.656  0.00  0.00    +0.000 C 
ATOM     16  C   UNL     1      50.508   4.648  17.650  0.00  0.00    +0.000 A 
ATOM     17  C   UNL     1      50.627   5.829  16.952  0.00  0.00    +0.000 A 
ATOM     18  N   UNL     1      49.718   6.271  16.055  0.00  0.00    +0.000 NA
ATOM     19  C   UNL     1      48.633   5.506  15.862  0.00  0.00    +0.000 A 
ATOM     20  N   UNL     1      47.603   5.934  15.052  0.00  0.00    +0.000 N 
ATOM     21  N   UNL     1      48.436   4.332  16.471  0.00  0.00    +0.000 NA
ATOM     22  C   UNL     1      49.373   3.928  17.352  0.00  0.00    +0.000 A 
ATOM     23  H   UNL     1      47.015   5.139  14.829  0.00  0.00    +0.000 HD
ENDBRANCH  14  20
ENDBRANCH   1  14
TORSDOF 3
ENDMDL
MODEL 7
REMARK VINA RESULT:    -6.746      3.937      7.299
REMARK INTER + INTRA:          -8.483
REMARK INTER:                  -7.895
REMARK INTRA:                  -0.589
REMARK UNBOUND:                -0.554
REMARK  Name = 
REMARK  5 active torsions:
REMARK  status: ('A' for Active; 'I' for Inactive)
REMARK    1  A    between atoms: C_1  and  C_2
REMARK    2  A    between atoms: N_6  and  C_7
REMARK    3  A    between atoms: C_7  and  C_8
REMARK    4  A    between atoms: C_12  and  C_13
REMARK    5  A    between atoms: C_17  and  C_18
REMARK                            x       y       z     vdW  Elec       q    Type
REMARK                         _______ _______ _______ _____ _____    ______ ____
ROOT
ATOM      1  C   UNL     1      48.379   6.852  14.455  0.00  0.00    +0.000 A 
ATOM      2  C   UNL     1      49.298   7.523  13.652  0.00  0.00    +0.000 A 
ATOM      3  C   UNL     1      49.024   7.660  12.298  0.00  0.00    +0.000 A 
ATOM      4  C   UNL     1      47.852   7.120  11.779  0.00  0.00    +0.000 A 
ATOM      5  C   UNL     1      46.971   6.446  12.625  0.00  0.00    +0.000 A 
ATOM      6  N   UNL     1      47.238   6.302  13.951  0.00  0.00    +0.000 NA
ENDROOT
BRANCH   5   7
ATOM      7  C   UNL     1      45.732   5.820  12.128  0.00  0.00    +0.000 A 
ATOM      8  C   UNL     1      44.556   5.775  12.883  0.00  0.00    +0.000 A 
ATOM      9  N   UNL     1      43.367   5.281  12.459  0.00  0.00    +0.000 NA
ATOM     10  C   UNL     1      43.335   4.781  11.207  0.00  0.00    +0.000 A 
ATOM     11  C   UNL     1      44.437   4.737  10.364  0.00  0.00    +0.000 A 
ATOM     12  C   UNL     1      44.347   4.171   8.984  0.00  0.00    +0.000 C 
ATOM     13  C   UNL     1      45.646   5.258  10.847  0.00  0.00    +0.000 A 
ENDBRANCH   5   7
BRANCH   1  14
ATOM     14  C   UNL     1      48.638   6.710  15.945  0.00  0.00    +0.000 C 
BRANCH  14  20
ATOM     15  C   UNL     1      51.588   1.207  17.709  0.00  0.00    +0.000 C 
ATOM     16  C   UNL     1      50.715   2.350  17.330  0.00  0.00    +0.000 A 
ATOM     17  C   UNL     1      51.131   3.663  17.345  0.00  0.00    +0.000 A 
ATOM     18  N   UNL     1      50.338   4.710  17.027  0.00  0.00    +0.000 NA
ATOM     19  C   UNL     1      49.069   4.433  16.696  0.00  0.00    +0.000 A 
ATOM     20  N   UNL     1      48.161   5.445  16.468  0.00  0.00    +0.000 N 
ATOM     21  N   UNL     1      48.575   3.192  16.628  0.00  0.00    +0.000 NA
ATOM     22  C   UNL     1      49.403   2.179  16.947  0.00  0.00    +0.000 A 
ATOM     23  H   UNL     1      47.355   5.057  15.993  0.00  0.00    +0.000 HD
ENDBRANCH  14  20
ENDBRANCH   1  14
TORSDOF 3
ENDMDL
MODEL 8
REMARK VINA RESULT:    -6.172      3.294      5.833
REMARK INTER + INTRA:          -7.809
REMARK INTER:                  -7.204
REMARK INTRA:                  -0.604
REMARK UNBOUND:                -0.554
REMARK  Name = 
REMARK  5 active torsions:
REMARK  status: ('A' for Active; 'I' for Inactive)
REMARK    1  A    between atoms: C_1  and  C_2
REMARK    2  A    between atoms: N_6  and  C_7
REMARK    3  A    between atoms: C_7  and  C_8
REMARK    4  A    between atoms: C_12  and  C_13
REMARK    5  A    between atoms: C_17  and  C_18
REMARK                            x       y       z     vdW  Elec       q    Type
REMARK                         _______ _______ _______ _____ _____    ______ ____
ROOT
ATOM      1  C   UNL     1      45.021   4.505  12.587  0.00  0.00    +0.000 A 
ATOM      2  C   UNL     1      43.798   4.037  12.116  0.00  0.00    +0.000 A 
ATOM      3  C   UNL     1      42.949   4.926  11.472  0.00  0.00    +0.000 A 
ATOM      4  C   UNL     1      43.333   6.253  11.320  0.00  0.00    +0.000 A 
ATOM      5  C   UNL     1      44.564   6.674  11.822  0.00  0.00    +0.000 A 
ATOM      6  N   UNL     1      45.398   5.810  12.462  0.00  0.00    +0.000 NA
ENDROOT
BRANCH   5   7
ATOM      7  C   UNL     1      45.013   8.076  11.727  0.00  0.00    +0.000 A 
ATOM      8  C   UNL     1      44.181   9.104  11.276  0.00  0.00    +0.000 A 
ATOM      9  N   UNL     1      44.508  10.419  11.233  0.00  0.00    +0.000 NA
ATOM     10  C   UNL     1      45.749  10.745  11.649  0.00  0.00    +0.000 A 
ATOM     11  C   UNL     1      46.683   9.819  12.092  0.00  0.00    +0.000 A 
ATOM     12  C   UNL     1      48.046  10.234  12.541  0.00  0.00    +0.000 C 
ATOM     13  C   UNL     1      46.301   8.470  12.117  0.00  0.00    +0.000 A 
ENDBRANCH   5   7
BRANCH   1  14
ATOM     14  C   UNL     1      45.984   3.552  13.273  0.00  0.00    +0.000 C 
BRANCH  14  20
ATOM     15  C   UNL     1      48.313   5.160  19.111  0.00  0.00    +0.000 C 
ATOM     16  C   UNL     1      47.953   4.918  17.688  0.00  0.00    +0.000 A 
ATOM     17  C   UNL     1      47.141   3.885  17.274  0.00  0.00    +0.000 A 
ATOM     18  N   UNL     1      46.829   3.642  15.982  0.00  0.00    +0.000 NA
ATOM     19  C   UNL     1      47.366   4.457  15.062  0.00  0.00    +0.000 A 
ATOM     20  N   UNL     1      47.194   4.214  13.717  0.00  0.00    +0.000 N 
ATOM     21  N   UNL     1      48.146   5.501  15.363  0.00  0.00    +0.000 NA
ATOM     22  C   UNL     1      48.425   5.710  16.665  0.00  0.00    +0.000 A 
ATOM     23  H   UNL     1      47.441   5.051  13.202  0.00  0.00    +0.000 HD
ENDBRANCH  14  20
ENDBRANCH   1  14
TORSDOF 3
ENDMDL
MODEL 9
REMARK VINA RESULT:    -6.105      3.629      6.602
REMARK INTER + INTRA:          -7.730
REMARK INTER:                  -7.275
REMARK INTRA:                  -0.455
REMARK UNBOUND:                -0.554
REMARK  Name = 
REMARK  5 active torsions:
REMARK  status: ('A' for Active; 'I' for Inactive)
REMARK    1  A    between atoms: C_1  and  C_2
REMARK    2  A    between atoms: N_6  and  C_7
REMARK    3  A    between atoms: C_7  and  C_8
REMARK    4  A    between atoms: C_12  and  C_13
REMARK    5  A    between atoms: C_17  and  C_18
REMARK                            x       y       z     vdW  Elec       q    Type
REMARK                         _______ _______ _______ _____ _____    ______ ____
ROOT
ATOM      1  C   UNL     1      45.587   5.256  12.785  0.00  0.00    +0.000 A 
ATOM      2  C   UNL     1      44.571   4.385  12.403  0.00  0.00    +0.000 A 
ATOM      3  C   UNL     1      43.507   4.886  11.666  0.00  0.00    +0.000 A 
ATOM      4  C   UNL     1      43.477   6.236  11.337  0.00  0.00    +0.000 A 
ATOM      5  C   UNL     1      44.515   7.069  11.755  0.00  0.00    +0.000 A 
ATOM      6  N   UNL     1      45.557   6.586  12.484  0.00  0.00    +0.000 NA
ENDROOT
BRANCH   5   7
ATOM      7  C   UNL     1      44.524   8.516  11.470  0.00  0.00    +0.000 A 
ATOM      8  C   UNL     1      45.484   9.382  12.000  0.00  0.00    +0.000 A 
ATOM      9  N   UNL     1      45.591  10.705  11.720  0.00  0.00    +0.000 NA
ATOM     10  C   UNL     1      44.677  11.215  10.868  0.00  0.00    +0.000 A 
ATOM     11  C   UNL     1      43.655  10.472  10.296  0.00  0.00    +0.000 A 
ATOM     12  C   UNL     1      42.668  11.089   9.359  0.00  0.00    +0.000 C 
ATOM     13  C   UNL     1      43.583   9.109  10.616  0.00  0.00    +0.000 A 
ENDBRANCH   5   7
BRANCH   1  14
ATOM     14  C   UNL     1      46.778   4.733  13.569  0.00  0.00    +0.000 C 
BRANCH  14  20
ATOM     15  C   UNL     1      49.871   4.511  19.268  0.00  0.00    +0.000 C 
ATOM     16  C   UNL     1      49.000   4.434  18.065  0.00  0.00    +0.000 A 
ATOM     17  C   UNL     1      49.098   5.299  16.998  0.00  0.00    +0.000 A 
ATOM     18  N   UNL     1      48.295   5.254  15.912  0.00  0.00    +0.000 NA
ATOM     19  C   UNL     1      47.340   4.312  15.901  0.00  0.00    +0.000 A 
ATOM     20  N   UNL     1      46.406   4.264  14.889  0.00  0.00    +0.000 N 
ATOM     21  N   UNL     1      47.178   3.410  16.875  0.00  0.00    +0.000 NA
ATOM     22  C   UNL     1      48.006   3.489  17.936  0.00  0.00    +0.000 A 
ATOM     23  H   UNL     1      45.947   3.361  14.913  0.00  0.00    +0.000 HD
ENDBRANCH  14  20
ENDBRANCH   1  14
TORSDOF 3
ENDMDL
