MODEL 1
REMARK VINA RESULT:    -8.320      0.000      0.000
REMARK INTER + INTRA:         -12.441
REMARK INTER:                 -11.968
REMARK INTRA:                  -0.474
REMARK UNBOUND:                -0.474
REMARK  Name = 
REMARK  8 active torsions:
REMARK  status: ('A' for Active; 'I' for Inactive)
REMARK    1  A    between atoms: N_1  and  C_2
REMARK    2  A    between atoms: C_2  and  C_3
REMARK    3  A    between atoms: C_3  and  N_4
REMARK    4  A    between atoms: C_3  and  C_17
REMARK    5  A    between atoms: C_5  and  C_7
REMARK    6  A    between atoms: C_20  and  O_21
REMARK    7  A    between atoms: O_21  and  C_22
REMARK    8  A    between atoms: C_22  and  C_23
REMARK                            x       y       z     vdW  Elec       q    Type
REMARK                         _______ _______ _______ _____ _____    ______ ____
ROOT
ATOM      1  C   UNL     1      46.591   7.996  13.001  0.00  0.00    +0.000 C 
ENDROOT
BRANCH   1   2
ATOM      2  C   UNL     1      45.922   6.809  12.326  0.00  0.00    +0.000 A 
ATOM      3  C   UNL     1      46.065   6.612  10.943  0.00  0.00    +0.000 A 
ATOM      4  C   UNL     1      45.625   5.427  10.346  0.00  0.00    +0.000 A 
ATOM      5  C   UNL     1      45.038   4.432  11.126  0.00  0.00    +0.000 A 
ATOM      6  C   UNL     1      44.751   4.688  12.464  0.00  0.00    +0.000 A 
ATOM      7  C   UNL     1      45.188   5.868  13.059  0.00  0.00    +0.000 A 
BRANCH   5   8
ATOM      8  O   UNL     1      44.805   3.229  10.512  0.00  0.00    +0.000 OA
BRANCH   8   9
ATOM      9  C   UNL     1      44.485   3.353   9.117  0.00  0.00    +0.000 C 
BRANCH   9  10
ATOM     10  C   UNL     1      45.530   2.677   8.267  0.00  0.00    +0.000 A 
ATOM     11  C   UNL     1      46.233   3.410   7.313  0.00  0.00    +0.000 A 
ATOM     12  C   UNL     1      47.223   2.773   6.573  0.00  0.00    +0.000 A 
ATOM     13  C   UNL     1      47.486   1.428   6.808  0.00  0.00    +0.000 A 
ATOM     14  C   UNL     1      46.754   0.775   7.784  0.00  0.00    +0.000 A 
ATOM     15  N   UNL     1      45.790   1.368   8.521  0.00  0.00    +0.000 NA
ENDBRANCH   9  10
ENDBRANCH   8   9
ENDBRANCH   5   8
ENDBRANCH   1   2
BRANCH   1  16
ATOM     16  N   UNL     1      47.193   7.584  14.256  0.00  0.00    +0.000 N 
ATOM     17  C   UNL     1      48.220   6.678  14.296  0.00  0.00    +0.000 C 
ATOM     18  O   UNL     1      48.708   6.224  13.265  0.00  0.00    +0.000 OA
ATOM     19  H   UNL     1      46.742   7.901  15.110  0.00  0.00    +0.000 HD
BRANCH  17  20
ATOM     20  C   UNL     1      48.723   6.270  15.616  0.00  0.00    +0.000 A 
ATOM     21  C   UNL     1      49.649   7.083  16.261  0.00  0.00    +0.000 A 
ATOM     22  S   UNL     1      50.125   6.507  17.791  0.00  0.00    +0.000 S 
ATOM     23  C   UNL     1      49.129   5.137  17.642  0.00  0.00    +0.000 A 
ATOM     24  N   UNL     1      49.073   4.210  18.635  0.00  0.00    +0.000 NA
ATOM     25  C   UNL     1      48.298   3.210  18.388  0.00  0.00    +0.000 A 
ATOM     26  N   UNL     1      47.568   3.052  17.239  0.00  0.00    +0.000 N 
ATOM     27  C   UNL     1      47.590   3.964  16.211  0.00  0.00    +0.000 A 
ATOM     28  O   UNL     1      46.935   3.782  15.189  0.00  0.00    +0.000 OA
ATOM     29  C   UNL     1      48.443   5.115  16.438  0.00  0.00    +0.000 A 
ATOM     30  H   UNL     1      46.983   2.241  17.105  0.00  0.00    +0.000 HD
ENDBRANCH  17  20
ENDBRANCH   1  16
BRANCH   1  31
ATOM     31  C   UNL     1      47.620   8.742  12.085  0.00  0.00    +0.000 C 
BRANCH  31  32
ATOM     32  N   UNL     1      47.329  10.169  11.886  0.00  0.00    +0.000 NA
ATOM     33  H   UNL     1      46.320  10.304  11.853  0.00  0.00    +0.000 HD
ATOM     34  H   UNL     1      47.685  10.459  10.975  0.00  0.00    +0.000 HD
ENDBRANCH  31  32
ENDBRANCH   1  31
TORSDOF 8
ENDMDL
MODEL 2
REMARK VINA RESULT:    -8.315      1.046      1.072
REMARK INTER + INTRA:         -12.435
REMARK INTER:                 -11.244
REMARK INTRA:                  -1.191
REMARK UNBOUND:                -0.474
REMARK  Name = 
REMARK  8 active torsions:
REMARK  status: ('A' for Active; 'I' for Inactive)
REMARK    1  A    between atoms: N_1  and  C_2
REMARK    2  A    between atoms: C_2  and  C_3
REMARK    3  A    between atoms: C_3  and  N_4
REMARK    4  A    between atoms: C_3  and  C_17
REMARK    5  A    between atoms: C_5  and  C_7
REMARK    6  A    between atoms: C_20  and  O_21
REMARK    7  A    between atoms: O_21  and  C_22
REMARK    8  A    between atoms: C_22  and  C_23
REMARK                            x       y       z     vdW  Elec       q    Type
REMARK                         _______ _______ _______ _____ _____    ______ ____
ROOT
ATOM      1  C   UNL     1      47.226   6.911  12.768  0.00  0.00    +0.000 C 
ENDROOT
BRANCH   1   2
ATOM      2  C   UNL     1      46.192   5.994  12.134  0.00  0.00    +0.000 A 
ATOM      3  C   UNL     1      45.403   6.454  11.066  0.00  0.00    +0.000 A 
ATOM      4  C   UNL     1      44.595   5.567  10.348  0.00  0.00    +0.000 A 
ATOM      5  C   UNL     1      44.568   4.218  10.692  0.00  0.00    +0.000 A 
ATOM      6  C   UNL     1      45.222   3.788  11.844  0.00  0.00    +0.000 A 
ATOM      7  C   UNL     1      46.025   4.671  12.560  0.00  0.00    +0.000 A 
BRANCH   5   8
ATOM      8  O   UNL     1      43.905   3.379   9.834  0.00  0.00    +0.000 OA
BRANCH   8   9
ATOM      9  C   UNL     1      44.561   2.112   9.656  0.00  0.00    +0.000 C 
BRANCH   9  10
ATOM     10  C   UNL     1      45.499   2.158   8.477  0.00  0.00    +0.000 A 
ATOM     11  C   UNL     1      45.561   3.298   7.679  0.00  0.00    +0.000 A 
ATOM     12  C   UNL     1      46.466   3.331   6.624  0.00  0.00    +0.000 A 
ATOM     13  C   UNL     1      47.287   2.232   6.400  0.00  0.00    +0.000 A 
ATOM     14  C   UNL     1      47.175   1.144   7.248  0.00  0.00    +0.000 A 
ATOM     15  N   UNL     1      46.308   1.084   8.282  0.00  0.00    +0.000 NA
ENDBRANCH   9  10
ENDBRANCH   8   9
ENDBRANCH   5   8
ENDBRANCH   1   2
BRANCH   1  16
ATOM     16  N   UNL     1      47.822   6.267  13.925  0.00  0.00    +0.000 N 
ATOM     17  C   UNL     1      48.348   6.995  14.959  0.00  0.00    +0.000 C 
ATOM     18  O   UNL     1      48.283   8.222  14.972  0.00  0.00    +0.000 OA
ATOM     19  H   UNL     1      47.943   5.259  13.880  0.00  0.00    +0.000 HD
BRANCH  17  20
ATOM     20  C   UNL     1      48.990   6.258  16.058  0.00  0.00    +0.000 A 
ATOM     21  C   UNL     1      50.199   6.725  16.562  0.00  0.00    +0.000 A 
ATOM     22  S   UNL     1      50.815   5.794  17.848  0.00  0.00    +0.000 S 
ATOM     23  C   UNL     1      49.503   4.717  17.765  0.00  0.00    +0.000 A 
ATOM     24  N   UNL     1      49.421   3.659  18.614  0.00  0.00    +0.000 NA
ATOM     25  C   UNL     1      48.389   2.907  18.433  0.00  0.00    +0.000 A 
ATOM     26  N   UNL     1      47.426   3.119  17.480  0.00  0.00    +0.000 N 
ATOM     27  C   UNL     1      47.466   4.176  16.603  0.00  0.00    +0.000 A 
ATOM     28  O   UNL     1      46.594   4.325  15.752  0.00  0.00    +0.000 OA
ATOM     29  C   UNL     1      48.605   5.059  16.767  0.00  0.00    +0.000 A 
ATOM     30  H   UNL     1      46.645   2.488  17.385  0.00  0.00    +0.000 HD
ENDBRANCH  17  20
ENDBRANCH   1  16
BRANCH   1  31
ATOM     31  C   UNL     1      48.315   7.420  11.765  0.00  0.00    +0.000 C 
BRANCH  31  32
ATOM     32  N   UNL     1      48.632   8.851  11.891  0.00  0.00    +0.000 NA
ATOM     33  H   UNL     1      49.508   8.957  12.400  0.00  0.00    +0.000 HD
ATOM     34  H   UNL     1      47.916   9.303  12.460  0.00  0.00    +0.000 HD
ENDBRANCH  31  32
ENDBRANCH   1  31
TORSDOF 8
ENDMDL
MODEL 3
REMARK VINA RESULT:    -8.123      2.545      3.652
REMARK INTER + INTRA:         -12.158
REMARK INTER:                 -10.688
REMARK INTRA:                  -1.470
REMARK UNBOUND:                -0.474
REMARK  Name = 
REMARK  8 active torsions:
REMARK  status: ('A' for Active; 'I' for Inactive)
REMARK    1  A    between atoms: N_1  and  C_2
REMARK    2  A    between atoms: C_2  and  C_3
REMARK    3  A    between atoms: C_3  and  N_4
REMARK    4  A    between atoms: C_3  and  C_17
REMARK    5  A    between atoms: C_5  and  C_7
REMARK    6  A    between atoms: C_20  and  O_21
REMARK    7  A    between atoms: O_21  and  C_22
REMARK    8  A    between atoms: C_22  and  C_23
REMARK                            x       y       z     vdW  Elec       q    Type
REMARK                         _______ _______ _______ _____ _____    ______ ____
ROOT
ATOM      1  C   UNL     1      47.709   5.026  14.748  0.00  0.00    +0.000 C 
ENDROOT
BRANCH   1   2
ATOM      2  C   UNL     1      46.738   4.919  13.583  0.00  0.00    +0.000 A 
ATOM      3  C   UNL     1      46.596   5.989  12.685  0.00  0.00    +0.000 A 
ATOM      4  C   UNL     1      45.861   5.832  11.505  0.00  0.00    +0.000 A 
ATOM      5  C   UNL     1      45.263   4.607  11.217  0.00  0.00    +0.000 A 
ATOM      6  C   UNL     1      45.268   3.597  12.176  0.00  0.00    +0.000 A 
ATOM      7  C   UNL     1      45.998   3.753  13.350  0.00  0.00    +0.000 A 
BRANCH   5   8
ATOM      8  O   UNL     1      44.723   4.467   9.965  0.00  0.00    +0.000 OA
BRANCH   8   9
ATOM      9  C   UNL     1      44.459   3.100   9.608  0.00  0.00    +0.000 C 
BRANCH   9  10
ATOM     10  C   UNL     1      45.412   2.634   8.538  0.00  0.00    +0.000 A 
ATOM     11  C   UNL     1      45.865   3.528   7.570  0.00  0.00    +0.000 A 
ATOM     12  C   UNL     1      46.778   3.084   6.620  0.00  0.00    +0.000 A 
ATOM     13  C   UNL     1      47.217   1.766   6.666  0.00  0.00    +0.000 A 
ATOM     14  C   UNL     1      46.731   0.945   7.668  0.00  0.00    +0.000 A 
ATOM     15  N   UNL     1      45.847   1.348   8.606  0.00  0.00    +0.000 NA
ENDBRANCH   9  10
ENDBRANCH   8   9
ENDBRANCH   5   8
ENDBRANCH   1   2
BRANCH   1  16
ATOM     16  N   UNL     1      47.715   6.380  15.271  0.00  0.00    +0.000 N 
ATOM     17  C   UNL     1      48.884   7.065  15.478  0.00  0.00    +0.000 C 
ATOM     18  O   UNL     1      49.969   6.577  15.173  0.00  0.00    +0.000 OA
ATOM     19  H   UNL     1      46.826   6.755  15.592  0.00  0.00    +0.000 HD
BRANCH  17  20
ATOM     20  C   UNL     1      48.795   8.407  16.072  0.00  0.00    +0.000 A 
ATOM     21  C   UNL     1      49.253   9.496  15.338  0.00  0.00    +0.000 A 
ATOM     22  S   UNL     1      49.066  10.990  16.133  0.00  0.00    +0.000 S 
ATOM     23  C   UNL     1      48.388  10.238  17.498  0.00  0.00    +0.000 A 
ATOM     24  N   UNL     1      48.000  10.974  18.574  0.00  0.00    +0.000 NA
ATOM     25  C   UNL     1      47.522  10.280  19.550  0.00  0.00    +0.000 A 
ATOM     26  N   UNL     1      47.392   8.916  19.549  0.00  0.00    +0.000 N 
ATOM     27  C   UNL     1      47.767   8.132  18.484  0.00  0.00    +0.000 A 
ATOM     28  O   UNL     1      47.650   6.911  18.526  0.00  0.00    +0.000 OA
ATOM     29  C   UNL     1      48.307   8.862  17.353  0.00  0.00    +0.000 A 
ATOM     30  H   UNL     1      47.015   8.432  20.350  0.00  0.00    +0.000 HD
ENDBRANCH  17  20
ENDBRANCH   1  16
BRANCH   1  31
ATOM     31  C   UNL     1      47.456   3.972  15.878  0.00  0.00    +0.000 C 
BRANCH  31  32
ATOM     32  N   UNL     1      46.762   4.506  17.059  0.00  0.00    +0.000 NA
ATOM     33  H   UNL     1      46.419   5.443  16.852  0.00  0.00    +0.000 HD
ATOM     34  H   UNL     1      47.431   4.609  17.822  0.00  0.00    +0.000 HD
ENDBRANCH  31  32
ENDBRANCH   1  31
TORSDOF 8
ENDMDL
MODEL 4
REMARK VINA RESULT:    -8.081      1.998      2.371
REMARK INTER + INTRA:         -12.097
REMARK INTER:                 -11.382
REMARK INTRA:                  -0.715
REMARK UNBOUND:                -0.474
REMARK  Name = 
REMARK  8 active torsions:
REMARK  status: ('A' for Active; 'I' for Inactive)
REMARK    1  A    between atoms: N_1  and  C_2
REMARK    2  A    between atoms: C_2  and  C_3
REMARK    3  A    between atoms: C_3  and  N_4
REMARK    4  A    between atoms: C_3  and  C_17
REMARK    5  A    between atoms: C_5  and  C_7
REMARK    6  A    between atoms: C_20  and  O_21
REMARK    7  A    between atoms: O_21  and  C_22
REMARK    8  A    between atoms: C_22  and  C_23
REMARK                            x       y       z     vdW  Elec       q    Type
REMARK                         _______ _______ _______ _____ _____    ______ ____
ROOT
ATOM      1  C   UNL     1      47.510   6.563  13.484  0.00  0.00    +0.000 C 
ENDROOT
BRANCH   1   2
ATOM      2  C   UNL     1      46.462   5.896  12.607  0.00  0.00    +0.000 A 
ATOM      3  C   UNL     1      46.056   6.505  11.409  0.00  0.00    +0.000 A 
ATOM      4  C   UNL     1      45.246   5.814  10.501  0.00  0.00    +0.000 A 
ATOM      5  C   UNL     1      44.837   4.514  10.785  0.00  0.00    +0.000 A 
ATOM      6  C   UNL     1      45.104   3.967  12.039  0.00  0.00    +0.000 A 
ATOM      7  C   UNL     1      45.908   4.655  12.943  0.00  0.00    +0.000 A 
BRANCH   5   8
ATOM      8  O   UNL     1      44.208   3.833   9.775  0.00  0.00    +0.000 OA
BRANCH   8   9
ATOM      9  C   UNL     1      44.666   2.479   9.629  0.00  0.00    +0.000 C 
BRANCH   9  10
ATOM     10  C   UNL     1      45.586   2.351   8.442  0.00  0.00    +0.000 A 
ATOM     11  C   UNL     1      45.770   3.433   7.584  0.00  0.00    +0.000 A 
ATOM     12  C   UNL     1      46.657   3.304   6.521  0.00  0.00    +0.000 A 
ATOM     13  C   UNL     1      47.338   2.104   6.348  0.00  0.00    +0.000 A 
ATOM     14  C   UNL     1      47.111   1.083   7.253  0.00  0.00    +0.000 A 
ATOM     15  N   UNL     1      46.258   1.180   8.296  0.00  0.00    +0.000 NA
ENDBRANCH   9  10
ENDBRANCH   8   9
ENDBRANCH   5   8
ENDBRANCH   1   2
BRANCH   1  16
ATOM     16  N   UNL     1      47.576   5.903  14.775  0.00  0.00    +0.000 N 
ATOM     17  C   UNL     1      48.442   6.321  15.751  0.00  0.00    +0.000 C 
ATOM     18  O   UNL     1      49.156   7.307  15.589  0.00  0.00    +0.000 OA
ATOM     19  H   UNL     1      47.042   5.045  14.883  0.00  0.00    +0.000 HD
BRANCH  17  20
ATOM     20  C   UNL     1      48.485   5.551  17.004  0.00  0.00    +0.000 A 
ATOM     21  C   UNL     1      48.760   4.190  16.944  0.00  0.00    +0.000 A 
ATOM     22  S   UNL     1      48.806   3.429  18.467  0.00  0.00    +0.000 S 
ATOM     23  C   UNL     1      48.436   4.885  19.263  0.00  0.00    +0.000 A 
ATOM     24  N   UNL     1      48.321   4.924  20.617  0.00  0.00    +0.000 NA
ATOM     25  C   UNL     1      48.016   6.083  21.094  0.00  0.00    +0.000 A 
ATOM     26  N   UNL     1      47.819   7.211  20.339  0.00  0.00    +0.000 N 
ATOM     27  C   UNL     1      47.928   7.219  18.969  0.00  0.00    +0.000 A 
ATOM     28  O   UNL     1      47.728   8.245  18.325  0.00  0.00    +0.000 OA
ATOM     29  C   UNL     1      48.276   5.940  18.379  0.00  0.00    +0.000 A 
ATOM     30  H   UNL     1      47.575   8.088  20.774  0.00  0.00    +0.000 HD
ENDBRANCH  17  20
ENDBRANCH   1  16
BRANCH   1  31
ATOM     31  C   UNL     1      48.922   6.660  12.813  0.00  0.00    +0.000 C 
BRANCH  31  32
ATOM     32  N   UNL     1      49.380   8.035  12.564  0.00  0.00    +0.000 NA
ATOM     33  H   UNL     1      50.357   8.119  12.841  0.00  0.00    +0.000 HD
ATOM     34  H   UNL     1      48.858   8.675  13.162  0.00  0.00    +0.000 HD
ENDBRANCH  31  32
ENDBRANCH   1  31
TORSDOF 8
ENDMDL
MODEL 5
REMARK VINA RESULT:    -7.876      2.055      2.677
REMARK INTER + INTRA:         -11.802
REMARK INTER:                 -10.681
REMARK INTRA:                  -1.121
REMARK UNBOUND:                -0.474
REMARK  Name = 
REMARK  8 active torsions:
REMARK  status: ('A' for Active; 'I' for Inactive)
REMARK    1  A    between atoms: N_1  and  C_2
REMARK    2  A    between atoms: C_2  and  C_3
REMARK    3  A    between atoms: C_3  and  N_4
REMARK    4  A    between atoms: C_3  and  C_17
REMARK    5  A    between atoms: C_5  and  C_7
REMARK    6  A    between atoms: C_20  and  O_21
REMARK    7  A    between atoms: O_21  and  C_22
REMARK    8  A    between atoms: C_22  and  C_23
REMARK                            x       y       z     vdW  Elec       q    Type
REMARK                         _______ _______ _______ _____ _____    ______ ____
ROOT
ATOM      1  C   UNL     1      47.897   6.924  13.576  0.00  0.00    +0.000 C 
ENDROOT
BRANCH   1   2
ATOM      2  C   UNL     1      46.777   6.163  12.883  0.00  0.00    +0.000 A 
ATOM      3  C   UNL     1      46.319   6.580  11.623  0.00  0.00    +0.000 A 
ATOM      4  C   UNL     1      45.435   5.781  10.890  0.00  0.00    +0.000 A 
ATOM      5  C   UNL     1      45.003   4.564  11.411  0.00  0.00    +0.000 A 
ATOM      6  C   UNL     1      45.328   4.223  12.722  0.00  0.00    +0.000 A 
ATOM      7  C   UNL     1      46.207   5.019  13.452  0.00  0.00    +0.000 A 
BRANCH   5   8
ATOM      8  O   UNL     1      44.294   3.750  10.566  0.00  0.00    +0.000 OA
BRANCH   8   9
ATOM      9  C   UNL     1      44.361   4.160   9.191  0.00  0.00    +0.000 C 
BRANCH   9  10
ATOM     10  C   UNL     1      45.380   3.342   8.439  0.00  0.00    +0.000 A 
ATOM     11  C   UNL     1      45.530   1.986   8.720  0.00  0.00    +0.000 A 
ATOM     12  C   UNL     1      46.446   1.244   7.982  0.00  0.00    +0.000 A 
ATOM     13  C   UNL     1      47.180   1.873   6.984  0.00  0.00    +0.000 A 
ATOM     14  C   UNL     1      46.961   3.220   6.756  0.00  0.00    +0.000 A 
ATOM     15  N   UNL     1      46.077   3.965   7.453  0.00  0.00    +0.000 NA
ENDBRANCH   9  10
ENDBRANCH   8   9
ENDBRANCH   5   8
ENDBRANCH   1   2
BRANCH   1  16
ATOM     16  N   UNL     1      48.295   6.232  14.789  0.00  0.00    +0.000 N 
ATOM     17  C   UNL     1      48.646   6.917  15.922  0.00  0.00    +0.000 C 
ATOM     18  O   UNL     1      48.581   8.142  15.972  0.00  0.00    +0.000 OA
ATOM     19  H   UNL     1      48.421   5.226  14.726  0.00  0.00    +0.000 HD
BRANCH  17  20
ATOM     20  C   UNL     1      49.098   6.134  17.083  0.00  0.00    +0.000 A 
ATOM     21  C   UNL     1      48.150   5.669  17.988  0.00  0.00    +0.000 A 
ATOM     22  S   UNL     1      48.808   4.755  19.266  0.00  0.00    +0.000 S 
ATOM     23  C   UNL     1      50.387   4.965  18.672  0.00  0.00    +0.000 A 
ATOM     24  N   UNL     1      51.450   4.422  19.323  0.00  0.00    +0.000 NA
ATOM     25  C   UNL     1      52.593   4.674  18.781  0.00  0.00    +0.000 A 
ATOM     26  N   UNL     1      52.771   5.418  17.644  0.00  0.00    +0.000 N 
ATOM     27  C   UNL     1      51.728   5.984  16.952  0.00  0.00    +0.000 A 
ATOM     28  O   UNL     1      51.927   6.658  15.946  0.00  0.00    +0.000 OA
ATOM     29  C   UNL     1      50.415   5.726  17.514  0.00  0.00    +0.000 A 
ATOM     30  H   UNL     1      53.695   5.584  17.275  0.00  0.00    +0.000 HD
ENDBRANCH  17  20
ENDBRANCH   1  16
BRANCH   1  31
ATOM     31  C   UNL     1      49.125   7.219  12.650  0.00  0.00    +0.000 C 
BRANCH  31  32
ATOM     32  N   UNL     1      50.357   7.567  13.372  0.00  0.00    +0.000 NA
ATOM     33  H   UNL     1      50.777   6.719  13.747  0.00  0.00    +0.000 HD
ATOM     34  H   UNL     1      50.120   8.149  14.176  0.00  0.00    +0.000 HD
ENDBRANCH  31  32
ENDBRANCH   1  31
TORSDOF 8
ENDMDL
MODEL 6
REMARK VINA RESULT:    -7.841      2.002      2.477
REMARK INTER + INTRA:         -11.753
REMARK INTER:                 -10.702
REMARK INTRA:                  -1.051
REMARK UNBOUND:                -0.474
REMARK  Name = 
REMARK  8 active torsions:
REMARK  status: ('A' for Active; 'I' for Inactive)
REMARK    1  A    between atoms: N_1  and  C_2
REMARK    2  A    between atoms: C_2  and  C_3
REMARK    3  A    between atoms: C_3  and  N_4
REMARK    4  A    between atoms: C_3  and  C_17
REMARK    5  A    between atoms: C_5  and  C_7
REMARK    6  A    between atoms: C_20  and  O_21
REMARK    7  A    between atoms: O_21  and  C_22
REMARK    8  A    between atoms: C_22  and  C_23
REMARK                            x       y       z     vdW  Elec       q    Type
REMARK                         _______ _______ _______ _____ _____    ______ ____
ROOT
ATOM      1  C   UNL     1      47.400   7.896  13.121  0.00  0.00    +0.000 C 
ENDROOT
BRANCH   1   2
ATOM      2  C   UNL     1      46.451   6.792  12.682  0.00  0.00    +0.000 A 
ATOM      3  C   UNL     1      45.563   7.010  11.617  0.00  0.00    +0.000 A 
ATOM      4  C   UNL     1      44.830   5.948  11.076  0.00  0.00    +0.000 A 
ATOM      5  C   UNL     1      44.978   4.665  11.596  0.00  0.00    +0.000 A 
ATOM      6  C   UNL     1      45.734   4.474  12.751  0.00  0.00    +0.000 A 
ATOM      7  C   UNL     1      46.463   5.531  13.290  0.00  0.00    +0.000 A 
BRANCH   5   8
ATOM      8  O   UNL     1      44.378   3.647  10.902  0.00  0.00    +0.000 OA
BRANCH   8   9
ATOM      9  C   UNL     1      44.160   3.955   9.515  0.00  0.00    +0.000 C 
BRANCH   9  10
ATOM     10  C   UNL     1      45.228   3.330   8.655  0.00  0.00    +0.000 A 
ATOM     11  C   UNL     1      45.513   1.971   8.776  0.00  0.00    +0.000 A 
ATOM     12  C   UNL     1      46.472   1.409   7.940  0.00  0.00    +0.000 A 
ATOM     13  C   UNL     1      47.112   2.215   7.006  0.00  0.00    +0.000 A 
ATOM     14  C   UNL     1      46.761   3.551   6.938  0.00  0.00    +0.000 A 
ATOM     15  N   UNL     1      45.832   4.124   7.734  0.00  0.00    +0.000 NA
ENDBRANCH   9  10
ENDBRANCH   8   9
ENDBRANCH   5   8
ENDBRANCH   1   2
BRANCH   1  16
ATOM     16  N   UNL     1      47.542   7.887  14.566  0.00  0.00    +0.000 N 
ATOM     17  C   UNL     1      48.203   8.889  15.228  0.00  0.00    +0.000 C 
ATOM     18  O   UNL     1      48.650   9.862  14.627  0.00  0.00    +0.000 OA
ATOM     19  H   UNL     1      47.239   7.050  15.055  0.00  0.00    +0.000 HD
BRANCH  17  20
ATOM     20  C   UNL     1      48.354   8.763  16.685  0.00  0.00    +0.000 A 
ATOM     21  C   UNL     1      47.981   9.832  17.492  0.00  0.00    +0.000 A 
ATOM     22  S   UNL     1      48.183   9.541  19.158  0.00  0.00    +0.000 S 
ATOM     23  C   UNL     1      48.798   7.984  18.864  0.00  0.00    +0.000 A 
ATOM     24  N   UNL     1      49.178   7.184  19.896  0.00  0.00    +0.000 NA
ATOM     25  C   UNL     1      49.647   6.037  19.536  0.00  0.00    +0.000 A 
ATOM     26  N   UNL     1      49.769   5.615  18.238  0.00  0.00    +0.000 N 
ATOM     27  C   UNL     1      49.395   6.388  17.164  0.00  0.00    +0.000 A 
ATOM     28  O   UNL     1      49.534   5.983  16.014  0.00  0.00    +0.000 OA
ATOM     29  C   UNL     1      48.853   7.688  17.512  0.00  0.00    +0.000 A 
ATOM     30  H   UNL     1      50.151   4.707  18.023  0.00  0.00    +0.000 HD
ENDBRANCH  17  20
ENDBRANCH   1  16
BRANCH   1  31
ATOM     31  C   UNL     1      48.792   7.852  12.404  0.00  0.00    +0.000 C 
BRANCH  31  32
ATOM     32  N   UNL     1      49.773   6.961  13.041  0.00  0.00    +0.000 NA
ATOM     33  H   UNL     1      50.529   7.520  13.432  0.00  0.00    +0.000 HD
ATOM     34  H   UNL     1      50.196   6.366  12.329  0.00  0.00    +0.000 HD
ENDBRANCH  31  32
ENDBRANCH   1  31
TORSDOF 8
ENDMDL
MODEL 7
REMARK VINA RESULT:    -7.694      2.500      3.235
REMARK INTER + INTRA:         -11.542
REMARK INTER:                 -10.366
REMARK INTRA:                  -1.176
REMARK UNBOUND:                -0.474
REMARK  Name = 
REMARK  8 active torsions:
REMARK  status: ('A' for Active; 'I' for Inactive)
REMARK    1  A    between atoms: N_1  and  C_2
REMARK    2  A    between atoms: C_2  and  C_3
REMARK    3  A    between atoms: C_3  and  N_4
REMARK    4  A    between atoms: C_3  and  C_17
REMARK    5  A    between atoms: C_5  and  C_7
REMARK    6  A    between atoms: C_20  and  O_21
REMARK    7  A    between atoms: O_21  and  C_22
REMARK    8  A    between atoms: C_22  and  C_23
REMARK                            x       y       z     vdW  Elec       q    Type
REMARK                         _______ _______ _______ _____ _____    ______ ____
ROOT
ATOM      1  C   UNL     1      48.515   6.925  15.404  0.00  0.00    +0.000 C 
ENDROOT
BRANCH   1   2
ATOM      2  C   UNL     1      47.708   6.225  14.321  0.00  0.00    +0.000 A 
ATOM      3  C   UNL     1      47.123   4.974  14.577  0.00  0.00    +0.000 A 
ATOM      4  C   UNL     1      46.220   4.414  13.667  0.00  0.00    +0.000 A 
ATOM      5  C   UNL     1      45.898   5.099  12.497  0.00  0.00    +0.000 A 
ATOM      6  C   UNL     1      46.594   6.259  12.166  0.00  0.00    +0.000 A 
ATOM      7  C   UNL     1      47.494   6.816  13.070  0.00  0.00    +0.000 A 
BRANCH   5   8
ATOM      8  O   UNL     1      44.872   4.585  11.748  0.00  0.00    +0.000 OA
BRANCH   8   9
ATOM      9  C   UNL     1      44.796   5.144  10.426  0.00  0.00    +0.000 C 
BRANCH   9  10
ATOM     10  C   UNL     1      45.351   4.184   9.407  0.00  0.00    +0.000 A 
ATOM     11  C   UNL     1      45.145   2.814   9.555  0.00  0.00    +0.000 A 
ATOM     12  C   UNL     1      45.630   1.951   8.578  0.00  0.00    +0.000 A 
ATOM     13  C   UNL     1      46.299   2.479   7.480  0.00  0.00    +0.000 A 
ATOM     14  C   UNL     1      46.449   3.852   7.398  0.00  0.00    +0.000 A 
ATOM     15  N   UNL     1      45.987   4.714   8.330  0.00  0.00    +0.000 NA
ENDBRANCH   9  10
ENDBRANCH   8   9
ENDBRANCH   5   8
ENDBRANCH   1   2
BRANCH   1  16
ATOM     16  N   UNL     1      49.565   6.048  15.890  0.00  0.00    +0.000 N 
ATOM     17  C   UNL     1      49.804   5.889  17.229  0.00  0.00    +0.000 C 
ATOM     18  O   UNL     1      49.099   6.438  18.072  0.00  0.00    +0.000 OA
ATOM     19  H   UNL     1      50.195   5.653  15.196  0.00  0.00    +0.000 HD
BRANCH  17  20
ATOM     20  C   UNL     1      50.931   5.032  17.627  0.00  0.00    +0.000 A 
ATOM     21  C   UNL     1      52.065   5.624  18.171  0.00  0.00    +0.000 A 
ATOM     22  S   UNL     1      53.280   4.514  18.610  0.00  0.00    +0.000 S 
ATOM     23  C   UNL     1      52.347   3.201  18.069  0.00  0.00    +0.000 A 
ATOM     24  N   UNL     1      52.823   1.930  18.158  0.00  0.00    +0.000 NA
ATOM     25  C   UNL     1      52.027   1.028  17.693  0.00  0.00    +0.000 A 
ATOM     26  N   UNL     1      50.795   1.280  17.147  0.00  0.00    +0.000 N 
ATOM     27  C   UNL     1      50.272   2.546  17.039  0.00  0.00    +0.000 A 
ATOM     28  O   UNL     1      49.172   2.735  16.530  0.00  0.00    +0.000 OA
ATOM     29  C   UNL     1      51.124   3.601  17.555  0.00  0.00    +0.000 A 
ATOM     30  H   UNL     1      50.223   0.528  16.794  0.00  0.00    +0.000 HD
ENDBRANCH  17  20
ENDBRANCH   1  16
BRANCH   1  31
ATOM     31  C   UNL     1      49.081   8.317  14.966  0.00  0.00    +0.000 C 
BRANCH  31  32
ATOM     32  N   UNL     1      48.246   9.461  15.361  0.00  0.00    +0.000 NA
ATOM     33  H   UNL     1      48.684  10.323  15.040  0.00  0.00    +0.000 HD
ATOM     34  H   UNL     1      48.218   9.518  16.379  0.00  0.00    +0.000 HD
ENDBRANCH  31  32
ENDBRANCH   1  31
TORSDOF 8
ENDMDL
MODEL 8
REMARK VINA RESULT:    -7.554      1.658      2.106
REMARK INTER + INTRA:         -11.339
REMARK INTER:                 -10.105
REMARK INTRA:                  -1.234
REMARK UNBOUND:                -0.474
REMARK  Name = 
REMARK  8 active torsions:
REMARK  status: ('A' for Active; 'I' for Inactive)
REMARK    1  A    between atoms: N_1  and  C_2
REMARK    2  A    between atoms: C_2  and  C_3
REMARK    3  A    between atoms: C_3  and  N_4
REMARK    4  A    between atoms: C_3  and  C_17
REMARK    5  A    between atoms: C_5  and  C_7
REMARK    6  A    between atoms: C_20  and  O_21
REMARK    7  A    between atoms: O_21  and  C_22
REMARK    8  A    between atoms: C_22  and  C_23
REMARK                            x       y       z     vdW  Elec       q    Type
REMARK                         _______ _______ _______ _____ _____    ______ ____
ROOT
ATOM      1  C   UNL     1      48.053   7.727  13.607  0.00  0.00    +0.000 C 
ENDROOT
BRANCH   1   2
ATOM      2  C   UNL     1      47.168   6.766  12.828  0.00  0.00    +0.000 A 
ATOM      3  C   UNL     1      47.066   5.423  13.227  0.00  0.00    +0.000 A 
ATOM      4  C   UNL     1      46.111   4.581  12.647  0.00  0.00    +0.000 A 
ATOM      5  C   UNL     1      45.255   5.075  11.666  0.00  0.00    +0.000 A 
ATOM      6  C   UNL     1      45.457   6.356  11.157  0.00  0.00    +0.000 A 
ATOM      7  C   UNL     1      46.409   7.193  11.733  0.00  0.00    +0.000 A 
BRANCH   5   8
ATOM      8  O   UNL     1      44.226   4.255  11.279  0.00  0.00    +0.000 OA
BRANCH   8   9
ATOM      9  C   UNL     1      43.907   4.362   9.882  0.00  0.00    +0.000 C 
BRANCH   9  10
ATOM     10  C   UNL     1      44.915   3.615   9.046  0.00  0.00    +0.000 A 
ATOM     11  C   UNL     1      45.071   2.240   9.206  0.00  0.00    +0.000 A 
ATOM     12  C   UNL     1      45.975   1.568   8.391  0.00  0.00    +0.000 A 
ATOM     13  C   UNL     1      46.691   2.283   7.439  0.00  0.00    +0.000 A 
ATOM     14  C   UNL     1      46.467   3.644   7.332  0.00  0.00    +0.000 A 
ATOM     15  N   UNL     1      45.594   4.324   8.106  0.00  0.00    +0.000 NA
ENDBRANCH   9  10
ENDBRANCH   8   9
ENDBRANCH   5   8
ENDBRANCH   1   2
BRANCH   1  16
ATOM     16  N   UNL     1      48.489   7.111  14.847  0.00  0.00    +0.000 N 
ATOM     17  C   UNL     1      48.516   7.812  16.025  0.00  0.00    +0.000 C 
ATOM     18  O   UNL     1      48.117   8.972  16.085  0.00  0.00    +0.000 OA
ATOM     19  H   UNL     1      48.888   6.179  14.785  0.00  0.00    +0.000 HD
BRANCH  17  20
ATOM     20  C   UNL     1      49.033   7.125  17.218  0.00  0.00    +0.000 A 
ATOM     21  C   UNL     1      50.009   7.755  17.983  0.00  0.00    +0.000 A 
ATOM     22  S   UNL     1      50.497   6.861  19.348  0.00  0.00    +0.000 S 
ATOM     23  C   UNL     1      49.441   5.588  18.957  0.00  0.00    +0.000 A 
ATOM     24  N   UNL     1      49.372   4.480  19.742  0.00  0.00    +0.000 NA
ATOM     25  C   UNL     1      48.549   3.580  19.322  0.00  0.00    +0.000 A 
ATOM     26  N   UNL     1      47.785   3.687  18.189  0.00  0.00    +0.000 N 
ATOM     27  C   UNL     1      47.820   4.788  17.368  0.00  0.00    +0.000 A 
ATOM     28  O   UNL     1      47.133   4.842  16.352  0.00  0.00    +0.000 OA
ATOM     29  C   UNL     1      48.726   5.837  17.796  0.00  0.00    +0.000 A 
ATOM     30  H   UNL     1      47.164   2.942  17.912  0.00  0.00    +0.000 HD
ENDBRANCH  17  20
ENDBRANCH   1  16
BRANCH   1  31
ATOM     31  C   UNL     1      49.263   8.278  12.780  0.00  0.00    +0.000 C 
BRANCH  31  32
ATOM     32  N   UNL     1      50.414   7.366  12.710  0.00  0.00    +0.000 NA
ATOM     33  H   UNL     1      50.114   6.428  12.969  0.00  0.00    +0.000 HD
ATOM     34  H   UNL     1      51.106   7.647  13.405  0.00  0.00    +0.000 HD
ENDBRANCH  31  32
ENDBRANCH   1  31
TORSDOF 8
ENDMDL
MODEL 9
REMARK VINA RESULT:    -7.315      4.051      8.157
REMARK INTER + INTRA:         -10.995
REMARK INTER:                  -9.903
REMARK INTRA:                  -1.092
REMARK UNBOUND:                -0.474
REMARK  Name = 
REMARK  8 active torsions:
REMARK  status: ('A' for Active; 'I' for Inactive)
REMARK    1  A    between atoms: N_1  and  C_2
REMARK    2  A    between atoms: C_2  and  C_3
REMARK    3  A    between atoms: C_3  and  N_4
REMARK    4  A    between atoms: C_3  and  C_17
REMARK    5  A    between atoms: C_5  and  C_7
REMARK    6  A    between atoms: C_20  and  O_21
REMARK    7  A    between atoms: O_21  and  C_22
REMARK    8  A    between atoms: C_22  and  C_23
REMARK                            x       y       z     vdW  Elec       q    Type
REMARK                         _______ _______ _______ _____ _____    ______ ____
ROOT
ATOM      1  C   UNL     1      49.208   7.329  15.974  0.00  0.00    +0.000 C 
ENDROOT
BRANCH   1   2
ATOM      2  C   UNL     1      49.817   6.109  16.649  0.00  0.00    +0.000 A 
ATOM      3  C   UNL     1      49.007   5.011  16.981  0.00  0.00    +0.000 A 
ATOM      4  C   UNL     1      49.580   3.813  17.418  0.00  0.00    +0.000 A 
ATOM      5  C   UNL     1      50.965   3.704  17.525  0.00  0.00    +0.000 A 
ATOM      6  C   UNL     1      51.759   4.835  17.351  0.00  0.00    +0.000 A 
ATOM      7  C   UNL     1      51.188   6.028  16.918  0.00  0.00    +0.000 A 
BRANCH   5   8
ATOM      8  O   UNL     1      51.465   2.452  17.775  0.00  0.00    +0.000 OA
BRANCH   8   9
ATOM      9  C   UNL     1      52.763   2.470  18.390  0.00  0.00    +0.000 C 
BRANCH   9  10
ATOM     10  C   UNL     1      53.579   1.281  17.952  0.00  0.00    +0.000 A 
ATOM     11  C   UNL     1      54.565   1.432  16.980  0.00  0.00    +0.000 A 
ATOM     12  C   UNL     1      55.334   0.329  16.625  0.00  0.00    +0.000 A 
ATOM     13  C   UNL     1      55.101  -0.889  17.252  0.00  0.00    +0.000 A 
ATOM     14  C   UNL     1      54.113  -0.954  18.218  0.00  0.00    +0.000 A 
ATOM     15  N   UNL     1      53.353   0.101  18.587  0.00  0.00    +0.000 NA
ENDBRANCH   9  10
ENDBRANCH   8   9
ENDBRANCH   5   8
ENDBRANCH   1   2
BRANCH   1  16
ATOM     16  N   UNL     1      48.073   6.934  15.160  0.00  0.00    +0.000 N 
ATOM     17  C   UNL     1      48.199   6.709  13.814  0.00  0.00    +0.000 C 
ATOM     18  O   UNL     1      49.291   6.777  13.257  0.00  0.00    +0.000 OA
ATOM     19  H   UNL     1      47.158   6.951  15.603  0.00  0.00    +0.000 HD
BRANCH  17  20
ATOM     20  C   UNL     1      46.981   6.377  13.059  0.00  0.00    +0.000 A 
ATOM     21  C   UNL     1      46.274   7.404  12.443  0.00  0.00    +0.000 A 
ATOM     22  S   UNL     1      44.904   6.876  11.581  0.00  0.00    +0.000 S 
ATOM     23  C   UNL     1      45.189   5.258  12.017  0.00  0.00    +0.000 A 
ATOM     24  N   UNL     1      44.355   4.270  11.596  0.00  0.00    +0.000 NA
ATOM     25  C   UNL     1      44.670   3.091  12.014  0.00  0.00    +0.000 A 
ATOM     26  N   UNL     1      45.747   2.808  12.814  0.00  0.00    +0.000 N 
ATOM     27  C   UNL     1      46.618   3.773  13.260  0.00  0.00    +0.000 A 
ATOM     28  O   UNL     1      47.563   3.484  13.988  0.00  0.00    +0.000 OA
ATOM     29  C   UNL     1      46.314   5.119  12.814  0.00  0.00    +0.000 A 
ATOM     30  H   UNL     1      45.935   1.863  13.112  0.00  0.00    +0.000 HD
ENDBRANCH  17  20
ENDBRANCH   1  16
BRANCH   1  31
ATOM     31  C   UNL     1      48.834   8.478  16.970  0.00  0.00    +0.000 C 
BRANCH  31  32
ATOM     32  N   UNL     1      47.702   9.310  16.535  0.00  0.00    +0.000 NA
ATOM     33  H   UNL     1      48.039  10.024  15.891  0.00  0.00    +0.000 HD
ATOM     34  H   UNL     1      47.325   9.808  17.341  0.00  0.00    +0.000 HD
ENDBRANCH  31  32
ENDBRANCH   1  31
TORSDOF 8
ENDMDL
