MODEL 1
REMARK VINA RESULT:    -8.287      0.000      0.000
REMARK INTER + INTRA:         -12.805
REMARK INTER:                 -12.162
REMARK INTRA:                  -0.642
REMARK UNBOUND:                -0.642
REMARK  Name = 
REMARK  10 active torsions:
REMARK  status: ('A' for Active; 'I' for Inactive)
REMARK    1  A    between atoms: C_1  and  C_2
REMARK    2  A    between atoms: C_2  and  N_3
REMARK    3  A    between atoms: C_2  and  C_21
REMARK    4  A    between atoms: N_3  and  C_4
REMARK    5  A    between atoms: C_4  and  C_5
REMARK    6  A    between atoms: C_8  and  C_9
REMARK    7  A    between atoms: C_9  and  N_10
REMARK    8  A    between atoms: N_10  and  C_11
REMARK    9  A    between atoms: N_10  and  C_12
REMARK   10  A    between atoms: C_12  and  C_13
REMARK                            x       y       z     vdW  Elec       q    Type
REMARK                         _______ _______ _______ _____ _____    ______ ____
ROOT
ATOM      1  C   UNL     1      48.784   6.609  14.998  0.00  0.00    +0.000 C 
ENDROOT
BRANCH   1   2
ATOM      2  C   UNL     1      47.764   6.336  13.907  0.00  0.00    +0.000 A 
ATOM      3  N   UNL     1      47.537   5.048  13.570  0.00  0.00    +0.000 NA
ATOM      4  C   UNL     1      46.453   4.809  12.813  0.00  0.00    +0.000 A 
ATOM      5  C   UNL     1      45.576   5.792  12.393  0.00  0.00    +0.000 A 
ATOM      6  C   UNL     1      45.941   7.081  12.733  0.00  0.00    +0.000 A 
ATOM      7  N   UNL     1      47.016   7.379  13.486  0.00  0.00    +0.000 NA
BRANCH   5   8
ATOM      8  C   UNL     1      44.282   5.458  11.712  0.00  0.00    +0.000 C 
BRANCH   8   9
ATOM      9  N   UNL     1      44.297   4.093  11.145  0.00  0.00    +0.000 NA
ATOM     10  C   UNL     1      43.347   3.204  11.825  0.00  0.00    +0.000 C 
BRANCH   9  11
ATOM     11  C   UNL     1      43.979   4.104   9.698  0.00  0.00    +0.000 C 
BRANCH  11  12
ATOM     12  C   UNL     1      45.039   3.482   8.810  0.00  0.00    +0.000 A 
ATOM     13  C   UNL     1      45.283   2.110   8.855  0.00  0.00    +0.000 A 
ATOM     14  C   UNL     1      46.293   1.582   8.054  0.00  0.00    +0.000 A 
ATOM     15  C   UNL     1      47.017   2.430   7.225  0.00  0.00    +0.000 A 
ATOM     16  C   UNL     1      46.700   3.777   7.228  0.00  0.00    +0.000 A 
ATOM     17  N   UNL     1      45.737   4.321   8.002  0.00  0.00    +0.000 NA
ENDBRANCH  11  12
ENDBRANCH   9  11
ENDBRANCH   8   9
ENDBRANCH   5   8
ENDBRANCH   1   2
BRANCH   1  18
ATOM     18  N   UNL     1      48.364   6.287  16.376  0.00  0.00    +0.000 NA
ATOM     19  H   UNL     1      47.410   6.633  16.519  0.00  0.00    +0.000 HD
BRANCH  18  21
ATOM     20  C   UNL     1      47.068   4.193  16.991  0.00  0.00    +0.000 C 
ATOM     21  C   UNL     1      48.410   4.845  16.600  0.00  0.00    +0.000 C 
BRANCH  21  22
ATOM     22  C   UNL     1      49.458   4.525  17.643  0.00  0.00    +0.000 A 
ATOM     23  C   UNL     1      49.814   5.383  18.670  0.00  0.00    +0.000 A 
ATOM     24  S   UNL     1      51.311   4.965  19.387  0.00  0.00    +0.000 S 
ATOM     25  C   UNL     1      51.453   3.576  18.412  0.00  0.00    +0.000 A 
ATOM     26  N   UNL     1      52.578   2.811  18.406  0.00  0.00    +0.000 NA
ATOM     27  C   UNL     1      52.498   1.760  17.657  0.00  0.00    +0.000 A 
ATOM     28  N   UNL     1      51.382   1.378  16.953  0.00  0.00    +0.000 N 
ATOM     29  C   UNL     1      50.224   2.121  16.925  0.00  0.00    +0.000 A 
ATOM     30  O   UNL     1      49.224   1.734  16.327  0.00  0.00    +0.000 OA
ATOM     31  C   UNL     1      50.312   3.365  17.663  0.00  0.00    +0.000 A 
ATOM     32  H   UNL     1      51.360   0.505  16.449  0.00  0.00    +0.000 HD
ENDBRANCH  21  22
ENDBRANCH  18  21
ENDBRANCH   1  18
TORSDOF 8
ENDMDL
MODEL 2
REMARK VINA RESULT:    -7.942      2.580      3.730
REMARK INTER + INTRA:         -12.299
REMARK INTER:                 -11.160
REMARK INTRA:                  -1.139
REMARK UNBOUND:                -0.642
REMARK  Name = 
REMARK  10 active torsions:
REMARK  status: ('A' for Active; 'I' for Inactive)
REMARK    1  A    between atoms: C_1  and  C_2
REMARK    2  A    between atoms: C_2  and  N_3
REMARK    3  A    between atoms: C_2  and  C_21
REMARK    4  A    between atoms: N_3  and  C_4
REMARK    5  A    between atoms: C_4  and  C_5
REMARK    6  A    between atoms: C_8  and  C_9
REMARK    7  A    between atoms: C_9  and  N_10
REMARK    8  A    between atoms: N_10  and  C_11
REMARK    9  A    between atoms: N_10  and  C_12
REMARK   10  A    between atoms: C_12  and  C_13
REMARK                            x       y       z     vdW  Elec       q    Type
REMARK                         _______ _______ _______ _____ _____    ______ ____
ROOT
ATOM      1  C   UNL     1      47.510   3.782  16.209  0.00  0.00    +0.000 C 
ENDROOT
BRANCH   1   2
ATOM      2  C   UNL     1      47.172   4.183  14.784  0.00  0.00    +0.000 A 
ATOM      3  N   UNL     1      46.787   3.206  13.934  0.00  0.00    +0.000 NA
ATOM      4  C   UNL     1      46.235   3.603  12.775  0.00  0.00    +0.000 A 
ATOM      5  C   UNL     1      46.033   4.927  12.434  0.00  0.00    +0.000 A 
ATOM      6  C   UNL     1      46.527   5.844  13.342  0.00  0.00    +0.000 A 
ATOM      7  N   UNL     1      47.091   5.504  14.516  0.00  0.00    +0.000 NA
BRANCH   5   8
ATOM      8  C   UNL     1      45.245   5.318  11.219  0.00  0.00    +0.000 C 
BRANCH   8   9
ATOM      9  N   UNL     1      44.356   4.227  10.767  0.00  0.00    +0.000 NA
ATOM     10  C   UNL     1      43.030   4.301  11.392  0.00  0.00    +0.000 C 
BRANCH   9  11
ATOM     11  C   UNL     1      44.185   4.243   9.295  0.00  0.00    +0.000 C 
BRANCH  11  12
ATOM     12  C   UNL     1      45.223   3.448   8.526  0.00  0.00    +0.000 A 
ATOM     13  C   UNL     1      45.390   2.085   8.765  0.00  0.00    +0.000 A 
ATOM     14  C   UNL     1      46.381   1.399   8.069  0.00  0.00    +0.000 A 
ATOM     15  C   UNL     1      47.165   2.084   7.149  0.00  0.00    +0.000 A 
ATOM     16  C   UNL     1      46.923   3.433   6.959  0.00  0.00    +0.000 A 
ATOM     17  N   UNL     1      45.980   4.129   7.628  0.00  0.00    +0.000 NA
ENDBRANCH  11  12
ENDBRANCH   9  11
ENDBRANCH   8   9
ENDBRANCH   5   8
ENDBRANCH   1   2
BRANCH   1  18
ATOM     18  N   UNL     1      47.175   4.766  17.258  0.00  0.00    +0.000 NA
ATOM     19  H   UNL     1      46.497   4.343  17.901  0.00  0.00    +0.000 HD
BRANCH  18  21
ATOM     20  C   UNL     1      48.569   4.484  19.360  0.00  0.00    +0.000 C 
ATOM     21  C   UNL     1      48.375   5.161  17.988  0.00  0.00    +0.000 C 
BRANCH  21  22
ATOM     22  C   UNL     1      48.399   6.665  18.152  0.00  0.00    +0.000 A 
ATOM     23  C   UNL     1      47.906   7.330  19.263  0.00  0.00    +0.000 A 
ATOM     24  S   UNL     1      47.643   8.995  18.969  0.00  0.00    +0.000 S 
ATOM     25  C   UNL     1      48.282   8.875  17.395  0.00  0.00    +0.000 A 
ATOM     26  N   UNL     1      48.239   9.915  16.518  0.00  0.00    +0.000 NA
ATOM     27  C   UNL     1      48.823   9.677  15.389  0.00  0.00    +0.000 A 
ATOM     28  N   UNL     1      49.486   8.516  15.074  0.00  0.00    +0.000 N 
ATOM     29  C   UNL     1      49.553   7.437  15.926  0.00  0.00    +0.000 A 
ATOM     30  O   UNL     1      50.192   6.429  15.642  0.00  0.00    +0.000 OA
ATOM     31  C   UNL     1      48.814   7.623  17.160  0.00  0.00    +0.000 A 
ATOM     32  H   UNL     1      49.987   8.424  14.204  0.00  0.00    +0.000 HD
ENDBRANCH  21  22
ENDBRANCH  18  21
ENDBRANCH   1  18
TORSDOF 8
ENDMDL
MODEL 3
REMARK VINA RESULT:    -7.882      1.972      2.673
REMARK INTER + INTRA:         -12.210
REMARK INTER:                 -11.222
REMARK INTRA:                  -0.989
REMARK UNBOUND:                -0.642
REMARK  Name = 
REMARK  10 active torsions:
REMARK  status: ('A' for Active; 'I' for Inactive)
REMARK    1  A    between atoms: C_1  and  C_2
REMARK    2  A    between atoms: C_2  and  N_3
REMARK    3  A    between atoms: C_2  and  C_21
REMARK    4  A    between atoms: N_3  and  C_4
REMARK    5  A    between atoms: C_4  and  C_5
REMARK    6  A    between atoms: C_8  and  C_9
REMARK    7  A    between atoms: C_9  and  N_10
REMARK    8  A    between atoms: N_10  and  C_11
REMARK    9  A    between atoms: N_10  and  C_12
REMARK   10  A    between atoms: C_12  and  C_13
REMARK                            x       y       z     vdW  Elec       q    Type
REMARK                         _______ _______ _______ _____ _____    ______ ____
ROOT
ATOM      1  C   UNL     1      49.207   7.323  13.904  0.00  0.00    +0.000 C 
ENDROOT
BRANCH   1   2
ATOM      2  C   UNL     1      48.087   6.574  13.204  0.00  0.00    +0.000 A 
ATOM      3  N   UNL     1      47.567   5.498  13.832  0.00  0.00    +0.000 NA
ATOM      4  C   UNL     1      46.411   5.018  13.341  0.00  0.00    +0.000 A 
ATOM      5  C   UNL     1      45.744   5.573  12.265  0.00  0.00    +0.000 A 
ATOM      6  C   UNL     1      46.400   6.625  11.654  0.00  0.00    +0.000 A 
ATOM      7  N   UNL     1      47.558   7.144  12.101  0.00  0.00    +0.000 NA
BRANCH   5   8
ATOM      8  C   UNL     1      44.369   5.122  11.870  0.00  0.00    +0.000 C 
BRANCH   8   9
ATOM      9  N   UNL     1      44.403   3.852  11.115  0.00  0.00    +0.000 NA
ATOM     10  C   UNL     1      43.410   2.890  11.609  0.00  0.00    +0.000 C 
BRANCH   9  11
ATOM     11  C   UNL     1      44.167   4.074   9.670  0.00  0.00    +0.000 C 
BRANCH  11  12
ATOM     12  C   UNL     1      45.179   3.417   8.751  0.00  0.00    +0.000 A 
ATOM     13  C   UNL     1      45.431   2.049   8.839  0.00  0.00    +0.000 A 
ATOM     14  C   UNL     1      46.398   1.491   8.007  0.00  0.00    +0.000 A 
ATOM     15  C   UNL     1      47.072   2.304   7.105  0.00  0.00    +0.000 A 
ATOM     16  C   UNL     1      46.750   3.650   7.070  0.00  0.00    +0.000 A 
ATOM     17  N   UNL     1      45.829   4.224   7.872  0.00  0.00    +0.000 NA
ENDBRANCH  11  12
ENDBRANCH   9  11
ENDBRANCH   8   9
ENDBRANCH   5   8
ENDBRANCH   1   2
BRANCH   1  18
ATOM     18  N   UNL     1      49.902   6.594  14.983  0.00  0.00    +0.000 NA
ATOM     19  H   UNL     1      50.770   6.197  14.608  0.00  0.00    +0.000 HD
BRANCH  18  21
ATOM     20  C   UNL     1      51.618   7.350  16.694  0.00  0.00    +0.000 C 
ATOM     21  C   UNL     1      50.205   7.493  16.093  0.00  0.00    +0.000 C 
BRANCH  21  22
ATOM     22  C   UNL     1      49.167   7.327  17.181  0.00  0.00    +0.000 A 
ATOM     23  C   UNL     1      48.330   8.343  17.612  0.00  0.00    +0.000 A 
ATOM     24  S   UNL     1      47.613   8.005  19.129  0.00  0.00    +0.000 S 
ATOM     25  C   UNL     1      48.324   6.458  19.183  0.00  0.00    +0.000 A 
ATOM     26  N   UNL     1      48.239   5.662  20.283  0.00  0.00    +0.000 NA
ATOM     27  C   UNL     1      48.779   4.497  20.135  0.00  0.00    +0.000 A 
ATOM     28  N   UNL     1      49.354   4.036  18.975  0.00  0.00    +0.000 N 
ATOM     29  C   UNL     1      49.467   4.805  17.839  0.00  0.00    +0.000 A 
ATOM     30  O   UNL     1      49.940   4.355  16.800  0.00  0.00    +0.000 OA
ATOM     31  C   UNL     1      48.972   6.159  18.001  0.00  0.00    +0.000 A 
ATOM     32  H   UNL     1      49.689   3.088  18.902  0.00  0.00    +0.000 HD
ENDBRANCH  21  22
ENDBRANCH  18  21
ENDBRANCH   1  18
TORSDOF 8
ENDMDL
MODEL 4
REMARK VINA RESULT:    -7.686      1.963      2.538
REMARK INTER + INTRA:         -11.923
REMARK INTER:                 -10.975
REMARK INTRA:                  -0.947
REMARK UNBOUND:                -0.642
REMARK  Name = 
REMARK  10 active torsions:
REMARK  status: ('A' for Active; 'I' for Inactive)
REMARK    1  A    between atoms: C_1  and  C_2
REMARK    2  A    between atoms: C_2  and  N_3
REMARK    3  A    between atoms: C_2  and  C_21
REMARK    4  A    between atoms: N_3  and  C_4
REMARK    5  A    between atoms: C_4  and  C_5
REMARK    6  A    between atoms: C_8  and  C_9
REMARK    7  A    between atoms: C_9  and  N_10
REMARK    8  A    between atoms: N_10  and  C_11
REMARK    9  A    between atoms: N_10  and  C_12
REMARK   10  A    between atoms: C_12  and  C_13
REMARK                            x       y       z     vdW  Elec       q    Type
REMARK                         _______ _______ _______ _____ _____    ______ ____
ROOT
ATOM      1  C   UNL     1      47.474   4.320  16.062  0.00  0.00    +0.000 C 
ENDROOT
BRANCH   1   2
ATOM      2  C   UNL     1      47.161   4.517  14.590  0.00  0.00    +0.000 A 
ATOM      3  N   UNL     1      46.458   3.548  13.965  0.00  0.00    +0.000 NA
ATOM      4  C   UNL     1      45.957   3.855  12.756  0.00  0.00    +0.000 A 
ATOM      5  C   UNL     1      46.111   5.089  12.152  0.00  0.00    +0.000 A 
ATOM      6  C   UNL     1      46.907   5.981  12.845  0.00  0.00    +0.000 A 
ATOM      7  N   UNL     1      47.434   5.727  14.056  0.00  0.00    +0.000 NA
BRANCH   5   8
ATOM      8  C   UNL     1      45.379   5.447  10.892  0.00  0.00    +0.000 C 
BRANCH   8   9
ATOM      9  N   UNL     1      44.365   4.432  10.538  0.00  0.00    +0.000 NA
ATOM     10  C   UNL     1      43.052   4.739  11.118  0.00  0.00    +0.000 C 
BRANCH   9  11
ATOM     11  C   UNL     1      44.214   4.306   9.070  0.00  0.00    +0.000 C 
BRANCH  11  12
ATOM     12  C   UNL     1      45.256   3.434   8.396  0.00  0.00    +0.000 A 
ATOM     13  C   UNL     1      45.363   2.082   8.718  0.00  0.00    +0.000 A 
ATOM     14  C   UNL     1      46.359   1.324   8.109  0.00  0.00    +0.000 A 
ATOM     15  C   UNL     1      47.208   1.929   7.190  0.00  0.00    +0.000 A 
ATOM     16  C   UNL     1      47.024   3.272   6.914  0.00  0.00    +0.000 A 
ATOM     17  N   UNL     1      46.077   4.037   7.498  0.00  0.00    +0.000 NA
ENDBRANCH  11  12
ENDBRANCH   9  11
ENDBRANCH   8   9
ENDBRANCH   5   8
ENDBRANCH   1   2
BRANCH   1  18
ATOM     18  N   UNL     1      47.571   5.548  16.876  0.00  0.00    +0.000 NA
ATOM     19  H   UNL     1      46.624   5.859  17.118  0.00  0.00    +0.000 HD
BRANCH  18  21
ATOM     20  C   UNL     1      48.435   6.480  19.073  0.00  0.00    +0.000 C 
ATOM     21  C   UNL     1      48.336   5.294  18.093  0.00  0.00    +0.000 C 
BRANCH  21  22
ATOM     22  C   UNL     1      49.724   4.813  17.731  0.00  0.00    +0.000 A 
ATOM     23  C   UNL     1      50.246   3.591  18.124  0.00  0.00    +0.000 A 
ATOM     24  S   UNL     1      51.949   3.525  17.973  0.00  0.00    +0.000 S 
ATOM     25  C   UNL     1      52.004   5.082  17.284  0.00  0.00    +0.000 A 
ATOM     26  N   UNL     1      53.180   5.717  17.030  0.00  0.00    +0.000 NA
ATOM     27  C   UNL     1      53.045   6.865  16.450  0.00  0.00    +0.000 A 
ATOM     28  N   UNL     1      51.849   7.413  16.056  0.00  0.00    +0.000 N 
ATOM     29  C   UNL     1      50.635   6.810  16.295  0.00  0.00    +0.000 A 
ATOM     30  O   UNL     1      49.583   7.296  15.891  0.00  0.00    +0.000 OA
ATOM     31  C   UNL     1      50.736   5.573  17.044  0.00  0.00    +0.000 A 
ATOM     32  H   UNL     1      51.819   8.277  15.538  0.00  0.00    +0.000 HD
ENDBRANCH  21  22
ENDBRANCH  18  21
ENDBRANCH   1  18
TORSDOF 8
ENDMDL
MODEL 5
REMARK VINA RESULT:    -7.563      2.500      3.322
REMARK INTER + INTRA:         -11.743
REMARK INTER:                 -10.660
REMARK INTRA:                  -1.083
REMARK UNBOUND:                -0.642
REMARK  Name = 
REMARK  10 active torsions:
REMARK  status: ('A' for Active; 'I' for Inactive)
REMARK    1  A    between atoms: C_1  and  C_2
REMARK    2  A    between atoms: C_2  and  N_3
REMARK    3  A    between atoms: C_2  and  C_21
REMARK    4  A    between atoms: N_3  and  C_4
REMARK    5  A    between atoms: C_4  and  C_5
REMARK    6  A    between atoms: C_8  and  C_9
REMARK    7  A    between atoms: C_9  and  N_10
REMARK    8  A    between atoms: N_10  and  C_11
REMARK    9  A    between atoms: N_10  and  C_12
REMARK   10  A    between atoms: C_12  and  C_13
REMARK                            x       y       z     vdW  Elec       q    Type
REMARK                         _______ _______ _______ _____ _____    ______ ____
ROOT
ATOM      1  C   UNL     1      49.492   7.158  13.516  0.00  0.00    +0.000 C 
ENDROOT
BRANCH   1   2
ATOM      2  C   UNL     1      48.292   6.431  12.935  0.00  0.00    +0.000 A 
ATOM      3  N   UNL     1      47.789   5.394  13.639  0.00  0.00    +0.000 NA
ATOM      4  C   UNL     1      46.581   4.943  13.260  0.00  0.00    +0.000 A 
ATOM      5  C   UNL     1      45.846   5.490  12.225  0.00  0.00    +0.000 A 
ATOM      6  C   UNL     1      46.485   6.498  11.528  0.00  0.00    +0.000 A 
ATOM      7  N   UNL     1      47.693   6.987  11.861  0.00  0.00    +0.000 NA
BRANCH   5   8
ATOM      8  C   UNL     1      44.428   5.079  11.959  0.00  0.00    +0.000 C 
BRANCH   8   9
ATOM      9  N   UNL     1      44.356   3.807  11.209  0.00  0.00    +0.000 NA
ATOM     10  C   UNL     1      43.309   2.920  11.729  0.00  0.00    +0.000 C 
BRANCH   9  11
ATOM     11  C   UNL     1      44.104   4.041   9.768  0.00  0.00    +0.000 C 
BRANCH  11  12
ATOM     12  C   UNL     1      45.136   3.436   8.836  0.00  0.00    +0.000 A 
ATOM     13  C   UNL     1      45.373   2.063   8.840  0.00  0.00    +0.000 A 
ATOM     14  C   UNL     1      46.358   1.550   7.999  0.00  0.00    +0.000 A 
ATOM     15  C   UNL     1      47.064   2.415   7.171  0.00  0.00    +0.000 A 
ATOM     16  C   UNL     1      46.754   3.763   7.217  0.00  0.00    +0.000 A 
ATOM     17  N   UNL     1      45.816   4.292   8.030  0.00  0.00    +0.000 NA
ENDBRANCH  11  12
ENDBRANCH   9  11
ENDBRANCH   8   9
ENDBRANCH   5   8
ENDBRANCH   1   2
BRANCH   1  18
ATOM     18  N   UNL     1      49.211   8.104  14.614  0.00  0.00    +0.000 NA
ATOM     19  H   UNL     1      48.442   7.732  15.181  0.00  0.00    +0.000 HD
BRANCH  18  21
ATOM     20  C   UNL     1      51.740   8.300  14.685  0.00  0.00    +0.000 C 
ATOM     21  C   UNL     1      50.397   8.289  15.444  0.00  0.00    +0.000 C 
BRANCH  21  22
ATOM     22  C   UNL     1      50.430   7.234  16.528  0.00  0.00    +0.000 A 
ATOM     23  C   UNL     1      51.427   6.280  16.647  0.00  0.00    +0.000 A 
ATOM     24  S   UNL     1      50.966   4.969  17.647  0.00  0.00    +0.000 S 
ATOM     25  C   UNL     1      49.475   5.705  18.018  0.00  0.00    +0.000 A 
ATOM     26  N   UNL     1      48.511   5.061  18.730  0.00  0.00    +0.000 NA
ATOM     27  C   UNL     1      47.467   5.783  18.976  0.00  0.00    +0.000 A 
ATOM     28  N   UNL     1      47.319   7.101  18.620  0.00  0.00    +0.000 N 
ATOM     29  C   UNL     1      48.264   7.793  17.898  0.00  0.00    +0.000 A 
ATOM     30  O   UNL     1      48.130   8.984  17.633  0.00  0.00    +0.000 OA
ATOM     31  C   UNL     1      49.402   6.984  17.504  0.00  0.00    +0.000 A 
ATOM     32  H   UNL     1      46.511   7.630  18.911  0.00  0.00    +0.000 HD
ENDBRANCH  21  22
ENDBRANCH  18  21
ENDBRANCH   1  18
TORSDOF 8
ENDMDL
MODEL 6
REMARK VINA RESULT:    -7.473      1.869      2.542
REMARK INTER + INTRA:         -11.610
REMARK INTER:                 -10.736
REMARK INTRA:                  -0.874
REMARK UNBOUND:                -0.642
REMARK  Name = 
REMARK  10 active torsions:
REMARK  status: ('A' for Active; 'I' for Inactive)
REMARK    1  A    between atoms: C_1  and  C_2
REMARK    2  A    between atoms: C_2  and  N_3
REMARK    3  A    between atoms: C_2  and  C_21
REMARK    4  A    between atoms: N_3  and  C_4
REMARK    5  A    between atoms: C_4  and  C_5
REMARK    6  A    between atoms: C_8  and  C_9
REMARK    7  A    between atoms: C_9  and  N_10
REMARK    8  A    between atoms: N_10  and  C_11
REMARK    9  A    between atoms: N_10  and  C_12
REMARK   10  A    between atoms: C_12  and  C_13
REMARK                            x       y       z     vdW  Elec       q    Type
REMARK                         _______ _______ _______ _____ _____    ______ ____
ROOT
ATOM      1  C   UNL     1      48.988   7.571  15.411  0.00  0.00    +0.000 C 
ENDROOT
BRANCH   1   2
ATOM      2  C   UNL     1      48.164   7.426  14.144  0.00  0.00    +0.000 A 
ATOM      3  N   UNL     1      48.237   6.252  13.481  0.00  0.00    +0.000 NA
ATOM      4  C   UNL     1      47.308   6.041  12.533  0.00  0.00    +0.000 A 
ATOM      5  C   UNL     1      46.301   6.938  12.229  0.00  0.00    +0.000 A 
ATOM      6  C   UNL     1      46.363   8.135  12.917  0.00  0.00    +0.000 A 
ATOM      7  N   UNL     1      47.270   8.402  13.874  0.00  0.00    +0.000 NA
BRANCH   5   8
ATOM      8  C   UNL     1      45.180   6.582  11.300  0.00  0.00    +0.000 C 
BRANCH   8   9
ATOM      9  N   UNL     1      44.680   5.212  11.542  0.00  0.00    +0.000 NA
ATOM     10  C   UNL     1      43.808   5.144  12.721  0.00  0.00    +0.000 C 
BRANCH   9  11
ATOM     11  C   UNL     1      43.932   4.694  10.373  0.00  0.00    +0.000 C 
BRANCH  11  12
ATOM     12  C   UNL     1      44.756   3.864   9.408  0.00  0.00    +0.000 A 
ATOM     13  C   UNL     1      44.783   2.474   9.514  0.00  0.00    +0.000 A 
ATOM     14  C   UNL     1      45.584   1.750   8.636  0.00  0.00    +0.000 A 
ATOM     15  C   UNL     1      46.322   2.426   7.672  0.00  0.00    +0.000 A 
ATOM     16  C   UNL     1      46.226   3.806   7.623  0.00  0.00    +0.000 A 
ATOM     17  N   UNL     1      45.470   4.537   8.469  0.00  0.00    +0.000 NA
ENDBRANCH  11  12
ENDBRANCH   9  11
ENDBRANCH   8   9
ENDBRANCH   5   8
ENDBRANCH   1   2
BRANCH   1  18
ATOM     18  N   UNL     1      48.247   7.946  16.631  0.00  0.00    +0.000 NA
ATOM     19  H   UNL     1      47.437   7.325  16.728  0.00  0.00    +0.000 HD
BRANCH  18  21
ATOM     20  C   UNL     1      50.242   8.870  17.898  0.00  0.00    +0.000 C 
ATOM     21  C   UNL     1      49.106   7.832  17.805  0.00  0.00    +0.000 C 
BRANCH  21  22
ATOM     22  C   UNL     1      49.682   6.435  17.881  0.00  0.00    +0.000 A 
ATOM     23  C   UNL     1      51.038   6.155  17.851  0.00  0.00    +0.000 A 
ATOM     24  S   UNL     1      51.363   4.515  17.485  0.00  0.00    +0.000 S 
ATOM     25  C   UNL     1      49.703   4.133  17.467  0.00  0.00    +0.000 A 
ATOM     26  N   UNL     1      49.249   2.909  17.082  0.00  0.00    +0.000 NA
ATOM     27  C   UNL     1      47.969   2.766  17.186  0.00  0.00    +0.000 A 
ATOM     28  N   UNL     1      47.107   3.712  17.683  0.00  0.00    +0.000 N 
ATOM     29  C   UNL     1      47.519   4.964  18.080  0.00  0.00    +0.000 A 
ATOM     30  O   UNL     1      46.738   5.776  18.567  0.00  0.00    +0.000 OA
ATOM     31  C   UNL     1      48.934   5.204  17.874  0.00  0.00    +0.000 A 
ATOM     32  H   UNL     1      46.128   3.509  17.809  0.00  0.00    +0.000 HD
ENDBRANCH  21  22
ENDBRANCH  18  21
ENDBRANCH   1  18
TORSDOF 8
ENDMDL
MODEL 7
REMARK VINA RESULT:    -7.068      3.748      4.888
REMARK INTER + INTRA:         -11.016
REMARK INTER:                  -9.973
REMARK INTRA:                  -1.043
REMARK UNBOUND:                -0.642
REMARK  Name = 
REMARK  10 active torsions:
REMARK  status: ('A' for Active; 'I' for Inactive)
REMARK    1  A    between atoms: C_1  and  C_2
REMARK    2  A    between atoms: C_2  and  N_3
REMARK    3  A    between atoms: C_2  and  C_21
REMARK    4  A    between atoms: N_3  and  C_4
REMARK    5  A    between atoms: C_4  and  C_5
REMARK    6  A    between atoms: C_8  and  C_9
REMARK    7  A    between atoms: C_9  and  N_10
REMARK    8  A    between atoms: N_10  and  C_11
REMARK    9  A    between atoms: N_10  and  C_12
REMARK   10  A    between atoms: C_12  and  C_13
REMARK                            x       y       z     vdW  Elec       q    Type
REMARK                         _______ _______ _______ _____ _____    ______ ____
ROOT
ATOM      1  C   UNL     1      48.692   6.686  14.882  0.00  0.00    +0.000 C 
ENDROOT
BRANCH   1   2
ATOM      2  C   UNL     1      47.738   6.117  13.848  0.00  0.00    +0.000 A 
ATOM      3  N   UNL     1      47.028   5.020  14.188  0.00  0.00    +0.000 NA
ATOM      4  C   UNL     1      46.003   4.695  13.381  0.00  0.00    +0.000 A 
ATOM      5  C   UNL     1      45.644   5.425  12.263  0.00  0.00    +0.000 A 
ATOM      6  C   UNL     1      46.480   6.484  11.968  0.00  0.00    +0.000 A 
ATOM      7  N   UNL     1      47.520   6.853  12.737  0.00  0.00    +0.000 NA
BRANCH   5   8
ATOM      8  C   UNL     1      44.384   5.135  11.503  0.00  0.00    +0.000 C 
BRANCH   8   9
ATOM      9  N   UNL     1      44.414   3.794  10.880  0.00  0.00    +0.000 NA
ATOM     10  C   UNL     1      43.427   2.887  11.478  0.00  0.00    +0.000 C 
BRANCH   9  11
ATOM     11  C   UNL     1      44.164   3.868   9.422  0.00  0.00    +0.000 C 
BRANCH  11  12
ATOM     12  C   UNL     1      45.235   3.228   8.560  0.00  0.00    +0.000 A 
ATOM     13  C   UNL     1      45.549   1.878   8.707  0.00  0.00    +0.000 A 
ATOM     14  C   UNL     1      46.567   1.337   7.927  0.00  0.00    +0.000 A 
ATOM     15  C   UNL     1      47.230   2.149   7.015  0.00  0.00    +0.000 A 
ATOM     16  C   UNL     1      46.845   3.475   6.919  0.00  0.00    +0.000 A 
ATOM     17  N   UNL     1      45.873   4.032   7.671  0.00  0.00    +0.000 NA
ENDBRANCH  11  12
ENDBRANCH   9  11
ENDBRANCH   8   9
ENDBRANCH   5   8
ENDBRANCH   1   2
BRANCH   1  18
ATOM     18  N   UNL     1      48.221   7.877  15.616  0.00  0.00    +0.000 NA
ATOM     19  H   UNL     1      47.971   7.599  16.571  0.00  0.00    +0.000 HD
BRANCH  18  21
ATOM     20  C   UNL     1      49.005  10.073  16.618  0.00  0.00    +0.000 C 
ATOM     21  C   UNL     1      49.263   8.899  15.652  0.00  0.00    +0.000 C 
BRANCH  21  22
ATOM     22  C   UNL     1      49.505   9.428  14.256  0.00  0.00    +0.000 A 
ATOM     23  C   UNL     1      48.603  10.216  13.560  0.00  0.00    +0.000 A 
ATOM     24  S   UNL     1      48.931  10.266  11.881  0.00  0.00    +0.000 S 
ATOM     25  C   UNL     1      50.340   9.327  12.073  0.00  0.00    +0.000 A 
ATOM     26  N   UNL     1      51.053   8.871  11.008  0.00  0.00    +0.000 NA
ATOM     27  C   UNL     1      52.127   8.227  11.329  0.00  0.00    +0.000 A 
ATOM     28  N   UNL     1      52.579   8.040  12.612  0.00  0.00    +0.000 N 
ATOM     29  C   UNL     1      51.891   8.479  13.720  0.00  0.00    +0.000 A 
ATOM     30  O   UNL     1      52.340   8.343  14.854  0.00  0.00    +0.000 OA
ATOM     31  C   UNL     1      50.623   9.108  13.406  0.00  0.00    +0.000 A 
ATOM     32  H   UNL     1      53.466   7.595  12.790  0.00  0.00    +0.000 HD
ENDBRANCH  21  22
ENDBRANCH  18  21
ENDBRANCH   1  18
TORSDOF 8
ENDMDL
MODEL 8
REMARK VINA RESULT:    -6.982      3.344      8.618
REMARK INTER + INTRA:         -10.890
REMARK INTER:                  -9.802
REMARK INTRA:                  -1.088
REMARK UNBOUND:                -0.642
REMARK  Name = 
REMARK  10 active torsions:
REMARK  status: ('A' for Active; 'I' for Inactive)
REMARK    1  A    between atoms: C_1  and  C_2
REMARK    2  A    between atoms: C_2  and  N_3
REMARK    3  A    between atoms: C_2  and  C_21
REMARK    4  A    between atoms: N_3  and  C_4
REMARK    5  A    between atoms: C_4  and  C_5
REMARK    6  A    between atoms: C_8  and  C_9
REMARK    7  A    between atoms: C_9  and  N_10
REMARK    8  A    between atoms: N_10  and  C_11
REMARK    9  A    between atoms: N_10  and  C_12
REMARK   10  A    between atoms: C_12  and  C_13
REMARK                            x       y       z     vdW  Elec       q    Type
REMARK                         _______ _______ _______ _____ _____    ______ ____
ROOT
ATOM      1  C   UNL     1      48.221   7.233  12.211  0.00  0.00    +0.000 C 
ENDROOT
BRANCH   1   2
ATOM      2  C   UNL     1      48.707   7.730  13.560  0.00  0.00    +0.000 A 
ATOM      3  N   UNL     1      48.038   8.758  14.126  0.00  0.00    +0.000 NA
ATOM      4  C   UNL     1      48.301   9.003  15.421  0.00  0.00    +0.000 A 
ATOM      5  C   UNL     1      49.184   8.258  16.181  0.00  0.00    +0.000 A 
ATOM      6  C   UNL     1      49.865   7.278  15.485  0.00  0.00    +0.000 A 
ATOM      7  N   UNL     1      49.645   6.991  14.190  0.00  0.00    +0.000 NA
BRANCH   5   8
ATOM      8  C   UNL     1      49.304   8.447  17.664  0.00  0.00    +0.000 C 
BRANCH   8   9
ATOM      9  N   UNL     1      49.738   7.208  18.342  0.00  0.00    +0.000 NA
ATOM     10  C   UNL     1      50.548   7.487  19.534  0.00  0.00    +0.000 C 
BRANCH   9  11
ATOM     11  C   UNL     1      48.581   6.375  18.743  0.00  0.00    +0.000 C 
BRANCH  11  12
ATOM     12  C   UNL     1      48.539   4.998  18.109  0.00  0.00    +0.000 A 
ATOM     13  C   UNL     1      49.698   4.232  18.004  0.00  0.00    +0.000 A 
ATOM     14  C   UNL     1      49.627   2.990  17.379  0.00  0.00    +0.000 A 
ATOM     15  C   UNL     1      48.406   2.543  16.891  0.00  0.00    +0.000 A 
ATOM     16  C   UNL     1      47.299   3.358  17.051  0.00  0.00    +0.000 A 
ATOM     17  N   UNL     1      47.338   4.572  17.639  0.00  0.00    +0.000 NA
ENDBRANCH  11  12
ENDBRANCH   9  11
ENDBRANCH   8   9
ENDBRANCH   5   8
ENDBRANCH   1   2
BRANCH   1  18
ATOM     18  N   UNL     1      47.086   6.289  12.235  0.00  0.00    +0.000 NA
ATOM     19  H   UNL     1      46.759   6.191  13.202  0.00  0.00    +0.000 HD
BRANCH  18  21
ATOM     20  C   UNL     1      45.402   8.138  11.800  0.00  0.00    +0.000 C 
ATOM     21  C   UNL     1      45.999   6.776  11.390  0.00  0.00    +0.000 C 
BRANCH  21  22
ATOM     22  C   UNL     1      44.903   5.736  11.320  0.00  0.00    +0.000 A 
ATOM     23  C   UNL     1      43.903   5.602  12.270  0.00  0.00    +0.000 A 
ATOM     24  S   UNL     1      43.110   4.088  12.180  0.00  0.00    +0.000 S 
ATOM     25  C   UNL     1      44.014   3.634  10.810  0.00  0.00    +0.000 A 
ATOM     26  N   UNL     1      43.940   2.383  10.279  0.00  0.00    +0.000 NA
ATOM     27  C   UNL     1      44.642   2.224   9.205  0.00  0.00    +0.000 A 
ATOM     28  N   UNL     1      45.370   3.209   8.586  0.00  0.00    +0.000 N 
ATOM     29  C   UNL     1      45.478   4.487   9.087  0.00  0.00    +0.000 A 
ATOM     30  O   UNL     1      46.095   5.364   8.490  0.00  0.00    +0.000 OA
ATOM     31  C   UNL     1      44.795   4.676  10.352  0.00  0.00    +0.000 A 
ATOM     32  H   UNL     1      45.834   3.039   7.707  0.00  0.00    +0.000 HD
ENDBRANCH  21  22
ENDBRANCH  18  21
ENDBRANCH   1  18
TORSDOF 8
ENDMDL
