MODEL 1
REMARK VINA RESULT:    -7.709      0.000      0.000
REMARK INTER + INTRA:         -13.222
REMARK INTER:                 -11.990
REMARK INTRA:                  -1.233
REMARK UNBOUND:                -1.233
REMARK  Name = 
REMARK  10 active torsions:
REMARK  status: ('A' for Active; 'I' for Inactive)
REMARK    1  A    between atoms: C_2  and  C_23
REMARK    2  A    between atoms: N_3  and  C_4
REMARK    3  A    between atoms: C_4  and  C_5
REMARK    4  A    between atoms: C_8  and  C_9
REMARK    5  A    between atoms: C_9  and  N_10
REMARK    6  A    between atoms: N_10  and  CA_11
REMARK    7  A    between atoms: CA_11  and  C_12
REMARK    8  A    between atoms: CA_11  and  C_14
REMARK    9  A    between atoms: C_12  and  O_13
REMARK   10  A    between atoms: C_14  and  C_15
REMARK                            x       y       z     vdW  Elec       q    Type
REMARK                         _______ _______ _______ _____ _____    ______ ____
ROOT
ATOM      1  C   UNL     1      48.465   5.876  16.218  0.00  0.00    +0.000 A 
ATOM      2  C   UNL     1      47.702   4.703  16.183  0.00  0.00    +0.000 A 
ATOM      3  C   UNL     1      47.003   4.351  15.029  0.00  0.00    +0.000 A 
ATOM      4  C   UNL     1      47.060   5.159  13.884  0.00  0.00    +0.000 A 
ATOM      5  C   UNL     1      47.862   6.306  13.904  0.00  0.00    +0.000 A 
ATOM      6  C   UNL     1      48.564   6.659  15.059  0.00  0.00    +0.000 A 
ENDROOT
BRANCH   1   7
ATOM      7  C   UNL     1      49.198   6.263  17.476  0.00  0.00    +0.000 C 
BRANCH   7  10
ATOM      8  O   UNL     1      51.828   6.169  16.483  0.00  0.00    +0.000 OA
ATOM      9  C   UNL     1      51.479   5.347  17.323  0.00  0.00    +0.000 C 
ATOM     10  N   UNL     1      50.200   5.284  17.812  0.00  0.00    +0.000 N 
ATOM     11  H   UNL     1      50.012   4.730  18.639  0.00  0.00    +0.000 HD
BRANCH   9  12
ATOM     12  C   UNL     1      52.407   4.330  17.833  0.00  0.00    +0.000 A 
ATOM     13  C   UNL     1      53.600   4.723  18.425  0.00  0.00    +0.000 A 
ATOM     14  S   UNL     1      54.571   3.417  18.935  0.00  0.00    +0.000 S 
ATOM     15  C   UNL     1      53.410   2.282  18.426  0.00  0.00    +0.000 A 
ATOM     16  N   UNL     1      53.612   0.948  18.603  0.00  0.00    +0.000 NA
ATOM     17  C   UNL     1      52.633   0.204  18.211  0.00  0.00    +0.000 A 
ATOM     18  N   UNL     1      51.475   0.670  17.646  0.00  0.00    +0.000 N 
ATOM     19  C   UNL     1      51.261   2.000  17.378  0.00  0.00    +0.000 A 
ATOM     20  O   UNL     1      50.270   2.367  16.751  0.00  0.00    +0.000 OA
ATOM     21  C   UNL     1      52.309   2.888  17.847  0.00  0.00    +0.000 A 
ATOM     22  H   UNL     1      50.760   0.032  17.332  0.00  0.00    +0.000 HD
ENDBRANCH   9  12
ENDBRANCH   7  10
ENDBRANCH   1   7
BRANCH   4  23
ATOM     23  C   UNL     1      46.308   4.762  12.638  0.00  0.00    +0.000 C 
BRANCH  23  24
ATOM     24  N   UNL     1      44.862   4.684  12.889  0.00  0.00    +0.000 NA
ATOM     25  H   UNL     1      44.609   5.496  13.457  0.00  0.00    +0.000 HD
BRANCH  24  26
ATOM     26  CA  UNL     1      44.067   4.704  11.630  0.00  0.00    +0.000 C 
BRANCH  26  27
ATOM     27  C   UNL     1      42.620   5.123  11.996  0.00  0.00    +0.000 C 
BRANCH  27  28
ATOM     28  O   UNL     1      42.532   5.469  13.377  0.00  0.00    +0.000 OA
ATOM     29  H   UNL     1      42.723   4.641  13.860  0.00  0.00    +0.000 HD
ENDBRANCH  27  28
ENDBRANCH  26  27
BRANCH  26  30
ATOM     30  C   UNL     1      44.088   3.322  10.937  0.00  0.00    +0.000 C 
BRANCH  30  31
ATOM     31  C   UNL     1      44.931   3.281   9.693  0.00  0.00    +0.000 A 
ATOM     32  C   UNL     1      45.259   4.455   9.020  0.00  0.00    +0.000 A 
ATOM     33  N   UNL     1      45.968   4.463   7.866  0.00  0.00    +0.000 NA
ATOM     34  C   UNL     1      46.333   3.247   7.406  0.00  0.00    +0.000 A 
ATOM     35  C   UNL     1      46.008   2.076   8.067  0.00  0.00    +0.000 A 
ATOM     36  N   UNL     1      45.303   2.065   9.221  0.00  0.00    +0.000 NA
ENDBRANCH  30  31
ENDBRANCH  26  30
ENDBRANCH  24  26
ENDBRANCH  23  24
ENDBRANCH   4  23
TORSDOF 10
ENDMDL
MODEL 2
REMARK VINA RESULT:    -7.574      2.927      3.702
REMARK INTER + INTRA:         -13.013
REMARK INTER:                 -11.576
REMARK INTRA:                  -1.437
REMARK UNBOUND:                -1.233
REMARK  Name = 
REMARK  10 active torsions:
REMARK  status: ('A' for Active; 'I' for Inactive)
REMARK    1  A    between atoms: C_2  and  C_23
REMARK    2  A    between atoms: N_3  and  C_4
REMARK    3  A    between atoms: C_4  and  C_5
REMARK    4  A    between atoms: C_8  and  C_9
REMARK    5  A    between atoms: C_9  and  N_10
REMARK    6  A    between atoms: N_10  and  CA_11
REMARK    7  A    between atoms: CA_11  and  C_12
REMARK    8  A    between atoms: CA_11  and  C_14
REMARK    9  A    between atoms: C_12  and  O_13
REMARK   10  A    between atoms: C_14  and  C_15
REMARK                            x       y       z     vdW  Elec       q    Type
REMARK                         _______ _______ _______ _____ _____    ______ ____
ROOT
ATOM      1  C   UNL     1      47.065   8.023  13.267  0.00  0.00    +0.000 A 
ATOM      2  C   UNL     1      47.448   6.768  12.781  0.00  0.00    +0.000 A 
ATOM      3  C   UNL     1      46.630   6.077  11.889  0.00  0.00    +0.000 A 
ATOM      4  C   UNL     1      45.416   6.631  11.456  0.00  0.00    +0.000 A 
ATOM      5  C   UNL     1      45.056   7.908  11.904  0.00  0.00    +0.000 A 
ATOM      6  C   UNL     1      45.877   8.601  12.797  0.00  0.00    +0.000 A 
ENDROOT
BRANCH   1   7
ATOM      7  C   UNL     1      47.943   8.753  14.249  0.00  0.00    +0.000 C 
BRANCH   7  10
ATOM      8  O   UNL     1      50.420   7.626  14.957  0.00  0.00    +0.000 OA
ATOM      9  C   UNL     1      49.463   7.479  15.708  0.00  0.00    +0.000 C 
ATOM     10  N   UNL     1      48.207   7.942  15.409  0.00  0.00    +0.000 N 
ATOM     11  H   UNL     1      47.505   7.974  16.138  0.00  0.00    +0.000 HD
BRANCH   9  12
ATOM     12  C   UNL     1      49.586   6.744  16.973  0.00  0.00    +0.000 A 
ATOM     13  C   UNL     1      50.344   7.278  18.007  0.00  0.00    +0.000 A 
ATOM     14  S   UNL     1      50.405   6.285  19.392  0.00  0.00    +0.000 S 
ATOM     15  C   UNL     1      49.382   5.128  18.676  0.00  0.00    +0.000 A 
ATOM     16  N   UNL     1      49.005   4.012  19.356  0.00  0.00    +0.000 NA
ATOM     17  C   UNL     1      48.194   3.242  18.711  0.00  0.00    +0.000 A 
ATOM     18  N   UNL     1      47.735   3.480  17.442  0.00  0.00    +0.000 N 
ATOM     19  C   UNL     1      48.150   4.552  16.689  0.00  0.00    +0.000 A 
ATOM     20  O   UNL     1      47.823   4.660  15.510  0.00  0.00    +0.000 OA
ATOM     21  C   UNL     1      49.022   5.479  17.386  0.00  0.00    +0.000 A 
ATOM     22  H   UNL     1      47.127   2.821  16.980  0.00  0.00    +0.000 HD
ENDBRANCH   9  12
ENDBRANCH   7  10
ENDBRANCH   1   7
BRANCH   4  23
ATOM     23  C   UNL     1      44.543   5.879  10.482  0.00  0.00    +0.000 C 
BRANCH  23  24
ATOM     24  N   UNL     1      45.183   4.628  10.049  0.00  0.00    +0.000 NA
ATOM     25  H   UNL     1      45.858   4.367  10.771  0.00  0.00    +0.000 HD
BRANCH  24  26
ATOM     26  CA  UNL     1      44.202   3.521   9.875  0.00  0.00    +0.000 C 
BRANCH  26  27
ATOM     27  C   UNL     1      43.388   3.406  11.189  0.00  0.00    +0.000 C 
BRANCH  27  28
ATOM     28  O   UNL     1      43.121   2.038  11.496  0.00  0.00    +0.000 OA
ATOM     29  H   UNL     1      43.470   1.907  12.399  0.00  0.00    +0.000 HD
ENDBRANCH  27  28
ENDBRANCH  26  27
BRANCH  26  30
ATOM     30  C   UNL     1      44.916   2.191   9.544  0.00  0.00    +0.000 C 
BRANCH  30  31
ATOM     31  C   UNL     1      45.735   2.240   8.285  0.00  0.00    +0.000 A 
ATOM     32  C   UNL     1      46.582   1.188   7.947  0.00  0.00    +0.000 A 
ATOM     33  N   UNL     1      47.380   1.212   6.854  0.00  0.00    +0.000 NA
ATOM     34  C   UNL     1      47.302   2.335   6.109  0.00  0.00    +0.000 A 
ATOM     35  C   UNL     1      46.466   3.387   6.438  0.00  0.00    +0.000 A 
ATOM     36  N   UNL     1      45.666   3.365   7.528  0.00  0.00    +0.000 NA
ENDBRANCH  30  31
ENDBRANCH  26  30
ENDBRANCH  24  26
ENDBRANCH  23  24
ENDBRANCH   4  23
TORSDOF 10
ENDMDL
MODEL 3
REMARK VINA RESULT:    -7.085      3.701      9.105
REMARK INTER + INTRA:         -12.252
REMARK INTER:                 -10.219
REMARK INTRA:                  -2.034
REMARK UNBOUND:                -1.233
REMARK  Name = 
REMARK  10 active torsions:
REMARK  status: ('A' for Active; 'I' for Inactive)
REMARK    1  A    between atoms: C_2  and  C_23
REMARK    2  A    between atoms: N_3  and  C_4
REMARK    3  A    between atoms: C_4  and  C_5
REMARK    4  A    between atoms: C_8  and  C_9
REMARK    5  A    between atoms: C_9  and  N_10
REMARK    6  A    between atoms: N_10  and  CA_11
REMARK    7  A    between atoms: CA_11  and  C_12
REMARK    8  A    between atoms: CA_11  and  C_14
REMARK    9  A    between atoms: C_12  and  O_13
REMARK   10  A    between atoms: C_14  and  C_15
REMARK                            x       y       z     vdW  Elec       q    Type
REMARK                         _______ _______ _______ _____ _____    ______ ____
ROOT
ATOM      1  C   UNL     1      47.881   7.868  13.488  0.00  0.00    +0.000 A 
ATOM      2  C   UNL     1      47.819   9.059  14.219  0.00  0.00    +0.000 A 
ATOM      3  C   UNL     1      48.344   9.123  15.509  0.00  0.00    +0.000 A 
ATOM      4  C   UNL     1      48.949   7.999  16.091  0.00  0.00    +0.000 A 
ATOM      5  C   UNL     1      49.054   6.822  15.340  0.00  0.00    +0.000 A 
ATOM      6  C   UNL     1      48.530   6.759  14.047  0.00  0.00    +0.000 A 
ENDROOT
BRANCH   1   7
ATOM      7  C   UNL     1      47.290   7.800  12.104  0.00  0.00    +0.000 C 
BRANCH   7  10
ATOM      8  O   UNL     1      44.518   7.438  11.800  0.00  0.00    +0.000 OA
ATOM      9  C   UNL     1      45.260   6.468  11.695  0.00  0.00    +0.000 C 
ATOM     10  N   UNL     1      46.615   6.546  11.891  0.00  0.00    +0.000 N 
ATOM     11  H   UNL     1      47.203   5.775  11.600  0.00  0.00    +0.000 HD
BRANCH   9  12
ATOM     12  C   UNL     1      44.735   5.129  11.399  0.00  0.00    +0.000 A 
ATOM     13  C   UNL     1      43.965   4.468  12.348  0.00  0.00    +0.000 A 
ATOM     14  S   UNL     1      43.462   2.915  11.855  0.00  0.00    +0.000 S 
ATOM     15  C   UNL     1      44.214   3.091  10.338  0.00  0.00    +0.000 A 
ATOM     16  N   UNL     1      44.139   2.106   9.403  0.00  0.00    +0.000 NA
ATOM     17  C   UNL     1      44.717   2.389   8.284  0.00  0.00    +0.000 A 
ATOM     18  N   UNL     1      45.376   3.561   8.019  0.00  0.00    +0.000 N 
ATOM     19  C   UNL     1      45.544   4.549   8.959  0.00  0.00    +0.000 A 
ATOM     20  O   UNL     1      46.253   5.525   8.729  0.00  0.00    +0.000 OA
ATOM     21  C   UNL     1      44.868   4.305  10.220  0.00  0.00    +0.000 A 
ATOM     22  H   UNL     1      45.835   3.707   7.132  0.00  0.00    +0.000 HD
ENDBRANCH   9  12
ENDBRANCH   7  10
ENDBRANCH   1   7
BRANCH   4  23
ATOM     23  C   UNL     1      49.524   8.082  17.483  0.00  0.00    +0.000 C 
BRANCH  23  24
ATOM     24  N   UNL     1      49.240   6.861  18.251  0.00  0.00    +0.000 NA
ATOM     25  H   UNL     1      50.049   6.686  18.851  0.00  0.00    +0.000 HD
BRANCH  24  26
ATOM     26  CA  UNL     1      48.024   6.996  19.100  0.00  0.00    +0.000 C 
BRANCH  26  27
ATOM     27  C   UNL     1      48.492   7.130  20.571  0.00  0.00    +0.000 C 
BRANCH  27  28
ATOM     28  O   UNL     1      49.151   5.939  21.000  0.00  0.00    +0.000 OA
ATOM     29  H   UNL     1      48.626   5.208  20.620  0.00  0.00    +0.000 HD
ENDBRANCH  27  28
ENDBRANCH  26  27
BRANCH  26  30
ATOM     30  C   UNL     1      47.084   5.782  18.924  0.00  0.00    +0.000 C 
BRANCH  30  31
ATOM     31  C   UNL     1      47.676   4.672  18.102  0.00  0.00    +0.000 A 
ATOM     32  C   UNL     1      47.082   4.278  16.906  0.00  0.00    +0.000 A 
ATOM     33  N   UNL     1      47.546   3.248  16.161  0.00  0.00    +0.000 NA
ATOM     34  C   UNL     1      48.631   2.618  16.662  0.00  0.00    +0.000 A 
ATOM     35  C   UNL     1      49.226   3.000  17.851  0.00  0.00    +0.000 A 
ATOM     36  N   UNL     1      48.766   4.031  18.596  0.00  0.00    +0.000 NA
ENDBRANCH  30  31
ENDBRANCH  26  30
ENDBRANCH  24  26
ENDBRANCH  23  24
ENDBRANCH   4  23
TORSDOF 10
ENDMDL
MODEL 4
REMARK VINA RESULT:    -6.906      2.596      3.657
REMARK INTER + INTRA:         -11.974
REMARK INTER:                 -10.629
REMARK INTRA:                  -1.345
REMARK UNBOUND:                -1.233
REMARK  Name = 
REMARK  10 active torsions:
REMARK  status: ('A' for Active; 'I' for Inactive)
REMARK    1  A    between atoms: C_2  and  C_23
REMARK    2  A    between atoms: N_3  and  C_4
REMARK    3  A    between atoms: C_4  and  C_5
REMARK    4  A    between atoms: C_8  and  C_9
REMARK    5  A    between atoms: C_9  and  N_10
REMARK    6  A    between atoms: N_10  and  CA_11
REMARK    7  A    between atoms: CA_11  and  C_12
REMARK    8  A    between atoms: CA_11  and  C_14
REMARK    9  A    between atoms: C_12  and  O_13
REMARK   10  A    between atoms: C_14  and  C_15
REMARK                            x       y       z     vdW  Elec       q    Type
REMARK                         _______ _______ _______ _____ _____    ______ ____
ROOT
ATOM      1  C   UNL     1      47.459   7.740  13.532  0.00  0.00    +0.000 A 
ATOM      2  C   UNL     1      46.412   8.426  12.907  0.00  0.00    +0.000 A 
ATOM      3  C   UNL     1      45.594   7.776  11.984  0.00  0.00    +0.000 A 
ATOM      4  C   UNL     1      45.800   6.422  11.676  0.00  0.00    +0.000 A 
ATOM      5  C   UNL     1      46.816   5.724  12.339  0.00  0.00    +0.000 A 
ATOM      6  C   UNL     1      47.635   6.375  13.264  0.00  0.00    +0.000 A 
ENDROOT
BRANCH   1   7
ATOM      7  C   UNL     1      48.354   8.456  14.509  0.00  0.00    +0.000 C 
BRANCH   7  10
ATOM      8  O   UNL     1      48.434   7.781  17.238  0.00  0.00    +0.000 OA
ATOM      9  C   UNL     1      49.206   7.226  16.465  0.00  0.00    +0.000 C 
ATOM     10  N   UNL     1      49.276   7.542  15.133  0.00  0.00    +0.000 N 
ATOM     11  H   UNL     1      49.777   6.927  14.503  0.00  0.00    +0.000 HD
BRANCH   9  12
ATOM     12  C   UNL     1      50.158   6.209  16.929  0.00  0.00    +0.000 A 
ATOM     13  C   UNL     1      49.690   5.089  17.605  0.00  0.00    +0.000 A 
ATOM     14  S   UNL     1      50.927   4.023  18.097  0.00  0.00    +0.000 S 
ATOM     15  C   UNL     1      52.127   4.997  17.383  0.00  0.00    +0.000 A 
ATOM     16  N   UNL     1      53.436   4.632  17.420  0.00  0.00    +0.000 NA
ATOM     17  C   UNL     1      54.233   5.439  16.803  0.00  0.00    +0.000 A 
ATOM     18  N   UNL     1      53.841   6.585  16.163  0.00  0.00    +0.000 N 
ATOM     19  C   UNL     1      52.542   7.033  16.167  0.00  0.00    +0.000 A 
ATOM     20  O   UNL     1      52.251   8.131  15.700  0.00  0.00    +0.000 OA
ATOM     21  C   UNL     1      51.595   6.136  16.803  0.00  0.00    +0.000 A 
ATOM     22  H   UNL     1      54.519   7.191  15.726  0.00  0.00    +0.000 HD
ENDBRANCH   9  12
ENDBRANCH   7  10
ENDBRANCH   1   7
BRANCH   4  23
ATOM     23  C   UNL     1      44.901   5.726  10.685  0.00  0.00    +0.000 C 
BRANCH  23  24
ATOM     24  N   UNL     1      45.319   4.333  10.473  0.00  0.00    +0.000 NA
ATOM     25  H   UNL     1      45.759   4.013  11.339  0.00  0.00    +0.000 HD
BRANCH  24  26
ATOM     26  CA  UNL     1      44.172   3.440  10.150  0.00  0.00    +0.000 C 
BRANCH  26  27
ATOM     27  C   UNL     1      43.375   3.210  11.459  0.00  0.00    +0.000 C 
BRANCH  27  28
ATOM     28  O   UNL     1      42.994   1.841  11.582  0.00  0.00    +0.000 OA
ATOM     29  H   UNL     1      43.409   1.535  12.413  0.00  0.00    +0.000 HD
ENDBRANCH  27  28
ENDBRANCH  26  27
BRANCH  26  30
ATOM     30  C   UNL     1      44.660   2.100   9.553  0.00  0.00    +0.000 C 
BRANCH  30  31
ATOM     31  C   UNL     1      45.611   2.260   8.402  0.00  0.00    +0.000 A 
ATOM     32  C   UNL     1      46.486   1.234   8.055  0.00  0.00    +0.000 A 
ATOM     33  N   UNL     1      47.398   1.353   7.063  0.00  0.00    +0.000 NA
ATOM     34  C   UNL     1      47.408   2.546   6.428  0.00  0.00    +0.000 A 
ATOM     35  C   UNL     1      46.545   3.573   6.769  0.00  0.00    +0.000 A 
ATOM     36  N   UNL     1      45.630   3.455   7.758  0.00  0.00    +0.000 NA
ENDBRANCH  30  31
ENDBRANCH  26  30
ENDBRANCH  24  26
ENDBRANCH  23  24
ENDBRANCH   4  23
TORSDOF 10
ENDMDL
MODEL 5
REMARK VINA RESULT:    -6.889      2.149      3.033
REMARK INTER + INTRA:         -11.947
REMARK INTER:                 -10.609
REMARK INTRA:                  -1.339
REMARK UNBOUND:                -1.233
REMARK  Name = 
REMARK  10 active torsions:
REMARK  status: ('A' for Active; 'I' for Inactive)
REMARK    1  A    between atoms: C_2  and  C_23
REMARK    2  A    between atoms: N_3  and  C_4
REMARK    3  A    between atoms: C_4  and  C_5
REMARK    4  A    between atoms: C_8  and  C_9
REMARK    5  A    between atoms: C_9  and  N_10
REMARK    6  A    between atoms: N_10  and  CA_11
REMARK    7  A    between atoms: CA_11  and  C_12
REMARK    8  A    between atoms: CA_11  and  C_14
REMARK    9  A    between atoms: C_12  and  O_13
REMARK   10  A    between atoms: C_14  and  C_15
REMARK                            x       y       z     vdW  Elec       q    Type
REMARK                         _______ _______ _______ _____ _____    ______ ____
ROOT
ATOM      1  C   UNL     1      49.002   7.827  12.713  0.00  0.00    +0.000 A 
ATOM      2  C   UNL     1      48.859   6.499  13.130  0.00  0.00    +0.000 A 
ATOM      3  C   UNL     1      47.641   5.838  12.978  0.00  0.00    +0.000 A 
ATOM      4  C   UNL     1      46.543   6.489  12.395  0.00  0.00    +0.000 A 
ATOM      5  C   UNL     1      46.700   7.801  11.934  0.00  0.00    +0.000 A 
ATOM      6  C   UNL     1      47.921   8.463  12.085  0.00  0.00    +0.000 A 
ENDROOT
BRANCH   1   7
ATOM      7  C   UNL     1      50.313   8.542  12.902  0.00  0.00    +0.000 C 
BRANCH   7  10
ATOM      8  O   UNL     1      50.581   8.891  15.681  0.00  0.00    +0.000 OA
ATOM      9  C   UNL     1      51.212   7.996  15.129  0.00  0.00    +0.000 C 
ATOM     10  N   UNL     1      51.187   7.798  13.773  0.00  0.00    +0.000 N 
ATOM     11  H   UNL     1      51.558   6.936  13.391  0.00  0.00    +0.000 HD
BRANCH   9  12
ATOM     12  C   UNL     1      52.089   7.095  15.888  0.00  0.00    +0.000 A 
ATOM     13  C   UNL     1      53.462   7.305  15.879  0.00  0.00    +0.000 A 
ATOM     14  S   UNL     1      54.334   6.153  16.787  0.00  0.00    +0.000 S 
ATOM     15  C   UNL     1      52.903   5.363  17.262  0.00  0.00    +0.000 A 
ATOM     16  N   UNL     1      52.943   4.284  18.089  0.00  0.00    +0.000 NA
ATOM     17  C   UNL     1      51.784   3.809  18.403  0.00  0.00    +0.000 A 
ATOM     18  N   UNL     1      50.589   4.307  17.955  0.00  0.00    +0.000 N 
ATOM     19  C   UNL     1      50.504   5.344  17.058  0.00  0.00    +0.000 A 
ATOM     20  O   UNL     1      49.424   5.675  16.575  0.00  0.00    +0.000 OA
ATOM     21  C   UNL     1      51.777   5.950  16.712  0.00  0.00    +0.000 A 
ATOM     22  H   UNL     1      49.718   3.869  18.213  0.00  0.00    +0.000 HD
ENDBRANCH   9  12
ENDBRANCH   7  10
ENDBRANCH   1   7
BRANCH   4  23
ATOM     23  C   UNL     1      45.233   5.760  12.226  0.00  0.00    +0.000 C 
BRANCH  23  24
ATOM     24  N   UNL     1      44.676   5.970  10.881  0.00  0.00    +0.000 NA
ATOM     25  H   UNL     1      45.425   5.783  10.211  0.00  0.00    +0.000 HD
BRANCH  24  26
ATOM     26  CA  UNL     1      43.529   5.066  10.596  0.00  0.00    +0.000 C 
BRANCH  26  27
ATOM     27  C   UNL     1      42.478   5.274  11.717  0.00  0.00    +0.000 C 
BRANCH  27  28
ATOM     28  O   UNL     1      41.914   6.582  11.639  0.00  0.00    +0.000 OA
ATOM     29  H   UNL     1      42.675   7.192  11.700  0.00  0.00    +0.000 HD
ENDBRANCH  27  28
ENDBRANCH  26  27
BRANCH  26  30
ATOM     30  C   UNL     1      43.985   3.591  10.529  0.00  0.00    +0.000 C 
BRANCH  30  31
ATOM     31  C   UNL     1      44.873   3.284   9.356  0.00  0.00    +0.000 A 
ATOM     32  C   UNL     1      45.340   1.991   9.138  0.00  0.00    +0.000 A 
ATOM     33  N   UNL     1      46.186   1.678   8.129  0.00  0.00    +0.000 NA
ATOM     34  C   UNL     1      46.555   2.714   7.345  0.00  0.00    +0.000 A 
ATOM     35  C   UNL     1      46.099   4.003   7.556  0.00  0.00    +0.000 A 
ATOM     36  N   UNL     1      45.251   4.318   8.562  0.00  0.00    +0.000 NA
ENDBRANCH  30  31
ENDBRANCH  26  30
ENDBRANCH  24  26
ENDBRANCH  23  24
ENDBRANCH   4  23
TORSDOF 10
ENDMDL
MODEL 6
REMARK VINA RESULT:    -6.744      3.139      9.461
REMARK INTER + INTRA:         -11.722
REMARK INTER:                 -10.072
REMARK INTRA:                  -1.651
REMARK UNBOUND:                -1.233
REMARK  Name = 
REMARK  10 active torsions:
REMARK  status: ('A' for Active; 'I' for Inactive)
REMARK    1  A    between atoms: C_2  and  C_23
REMARK    2  A    between atoms: N_3  and  C_4
REMARK    3  A    between atoms: C_4  and  C_5
REMARK    4  A    between atoms: C_8  and  C_9
REMARK    5  A    between atoms: C_9  and  N_10
REMARK    6  A    between atoms: N_10  and  CA_11
REMARK    7  A    between atoms: CA_11  and  C_12
REMARK    8  A    between atoms: CA_11  and  C_14
REMARK    9  A    between atoms: C_12  and  O_13
REMARK   10  A    between atoms: C_14  and  C_15
REMARK                            x       y       z     vdW  Elec       q    Type
REMARK                         _______ _______ _______ _____ _____    ______ ____
ROOT
ATOM      1  C   UNL     1      48.524   7.397  13.281  0.00  0.00    +0.000 A 
ATOM      2  C   UNL     1      49.825   7.913  13.253  0.00  0.00    +0.000 A 
ATOM      3  C   UNL     1      50.659   7.784  14.363  0.00  0.00    +0.000 A 
ATOM      4  C   UNL     1      50.213   7.128  15.520  0.00  0.00    +0.000 A 
ATOM      5  C   UNL     1      48.929   6.570  15.529  0.00  0.00    +0.000 A 
ATOM      6  C   UNL     1      48.094   6.697  14.417  0.00  0.00    +0.000 A 
ENDROOT
BRANCH   1   7
ATOM      7  C   UNL     1      47.621   7.562  12.088  0.00  0.00    +0.000 C 
BRANCH   7  10
ATOM      8  O   UNL     1      44.819   7.327  12.026  0.00  0.00    +0.000 OA
ATOM      9  C   UNL     1      45.504   6.344  11.767  0.00  0.00    +0.000 C 
ATOM     10  N   UNL     1      46.873   6.356  11.835  0.00  0.00    +0.000 N 
ATOM     11  H   UNL     1      47.397   5.593  11.423  0.00  0.00    +0.000 HD
BRANCH   9  12
ATOM     12  C   UNL     1      44.896   5.057  11.410  0.00  0.00    +0.000 A 
ATOM     13  C   UNL     1      44.104   4.390  12.337  0.00  0.00    +0.000 A 
ATOM     14  S   UNL     1      43.500   2.899  11.771  0.00  0.00    +0.000 S 
ATOM     15  C   UNL     1      44.236   3.114  10.251  0.00  0.00    +0.000 A 
ATOM     16  N   UNL     1      44.086   2.188   9.266  0.00  0.00    +0.000 NA
ATOM     17  C   UNL     1      44.660   2.498   8.152  0.00  0.00    +0.000 A 
ATOM     18  N   UNL     1      45.383   3.642   7.937  0.00  0.00    +0.000 N 
ATOM     19  C   UNL     1      45.626   4.565   8.926  0.00  0.00    +0.000 A 
ATOM     20  O   UNL     1      46.388   5.509   8.735  0.00  0.00    +0.000 OA
ATOM     21  C   UNL     1      44.958   4.293  10.185  0.00  0.00    +0.000 A 
ATOM     22  H   UNL     1      45.835   3.809   7.051  0.00  0.00    +0.000 HD
ENDBRANCH   9  12
ENDBRANCH   7  10
ENDBRANCH   1   7
BRANCH   4  23
ATOM     23  C   UNL     1      51.128   6.985  16.711  0.00  0.00    +0.000 C 
BRANCH  23  24
ATOM     24  N   UNL     1      51.753   5.655  16.746  0.00  0.00    +0.000 NA
ATOM     25  H   UNL     1      52.591   5.698  16.162  0.00  0.00    +0.000 HD
BRANCH  24  26
ATOM     26  CA  UNL     1      52.140   5.248  18.125  0.00  0.00    +0.000 C 
BRANCH  26  27
ATOM     27  C   UNL     1      53.648   5.559  18.299  0.00  0.00    +0.000 C 
BRANCH  27  28
ATOM     28  O   UNL     1      54.336   5.421  17.057  0.00  0.00    +0.000 OA
ATOM     29  H   UNL     1      53.708   4.957  16.469  0.00  0.00    +0.000 HD
ENDBRANCH  27  28
ENDBRANCH  26  27
BRANCH  26  30
ATOM     30  C   UNL     1      51.849   3.749  18.367  0.00  0.00    +0.000 C 
BRANCH  30  31
ATOM     31  C   UNL     1      50.556   3.278  17.763  0.00  0.00    +0.000 A 
ATOM     32  C   UNL     1      50.531   2.181  16.906  0.00  0.00    +0.000 A 
ATOM     33  N   UNL     1      49.401   1.755  16.295  0.00  0.00    +0.000 NA
ATOM     34  C   UNL     1      48.291   2.474  16.569  0.00  0.00    +0.000 A 
ATOM     35  C   UNL     1      48.308   3.568  17.416  0.00  0.00    +0.000 A 
ATOM     36  N   UNL     1      49.435   3.995  18.030  0.00  0.00    +0.000 NA
ENDBRANCH  30  31
ENDBRANCH  26  30
ENDBRANCH  24  26
ENDBRANCH  23  24
ENDBRANCH   4  23
TORSDOF 10
ENDMDL
MODEL 7
REMARK VINA RESULT:    -6.741      3.514      8.978
REMARK INTER + INTRA:         -11.718
REMARK INTER:                  -9.942
REMARK INTRA:                  -1.776
REMARK UNBOUND:                -1.233
REMARK  Name = 
REMARK  10 active torsions:
REMARK  status: ('A' for Active; 'I' for Inactive)
REMARK    1  A    between atoms: C_2  and  C_23
REMARK    2  A    between atoms: N_3  and  C_4
REMARK    3  A    between atoms: C_4  and  C_5
REMARK    4  A    between atoms: C_8  and  C_9
REMARK    5  A    between atoms: C_9  and  N_10
REMARK    6  A    between atoms: N_10  and  CA_11
REMARK    7  A    between atoms: CA_11  and  C_12
REMARK    8  A    between atoms: CA_11  and  C_14
REMARK    9  A    between atoms: C_12  and  O_13
REMARK   10  A    between atoms: C_14  and  C_15
REMARK                            x       y       z     vdW  Elec       q    Type
REMARK                         _______ _______ _______ _____ _____    ______ ____
ROOT
ATOM      1  C   UNL     1      48.961   7.683  13.417  0.00  0.00    +0.000 A 
ATOM      2  C   UNL     1      50.204   8.205  13.793  0.00  0.00    +0.000 A 
ATOM      3  C   UNL     1      50.736   7.926  15.050  0.00  0.00    +0.000 A 
ATOM      4  C   UNL     1      50.041   7.109  15.955  0.00  0.00    +0.000 A 
ATOM      5  C   UNL     1      48.821   6.546  15.560  0.00  0.00    +0.000 A 
ATOM      6  C   UNL     1      48.289   6.825  14.299  0.00  0.00    +0.000 A 
ENDROOT
BRANCH   1   7
ATOM      7  C   UNL     1      48.382   8.009  12.066  0.00  0.00    +0.000 C 
BRANCH   7  10
ATOM      8  O   UNL     1      45.585   7.870  11.804  0.00  0.00    +0.000 OA
ATOM      9  C   UNL     1      46.268   6.936  11.397  0.00  0.00    +0.000 C 
ATOM     10  N   UNL     1      47.631   6.896  11.543  0.00  0.00    +0.000 N 
ATOM     11  H   UNL     1      48.165   6.213  11.020  0.00  0.00    +0.000 HD
BRANCH   9  12
ATOM     12  C   UNL     1      45.661   5.759  10.764  0.00  0.00    +0.000 A 
ATOM     13  C   UNL     1      45.866   5.526   9.410  0.00  0.00    +0.000 A 
ATOM     14  S   UNL     1      45.068   4.134   8.830  0.00  0.00    +0.000 S 
ATOM     15  C   UNL     1      44.460   3.769  10.377  0.00  0.00    +0.000 A 
ATOM     16  N   UNL     1      43.700   2.661  10.585  0.00  0.00    +0.000 NA
ATOM     17  C   UNL     1      43.342   2.482  11.813  0.00  0.00    +0.000 A 
ATOM     18  N   UNL     1      43.664   3.319  12.850  0.00  0.00    +0.000 N 
ATOM     19  C   UNL     1      44.362   4.488  12.673  0.00  0.00    +0.000 A 
ATOM     20  O   UNL     1      44.516   5.279  13.600  0.00  0.00    +0.000 OA
ATOM     21  C   UNL     1      44.834   4.712  11.319  0.00  0.00    +0.000 A 
ATOM     22  H   UNL     1      43.325   3.139  13.783  0.00  0.00    +0.000 HD
ENDBRANCH   9  12
ENDBRANCH   7  10
ENDBRANCH   1   7
BRANCH   4  23
ATOM     23  C   UNL     1      50.632   6.804  17.309  0.00  0.00    +0.000 C 
BRANCH  23  24
ATOM     24  N   UNL     1      49.581   6.523  18.298  0.00  0.00    +0.000 NA
ATOM     25  H   UNL     1      48.870   5.956  17.833  0.00  0.00    +0.000 HD
BRANCH  24  26
ATOM     26  CA  UNL     1      50.100   5.781  19.481  0.00  0.00    +0.000 C 
BRANCH  26  27
ATOM     27  C   UNL     1      51.614   5.539  19.253  0.00  0.00    +0.000 C 
BRANCH  27  28
ATOM     28  O   UNL     1      52.000   4.262  19.761  0.00  0.00    +0.000 OA
ATOM     29  H   UNL     1      52.592   4.457  20.514  0.00  0.00    +0.000 HD
ENDBRANCH  27  28
ENDBRANCH  26  27
BRANCH  26  30
ATOM     30  C   UNL     1      49.346   4.447  19.676  0.00  0.00    +0.000 C 
BRANCH  30  31
ATOM     31  C   UNL     1      48.758   3.892  18.409  0.00  0.00    +0.000 A 
ATOM     32  C   UNL     1      49.489   3.015  17.613  0.00  0.00    +0.000 A 
ATOM     33  N   UNL     1      49.024   2.533  16.436  0.00  0.00    +0.000 NA
ATOM     34  C   UNL     1      47.796   2.968  16.081  0.00  0.00    +0.000 A 
ATOM     35  C   UNL     1      47.064   3.842  16.864  0.00  0.00    +0.000 A 
ATOM     36  N   UNL     1      47.525   4.323  18.042  0.00  0.00    +0.000 NA
ENDBRANCH  30  31
ENDBRANCH  26  30
ENDBRANCH  24  26
ENDBRANCH  23  24
ENDBRANCH   4  23
TORSDOF 10
ENDMDL
MODEL 8
REMARK VINA RESULT:    -6.599      1.959      2.538
REMARK INTER + INTRA:         -11.497
REMARK INTER:                 -10.052
REMARK INTRA:                  -1.445
REMARK UNBOUND:                -1.233
REMARK  Name = 
REMARK  10 active torsions:
REMARK  status: ('A' for Active; 'I' for Inactive)
REMARK    1  A    between atoms: C_2  and  C_23
REMARK    2  A    between atoms: N_3  and  C_4
REMARK    3  A    between atoms: C_4  and  C_5
REMARK    4  A    between atoms: C_8  and  C_9
REMARK    5  A    between atoms: C_9  and  N_10
REMARK    6  A    between atoms: N_10  and  CA_11
REMARK    7  A    between atoms: CA_11  and  C_12
REMARK    8  A    between atoms: CA_11  and  C_14
REMARK    9  A    between atoms: C_12  and  O_13
REMARK   10  A    between atoms: C_14  and  C_15
REMARK                            x       y       z     vdW  Elec       q    Type
REMARK                         _______ _______ _______ _____ _____    ______ ____
ROOT
ATOM      1  C   UNL     1      48.660   8.178  14.106  0.00  0.00    +0.000 A 
ATOM      2  C   UNL     1      47.297   8.485  14.173  0.00  0.00    +0.000 A 
ATOM      3  C   UNL     1      46.417   8.006  13.204  0.00  0.00    +0.000 A 
ATOM      4  C   UNL     1      46.881   7.201  12.153  0.00  0.00    +0.000 A 
ATOM      5  C   UNL     1      48.236   6.854  12.113  0.00  0.00    +0.000 A 
ATOM      6  C   UNL     1      49.118   7.333  13.085  0.00  0.00    +0.000 A 
ENDROOT
BRANCH   1   7
ATOM      7  C   UNL     1      49.608   8.720  15.143  0.00  0.00    +0.000 C 
BRANCH   7  10
ATOM      8  O   UNL     1      49.111   7.282  17.508  0.00  0.00    +0.000 OA
ATOM      9  C   UNL     1      50.082   6.982  16.823  0.00  0.00    +0.000 C 
ATOM     10  N   UNL     1      50.431   7.671  15.690  0.00  0.00    +0.000 N 
ATOM     11  H   UNL     1      51.110   7.270  15.055  0.00  0.00    +0.000 HD
BRANCH   9  12
ATOM     12  C   UNL     1      50.977   5.881  17.200  0.00  0.00    +0.000 A 
ATOM     13  C   UNL     1      52.276   6.161  17.606  0.00  0.00    +0.000 A 
ATOM     14  S   UNL     1      53.188   4.769  17.980  0.00  0.00    +0.000 S 
ATOM     15  C   UNL     1      51.866   3.748  17.658  0.00  0.00    +0.000 A 
ATOM     16  N   UNL     1      51.970   2.400  17.814  0.00  0.00    +0.000 NA
ATOM     17  C   UNL     1      50.880   1.751  17.577  0.00  0.00    +0.000 A 
ATOM     18  N   UNL     1      49.698   2.324  17.184  0.00  0.00    +0.000 N 
ATOM     19  C   UNL     1      49.569   3.669  16.939  0.00  0.00    +0.000 A 
ATOM     20  O   UNL     1      48.535   4.127  16.460  0.00  0.00    +0.000 OA
ATOM     21  C   UNL     1      50.751   4.455  17.241  0.00  0.00    +0.000 A 
ATOM     22  H   UNL     1      48.890   1.754  16.984  0.00  0.00    +0.000 HD
ENDBRANCH   9  12
ENDBRANCH   7  10
ENDBRANCH   1   7
BRANCH   4  23
ATOM     23  C   UNL     1      45.917   6.678  11.116  0.00  0.00    +0.000 C 
BRANCH  23  24
ATOM     24  N   UNL     1      45.890   5.209  11.106  0.00  0.00    +0.000 NA
ATOM     25  H   UNL     1      46.524   4.889  11.841  0.00  0.00    +0.000 HD
BRANCH  24  26
ATOM     26  CA  UNL     1      44.528   4.666  11.367  0.00  0.00    +0.000 C 
BRANCH  26  27
ATOM     27  C   UNL     1      44.665   3.545  12.428  0.00  0.00    +0.000 C 
BRANCH  27  28
ATOM     28  O   UNL     1      43.670   2.542  12.231  0.00  0.00    +0.000 OA
ATOM     29  H   UNL     1      42.817   3.016  12.281  0.00  0.00    +0.000 HD
ENDBRANCH  27  28
ENDBRANCH  26  27
BRANCH  26  30
ATOM     30  C   UNL     1      43.884   4.129  10.069  0.00  0.00    +0.000 C 
BRANCH  30  31
ATOM     31  C   UNL     1      44.873   3.549   9.098  0.00  0.00    +0.000 A 
ATOM     32  C   UNL     1      45.162   2.187   9.106  0.00  0.00    +0.000 A 
ATOM     33  N   UNL     1      46.085   1.629   8.289  0.00  0.00    +0.000 NA
ATOM     34  C   UNL     1      46.717   2.489   7.461  0.00  0.00    +0.000 A 
ATOM     35  C   UNL     1      46.440   3.844   7.449  0.00  0.00    +0.000 A 
ATOM     36  N   UNL     1      45.515   4.404   8.262  0.00  0.00    +0.000 NA
ENDBRANCH  30  31
ENDBRANCH  26  30
ENDBRANCH  24  26
ENDBRANCH  23  24
ENDBRANCH   4  23
TORSDOF 10
ENDMDL
MODEL 9
REMARK VINA RESULT:    -6.403      3.960      4.763
REMARK INTER + INTRA:         -11.191
REMARK INTER:                 -10.004
REMARK INTRA:                  -1.187
REMARK UNBOUND:                -1.233
REMARK  Name = 
REMARK  10 active torsions:
REMARK  status: ('A' for Active; 'I' for Inactive)
REMARK    1  A    between atoms: C_2  and  C_23
REMARK    2  A    between atoms: N_3  and  C_4
REMARK    3  A    between atoms: C_4  and  C_5
REMARK    4  A    between atoms: C_8  and  C_9
REMARK    5  A    between atoms: C_9  and  N_10
REMARK    6  A    between atoms: N_10  and  CA_11
REMARK    7  A    between atoms: CA_11  and  C_12
REMARK    8  A    between atoms: CA_11  and  C_14
REMARK    9  A    between atoms: C_12  and  O_13
REMARK   10  A    between atoms: C_14  and  C_15
REMARK                            x       y       z     vdW  Elec       q    Type
REMARK                         _______ _______ _______ _____ _____    ______ ____
ROOT
ATOM      1  C   UNL     1      48.161   7.614  13.205  0.00  0.00    +0.000 A 
ATOM      2  C   UNL     1      48.070   6.389  13.875  0.00  0.00    +0.000 A 
ATOM      3  C   UNL     1      47.107   5.451  13.504  0.00  0.00    +0.000 A 
ATOM      4  C   UNL     1      46.223   5.715  12.447  0.00  0.00    +0.000 A 
ATOM      5  C   UNL     1      46.347   6.920  11.745  0.00  0.00    +0.000 A 
ATOM      6  C   UNL     1      47.312   7.859  12.116  0.00  0.00    +0.000 A 
ENDROOT
BRANCH   1   7
ATOM      7  C   UNL     1      49.187   8.632  13.627  0.00  0.00    +0.000 C 
BRANCH   7  10
ATOM      8  O   UNL     1      50.847   7.827  15.751  0.00  0.00    +0.000 OA
ATOM      9  C   UNL     1      49.917   8.593  15.979  0.00  0.00    +0.000 C 
ATOM     10  N   UNL     1      49.025   8.985  15.014  0.00  0.00    +0.000 N 
ATOM     11  H   UNL     1      48.405   9.764  15.200  0.00  0.00    +0.000 HD
BRANCH   9  12
ATOM     12  C   UNL     1      49.663   9.111  17.329  0.00  0.00    +0.000 A 
ATOM     13  C   UNL     1      49.748  10.477  17.568  0.00  0.00    +0.000 A 
ATOM     14  S   UNL     1      49.452  10.904  19.193  0.00  0.00    +0.000 S 
ATOM     15  C   UNL     1      49.153   9.285  19.623  0.00  0.00    +0.000 A 
ATOM     16  N   UNL     1      48.809   8.953  20.896  0.00  0.00    +0.000 NA
ATOM     17  C   UNL     1      48.569   7.697  21.073  0.00  0.00    +0.000 A 
ATOM     18  N   UNL     1      48.656   6.740  20.096  0.00  0.00    +0.000 N 
ATOM     19  C   UNL     1      49.075   7.017  18.818  0.00  0.00    +0.000 A 
ATOM     20  O   UNL     1      49.269   6.115  18.007  0.00  0.00    +0.000 OA
ATOM     21  C   UNL     1      49.307   8.425  18.550  0.00  0.00    +0.000 A 
ATOM     22  H   UNL     1      48.486   5.768  20.309  0.00  0.00    +0.000 HD
ENDBRANCH   9  12
ENDBRANCH   7  10
ENDBRANCH   1   7
BRANCH   4  23
ATOM     23  C   UNL     1      45.193   4.688  12.047  0.00  0.00    +0.000 C 
BRANCH  23  24
ATOM     24  N   UNL     1      45.351   4.294  10.640  0.00  0.00    +0.000 NA
ATOM     25  H   UNL     1      46.195   3.720  10.579  0.00  0.00    +0.000 HD
BRANCH  24  26
ATOM     26  CA  UNL     1      44.189   3.510  10.137  0.00  0.00    +0.000 C 
BRANCH  26  27
ATOM     27  C   UNL     1      43.212   3.308  11.323  0.00  0.00    +0.000 C 
BRANCH  27  28
ATOM     28  O   UNL     1      43.048   1.920  11.607  0.00  0.00    +0.000 OA
ATOM     29  H   UNL     1      43.141   1.846  12.577  0.00  0.00    +0.000 HD
ENDBRANCH  27  28
ENDBRANCH  26  27
BRANCH  26  30
ATOM     30  C   UNL     1      44.644   2.154   9.552  0.00  0.00    +0.000 C 
BRANCH  30  31
ATOM     31  C   UNL     1      45.648   2.278   8.441  0.00  0.00    +0.000 A 
ATOM     32  C   UNL     1      46.418   1.185   8.054  0.00  0.00    +0.000 A 
ATOM     33  N   UNL     1      47.373   1.263   7.099  0.00  0.00    +0.000 NA
ATOM     34  C   UNL     1      47.534   2.484   6.544  0.00  0.00    +0.000 A 
ATOM     35  C   UNL     1      46.776   3.577   6.924  0.00  0.00    +0.000 A 
ATOM     36  N   UNL     1      45.819   3.501   7.877  0.00  0.00    +0.000 NA
ENDBRANCH  30  31
ENDBRANCH  26  30
ENDBRANCH  24  26
ENDBRANCH  23  24
ENDBRANCH   4  23
TORSDOF 10
ENDMDL
