MODEL 1
REMARK VINA RESULT:    -7.218      0.000      0.000
REMARK INTER + INTRA:          -9.969
REMARK INTER:                  -9.539
REMARK INTRA:                  -0.431
REMARK UNBOUND:                -0.431
REMARK  Name = 
REMARK  6 active torsions:
REMARK  status: ('A' for Active; 'I' for Inactive)
REMARK    1  A    between atoms: N_1  and  C_2
REMARK    2  A    between atoms: C_2  and  C_3
REMARK    3  A    between atoms: C_7  and  O_8
REMARK    4  A    between atoms: O_8  and  C_9
REMARK    5  A    between atoms: C_9  and  C_10
REMARK    6  A    between atoms: C_10  and  C_11
REMARK                            x       y       z     vdW  Elec       q    Type
REMARK                         _______ _______ _______ _____ _____    ______ ____
ROOT
ATOM      1  C   UNL     1      45.821   5.076  13.099  0.00  0.00    +0.000 A 
ATOM      2  C   UNL     1      45.444   6.402  12.926  0.00  0.00    +0.000 A 
ATOM      3  N   UNL     1      44.500   6.809  12.049  0.00  0.00    +0.000 NA
ATOM      4  C   UNL     1      43.904   5.845  11.304  0.00  0.00    +0.000 A 
ATOM      5  C   UNL     1      44.205   4.490  11.388  0.00  0.00    +0.000 A 
ATOM      6  C   UNL     1      45.183   4.116  12.304  0.00  0.00    +0.000 A 
ENDROOT
BRANCH   1   7
ATOM      7  C   UNL     1      46.843   4.667  14.120  0.00  0.00    +0.000 C 
BRANCH   7   8
ATOM      8  N   UNL     1      47.213   3.264  13.979  0.00  0.00    +0.000 NA
ATOM      9  H   UNL     1      48.080   3.094  14.487  0.00  0.00    +0.000 HD
ATOM     10  H   UNL     1      47.413   3.068  12.999  0.00  0.00    +0.000 HD
ENDBRANCH   7   8
ENDBRANCH   1   7
BRANCH   5  11
ATOM     11  O   UNL     1      43.509   3.640  10.568  0.00  0.00    +0.000 OA
BRANCH  11  12
ATOM     12  C   UNL     1      44.313   2.801   9.728  0.00  0.00    +0.000 C 
BRANCH  12  13
ATOM     13  C   UNL     1      44.886   3.620   8.574  0.00  0.00    +0.000 C 
BRANCH  13  14
ATOM     14  C   UNL     1      45.912   2.839   7.790  0.00  0.00    +0.000 A 
ATOM     15  C   UNL     1      46.530   3.399   6.668  0.00  0.00    +0.000 A 
ATOM     16  C   UNL     1      47.462   2.643   5.972  0.00  0.00    +0.000 A 
ATOM     17  N   UNL     1      47.808   1.383   6.306  0.00  0.00    +0.000 NA
ATOM     18  C   UNL     1      47.192   0.854   7.385  0.00  0.00    +0.000 A 
ATOM     19  C   UNL     1      46.248   1.529   8.145  0.00  0.00    +0.000 A 
ENDBRANCH  13  14
ENDBRANCH  12  13
ENDBRANCH  11  12
ENDBRANCH   5  11
TORSDOF 6
ENDMDL
MODEL 2
REMARK VINA RESULT:    -7.103      1.460      5.913
REMARK INTER + INTRA:          -9.817
REMARK INTER:                  -9.348
REMARK INTRA:                  -0.469
REMARK UNBOUND:                -0.431
REMARK  Name = 
REMARK  6 active torsions:
REMARK  status: ('A' for Active; 'I' for Inactive)
REMARK    1  A    between atoms: N_1  and  C_2
REMARK    2  A    between atoms: C_2  and  C_3
REMARK    3  A    between atoms: C_7  and  O_8
REMARK    4  A    between atoms: O_8  and  C_9
REMARK    5  A    between atoms: C_9  and  C_10
REMARK    6  A    between atoms: C_10  and  C_11
REMARK                            x       y       z     vdW  Elec       q    Type
REMARK                         _______ _______ _______ _____ _____    ______ ____
ROOT
ATOM      1  C   UNL     1      46.421   2.240   7.787  0.00  0.00    +0.000 A 
ATOM      2  C   UNL     1      46.491   3.582   7.432  0.00  0.00    +0.000 A 
ATOM      3  N   UNL     1      45.742   4.552   8.000  0.00  0.00    +0.000 NA
ATOM      4  C   UNL     1      44.875   4.164   8.970  0.00  0.00    +0.000 A 
ATOM      5  C   UNL     1      44.716   2.852   9.400  0.00  0.00    +0.000 A 
ATOM      6  C   UNL     1      45.508   1.885   8.787  0.00  0.00    +0.000 A 
ENDROOT
BRANCH   1   7
ATOM      7  C   UNL     1      47.308   1.205   7.158  0.00  0.00    +0.000 C 
BRANCH   7   8
ATOM      8  N   UNL     1      48.375   1.816   6.373  0.00  0.00    +0.000 NA
ATOM      9  H   UNL     1      49.128   2.101   6.997  0.00  0.00    +0.000 HD
ATOM     10  H   UNL     1      48.025   2.669   5.940  0.00  0.00    +0.000 HD
ENDBRANCH   7   8
ENDBRANCH   1   7
BRANCH   5  11
ATOM     11  O   UNL     1      43.800   2.623  10.393  0.00  0.00    +0.000 OA
BRANCH  11  12
ATOM     12  C   UNL     1      43.386   3.784  11.126  0.00  0.00    +0.000 C 
BRANCH  12  13
ATOM     13  C   UNL     1      43.902   3.703  12.561  0.00  0.00    +0.000 C 
BRANCH  13  14
ATOM     14  C   UNL     1      44.949   4.753  12.839  0.00  0.00    +0.000 A 
ATOM     15  C   UNL     1      44.688   6.104  12.591  0.00  0.00    +0.000 A 
ATOM     16  C   UNL     1      45.682   7.035  12.852  0.00  0.00    +0.000 A 
ATOM     17  N   UNL     1      46.903   6.717  13.329  0.00  0.00    +0.000 NA
ATOM     18  C   UNL     1      47.141   5.407  13.553  0.00  0.00    +0.000 A 
ATOM     19  C   UNL     1      46.213   4.402  13.322  0.00  0.00    +0.000 A 
ENDBRANCH  13  14
ENDBRANCH  12  13
ENDBRANCH  11  12
ENDBRANCH   5  11
TORSDOF 6
ENDMDL
MODEL 3
REMARK VINA RESULT:    -7.045      1.380      1.873
REMARK INTER + INTRA:          -9.741
REMARK INTER:                  -9.307
REMARK INTRA:                  -0.434
REMARK UNBOUND:                -0.431
REMARK  Name = 
REMARK  6 active torsions:
REMARK  status: ('A' for Active; 'I' for Inactive)
REMARK    1  A    between atoms: N_1  and  C_2
REMARK    2  A    between atoms: C_2  and  C_3
REMARK    3  A    between atoms: C_7  and  O_8
REMARK    4  A    between atoms: O_8  and  C_9
REMARK    5  A    between atoms: C_9  and  C_10
REMARK    6  A    between atoms: C_10  and  C_11
REMARK                            x       y       z     vdW  Elec       q    Type
REMARK                         _______ _______ _______ _____ _____    ______ ____
ROOT
ATOM      1  C   UNL     1      46.877   5.843  12.828  0.00  0.00    +0.000 A 
ATOM      2  C   UNL     1      46.818   4.763  13.700  0.00  0.00    +0.000 A 
ATOM      3  N   UNL     1      45.963   3.726  13.561  0.00  0.00    +0.000 NA
ATOM      4  C   UNL     1      45.122   3.769  12.497  0.00  0.00    +0.000 A 
ATOM      5  C   UNL     1      45.088   4.800  11.565  0.00  0.00    +0.000 A 
ATOM      6  C   UNL     1      45.985   5.848  11.749  0.00  0.00    +0.000 A 
ENDROOT
BRANCH   1   7
ATOM      7  C   UNL     1      47.876   6.950  13.000  0.00  0.00    +0.000 C 
BRANCH   7   8
ATOM      8  N   UNL     1      49.245   6.466  12.860  0.00  0.00    +0.000 NA
ATOM      9  H   UNL     1      49.231   5.548  12.419  0.00  0.00    +0.000 HD
ATOM     10  H   UNL     1      49.649   6.334  13.786  0.00  0.00    +0.000 HD
ENDBRANCH   7   8
ENDBRANCH   1   7
BRANCH   5  11
ATOM     11  O   UNL     1      44.180   4.693  10.543  0.00  0.00    +0.000 OA
BRANCH  11  12
ATOM     12  C   UNL     1      44.368   3.572   9.670  0.00  0.00    +0.000 C 
BRANCH  12  13
ATOM     13  C   UNL     1      44.980   4.038   8.351  0.00  0.00    +0.000 C 
BRANCH  13  14
ATOM     14  C   UNL     1      45.979   3.043   7.816  0.00  0.00    +0.000 A 
ATOM     15  C   UNL     1      46.921   3.423   6.855  0.00  0.00    +0.000 A 
ATOM     16  C   UNL     1      47.816   2.474   6.384  0.00  0.00    +0.000 A 
ATOM     17  N   UNL     1      47.830   1.188   6.790  0.00  0.00    +0.000 NA
ATOM     18  C   UNL     1      46.906   0.835   7.709  0.00  0.00    +0.000 A 
ATOM     19  C   UNL     1      45.970   1.711   8.241  0.00  0.00    +0.000 A 
ENDBRANCH  13  14
ENDBRANCH  12  13
ENDBRANCH  11  12
ENDBRANCH   5  11
TORSDOF 6
ENDMDL
MODEL 4
REMARK VINA RESULT:    -7.011      1.410      6.207
REMARK INTER + INTRA:          -9.696
REMARK INTER:                  -9.264
REMARK INTRA:                  -0.432
REMARK UNBOUND:                -0.431
REMARK  Name = 
REMARK  6 active torsions:
REMARK  status: ('A' for Active; 'I' for Inactive)
REMARK    1  A    between atoms: N_1  and  C_2
REMARK    2  A    between atoms: C_2  and  C_3
REMARK    3  A    between atoms: C_7  and  O_8
REMARK    4  A    between atoms: O_8  and  C_9
REMARK    5  A    between atoms: C_9  and  C_10
REMARK    6  A    between atoms: C_10  and  C_11
REMARK                            x       y       z     vdW  Elec       q    Type
REMARK                         _______ _______ _______ _____ _____    ______ ____
ROOT
ATOM      1  C   UNL     1      46.628   2.572   6.891  0.00  0.00    +0.000 A 
ATOM      2  C   UNL     1      46.627   1.375   7.596  0.00  0.00    +0.000 A 
ATOM      3  N   UNL     1      45.857   1.138   8.680  0.00  0.00    +0.000 NA
ATOM      4  C   UNL     1      45.048   2.150   9.086  0.00  0.00    +0.000 A 
ATOM      5  C   UNL     1      44.971   3.390   8.463  0.00  0.00    +0.000 A 
ATOM      6  C   UNL     1      45.783   3.590   7.350  0.00  0.00    +0.000 A 
ENDROOT
BRANCH   1   7
ATOM      7  C   UNL     1      47.469   2.770   5.663  0.00  0.00    +0.000 C 
BRANCH   7   8
ATOM      8  N   UNL     1      48.568   1.813   5.604  0.00  0.00    +0.000 NA
ATOM      9  H   UNL     1      48.190   0.868   5.633  0.00  0.00    +0.000 HD
ATOM     10  H   UNL     1      49.146   1.917   6.437  0.00  0.00    +0.000 HD
ENDBRANCH   7   8
ENDBRANCH   1   7
BRANCH   5  11
ATOM     11  O   UNL     1      44.100   4.307   8.992  0.00  0.00    +0.000 OA
BRANCH  11  12
ATOM     12  C   UNL     1      43.919   4.232  10.413  0.00  0.00    +0.000 C 
BRANCH  12  13
ATOM     13  C   UNL     1      44.341   5.549  11.059  0.00  0.00    +0.000 C 
BRANCH  13  14
ATOM     14  C   UNL     1      45.537   5.372  11.962  0.00  0.00    +0.000 A 
ATOM     15  C   UNL     1      45.639   4.258  12.801  0.00  0.00    +0.000 A 
ATOM     16  C   UNL     1      46.751   4.139  13.621  0.00  0.00    +0.000 A 
ATOM     17  N   UNL     1      47.750   5.045  13.669  0.00  0.00    +0.000 NA
ATOM     18  C   UNL     1      47.629   6.120  12.861  0.00  0.00    +0.000 A 
ATOM     19  C   UNL     1      46.555   6.329  12.006  0.00  0.00    +0.000 A 
ENDBRANCH  13  14
ENDBRANCH  12  13
ENDBRANCH  11  12
ENDBRANCH   5  11
TORSDOF 6
ENDMDL
MODEL 5
REMARK VINA RESULT:    -6.744      0.824      2.007
REMARK INTER + INTRA:          -9.343
REMARK INTER:                  -8.906
REMARK INTRA:                  -0.436
REMARK UNBOUND:                -0.431
REMARK  Name = 
REMARK  6 active torsions:
REMARK  status: ('A' for Active; 'I' for Inactive)
REMARK    1  A    between atoms: N_1  and  C_2
REMARK    2  A    between atoms: C_2  and  C_3
REMARK    3  A    between atoms: C_7  and  O_8
REMARK    4  A    between atoms: O_8  and  C_9
REMARK    5  A    between atoms: C_9  and  C_10
REMARK    6  A    between atoms: C_10  and  C_11
REMARK                            x       y       z     vdW  Elec       q    Type
REMARK                         _______ _______ _______ _____ _____    ______ ____
ROOT
ATOM      1  C   UNL     1      45.249   5.987  12.693  0.00  0.00    +0.000 A 
ATOM      2  C   UNL     1      46.008   5.102  13.450  0.00  0.00    +0.000 A 
ATOM      3  N   UNL     1      45.960   3.759  13.314  0.00  0.00    +0.000 NA
ATOM      4  C   UNL     1      45.109   3.272  12.376  0.00  0.00    +0.000 A 
ATOM      5  C   UNL     1      44.299   4.060  11.567  0.00  0.00    +0.000 A 
ATOM      6  C   UNL     1      44.380   5.438  11.742  0.00  0.00    +0.000 A 
ENDROOT
BRANCH   1   7
ATOM      7  C   UNL     1      45.372   7.474  12.851  0.00  0.00    +0.000 C 
BRANCH   7   8
ATOM      8  N   UNL     1      46.423   8.021  12.000  0.00  0.00    +0.000 NA
ATOM      9  H   UNL     1      47.111   8.496  12.581  0.00  0.00    +0.000 HD
ATOM     10  H   UNL     1      46.022   8.734  11.391  0.00  0.00    +0.000 HD
ENDBRANCH   7   8
ENDBRANCH   1   7
BRANCH   5  11
ATOM     11  O   UNL     1      43.495   3.414  10.663  0.00  0.00    +0.000 OA
BRANCH  11  12
ATOM     12  C   UNL     1      44.180   2.583   9.717  0.00  0.00    +0.000 C 
BRANCH  12  13
ATOM     13  C   UNL     1      44.807   3.447   8.626  0.00  0.00    +0.000 C 
BRANCH  13  14
ATOM     14  C   UNL     1      45.935   2.730   7.924  0.00  0.00    +0.000 A 
ATOM     15  C   UNL     1      46.758   3.408   7.020  0.00  0.00    +0.000 A 
ATOM     16  C   UNL     1      47.777   2.709   6.391  0.00  0.00    +0.000 A 
ATOM     17  N   UNL     1      48.023   1.397   6.589  0.00  0.00    +0.000 NA
ATOM     18  C   UNL     1      47.210   0.756   7.457  0.00  0.00    +0.000 A 
ATOM     19  C   UNL     1      46.165   1.367   8.135  0.00  0.00    +0.000 A 
ENDBRANCH  13  14
ENDBRANCH  12  13
ENDBRANCH  11  12
ENDBRANCH   5  11
TORSDOF 6
ENDMDL
MODEL 6
REMARK VINA RESULT:    -6.287      1.598      2.561
REMARK INTER + INTRA:          -8.739
REMARK INTER:                  -8.608
REMARK INTRA:                  -0.131
REMARK UNBOUND:                -0.431
REMARK  Name = 
REMARK  6 active torsions:
REMARK  status: ('A' for Active; 'I' for Inactive)
REMARK    1  A    between atoms: N_1  and  C_2
REMARK    2  A    between atoms: C_2  and  C_3
REMARK    3  A    between atoms: C_7  and  O_8
REMARK    4  A    between atoms: O_8  and  C_9
REMARK    5  A    between atoms: C_9  and  C_10
REMARK    6  A    between atoms: C_10  and  C_11
REMARK                            x       y       z     vdW  Elec       q    Type
REMARK                         _______ _______ _______ _____ _____    ______ ____
ROOT
ATOM      1  C   UNL     1      44.405   5.736  12.258  0.00  0.00    +0.000 A 
ATOM      2  C   UNL     1      43.623   5.130  13.233  0.00  0.00    +0.000 A 
ATOM      3  N   UNL     1      43.338   3.810  13.259  0.00  0.00    +0.000 NA
ATOM      4  C   UNL     1      43.856   3.055  12.257  0.00  0.00    +0.000 A 
ATOM      5  C   UNL     1      44.645   3.553  11.227  0.00  0.00    +0.000 A 
ATOM      6  C   UNL     1      44.913   4.919  11.240  0.00  0.00    +0.000 A 
ENDROOT
BRANCH   1   7
ATOM      7  C   UNL     1      44.732   7.201  12.298  0.00  0.00    +0.000 C 
BRANCH   7   8
ATOM      8  N   UNL     1      44.430   7.855  11.030  0.00  0.00    +0.000 NA
ATOM      9  H   UNL     1      44.882   8.767  11.008  0.00  0.00    +0.000 HD
ATOM     10  H   UNL     1      43.428   8.030  10.976  0.00  0.00    +0.000 HD
ENDBRANCH   7   8
ENDBRANCH   1   7
BRANCH   5  11
ATOM     11  O   UNL     1      45.096   2.658  10.292  0.00  0.00    +0.000 OA
BRANCH  11  12
ATOM     12  C   UNL     1      44.364   2.637   9.059  0.00  0.00    +0.000 C 
BRANCH  12  13
ATOM     13  C   UNL     1      45.027   3.568   8.047  0.00  0.00    +0.000 C 
BRANCH  13  14
ATOM     14  C   UNL     1      46.118   2.868   7.274  0.00  0.00    +0.000 A 
ATOM     15  C   UNL     1      46.693   1.690   7.759  0.00  0.00    +0.000 A 
ATOM     16  C   UNL     1      47.699   1.085   7.021  0.00  0.00    +0.000 A 
ATOM     17  N   UNL     1      48.172   1.570   5.855  0.00  0.00    +0.000 NA
ATOM     18  C   UNL     1      47.613   2.715   5.407  0.00  0.00    +0.000 A 
ATOM     19  C   UNL     1      46.602   3.394   6.073  0.00  0.00    +0.000 A 
ENDBRANCH  13  14
ENDBRANCH  12  13
ENDBRANCH  11  12
ENDBRANCH   5  11
TORSDOF 6
ENDMDL
MODEL 7
REMARK VINA RESULT:    -5.915      1.661      3.052
REMARK INTER + INTRA:          -8.247
REMARK INTER:                  -7.780
REMARK INTRA:                  -0.468
REMARK UNBOUND:                -0.431
REMARK  Name = 
REMARK  6 active torsions:
REMARK  status: ('A' for Active; 'I' for Inactive)
REMARK    1  A    between atoms: N_1  and  C_2
REMARK    2  A    between atoms: C_2  and  C_3
REMARK    3  A    between atoms: C_7  and  O_8
REMARK    4  A    between atoms: O_8  and  C_9
REMARK    5  A    between atoms: C_9  and  C_10
REMARK    6  A    between atoms: C_10  and  C_11
REMARK                            x       y       z     vdW  Elec       q    Type
REMARK                         _______ _______ _______ _____ _____    ______ ____
ROOT
ATOM      1  C   UNL     1      46.650   6.981  12.916  0.00  0.00    +0.000 A 
ATOM      2  C   UNL     1      47.556   6.030  13.367  0.00  0.00    +0.000 A 
ATOM      3  N   UNL     1      47.246   4.732  13.576  0.00  0.00    +0.000 NA
ATOM      4  C   UNL     1      45.964   4.364  13.325  0.00  0.00    +0.000 A 
ATOM      5  C   UNL     1      44.973   5.229  12.878  0.00  0.00    +0.000 A 
ATOM      6  C   UNL     1      45.337   6.558  12.677  0.00  0.00    +0.000 A 
ENDROOT
BRANCH   1   7
ATOM      7  C   UNL     1      47.055   8.403  12.655  0.00  0.00    +0.000 C 
BRANCH   7   8
ATOM      8  N   UNL     1      47.094   9.186  13.885  0.00  0.00    +0.000 NA
ATOM      9  H   UNL     1      46.708  10.111  13.705  0.00  0.00    +0.000 HD
ATOM     10  H   UNL     1      48.065   9.329  14.159  0.00  0.00    +0.000 HD
ENDBRANCH   7   8
ENDBRANCH   1   7
BRANCH   5  11
ATOM     11  O   UNL     1      43.726   4.701  12.667  0.00  0.00    +0.000 OA
BRANCH  11  12
ATOM     12  C   UNL     1      43.636   3.746  11.602  0.00  0.00    +0.000 C 
BRANCH  12  13
ATOM     13  C   UNL     1      43.788   4.452  10.257  0.00  0.00    +0.000 C 
BRANCH  13  14
ATOM     14  C   UNL     1      44.724   3.708   9.337  0.00  0.00    +0.000 A 
ATOM     15  C   UNL     1      44.860   2.320   9.427  0.00  0.00    +0.000 A 
ATOM     16  C   UNL     1      45.738   1.677   8.568  0.00  0.00    +0.000 A 
ATOM     17  N   UNL     1      46.487   2.314   7.644  0.00  0.00    +0.000 NA
ATOM     18  C   UNL     1      46.352   3.656   7.578  0.00  0.00    +0.000 A 
ATOM     19  C   UNL     1      45.501   4.389   8.394  0.00  0.00    +0.000 A 
ENDBRANCH  13  14
ENDBRANCH  12  13
ENDBRANCH  11  12
ENDBRANCH   5  11
TORSDOF 6
ENDMDL
MODEL 8
REMARK VINA RESULT:    -5.211      3.859      7.586
REMARK INTER + INTRA:          -7.317
REMARK INTER:                  -7.009
REMARK INTRA:                  -0.309
REMARK UNBOUND:                -0.431
REMARK  Name = 
REMARK  6 active torsions:
REMARK  status: ('A' for Active; 'I' for Inactive)
REMARK    1  A    between atoms: N_1  and  C_2
REMARK    2  A    between atoms: C_2  and  C_3
REMARK    3  A    between atoms: C_7  and  O_8
REMARK    4  A    between atoms: O_8  and  C_9
REMARK    5  A    between atoms: C_9  and  C_10
REMARK    6  A    between atoms: C_10  and  C_11
REMARK                            x       y       z     vdW  Elec       q    Type
REMARK                         _______ _______ _______ _____ _____    ______ ____
ROOT
ATOM      1  C   UNL     1      45.253   6.032  12.147  0.00  0.00    +0.000 A 
ATOM      2  C   UNL     1      44.657   5.085  11.325  0.00  0.00    +0.000 A 
ATOM      3  N   UNL     1      44.783   3.751  11.495  0.00  0.00    +0.000 NA
ATOM      4  C   UNL     1      45.547   3.340  12.539  0.00  0.00    +0.000 A 
ATOM      5  C   UNL     1      46.195   4.196  13.421  0.00  0.00    +0.000 A 
ATOM      6  C   UNL     1      46.038   5.562  13.207  0.00  0.00    +0.000 A 
ENDROOT
BRANCH   1   7
ATOM      7  C   UNL     1      45.045   7.505  11.943  0.00  0.00    +0.000 C 
BRANCH   7   8
ATOM      8  N   UNL     1      43.806   7.779  11.223  0.00  0.00    +0.000 NA
ATOM      9  H   UNL     1      43.194   8.340  11.813  0.00  0.00    +0.000 HD
ATOM     10  H   UNL     1      43.317   6.901  11.056  0.00  0.00    +0.000 HD
ENDBRANCH   7   8
ENDBRANCH   1   7
BRANCH   5  11
ATOM     11  O   UNL     1      46.928   3.623  14.429  0.00  0.00    +0.000 OA
BRANCH  11  12
ATOM     12  C   UNL     1      47.153   4.456  15.574  0.00  0.00    +0.000 C 
BRANCH  12  13
ATOM     13  C   UNL     1      47.311   3.590  16.821  0.00  0.00    +0.000 C 
BRANCH  13  14
ATOM     14  C   UNL     1      48.763   3.324  17.138  0.00  0.00    +0.000 A 
ATOM     15  C   UNL     1      49.373   2.130  16.742  0.00  0.00    +0.000 A 
ATOM     16  C   UNL     1      50.706   1.923  17.061  0.00  0.00    +0.000 A 
ATOM     17  N   UNL     1      51.461   2.807  17.746  0.00  0.00    +0.000 NA
ATOM     18  C   UNL     1      50.852   3.950  18.131  0.00  0.00    +0.000 A 
ATOM     19  C   UNL     1      49.524   4.248  17.860  0.00  0.00    +0.000 A 
ENDBRANCH  13  14
ENDBRANCH  12  13
ENDBRANCH  11  12
ENDBRANCH   5  11
TORSDOF 6
ENDMDL
MODEL 9
REMARK VINA RESULT:    -5.175      3.489      5.059
REMARK INTER + INTRA:          -7.269
REMARK INTER:                  -6.766
REMARK INTRA:                  -0.503
REMARK UNBOUND:                -0.431
REMARK  Name = 
REMARK  6 active torsions:
REMARK  status: ('A' for Active; 'I' for Inactive)
REMARK    1  A    between atoms: N_1  and  C_2
REMARK    2  A    between atoms: C_2  and  C_3
REMARK    3  A    between atoms: C_7  and  O_8
REMARK    4  A    between atoms: O_8  and  C_9
REMARK    5  A    between atoms: C_9  and  C_10
REMARK    6  A    between atoms: C_10  and  C_11
REMARK                            x       y       z     vdW  Elec       q    Type
REMARK                         _______ _______ _______ _____ _____    ______ ____
ROOT
ATOM      1  C   UNL     1      47.806   4.835  16.050  0.00  0.00    +0.000 A 
ATOM      2  C   UNL     1      48.666   5.782  16.595  0.00  0.00    +0.000 A 
ATOM      3  N   UNL     1      49.125   6.860  15.923  0.00  0.00    +0.000 NA
ATOM      4  C   UNL     1      48.708   7.000  14.639  0.00  0.00    +0.000 A 
ATOM      5  C   UNL     1      47.856   6.114  13.990  0.00  0.00    +0.000 A 
ATOM      6  C   UNL     1      47.409   5.017  14.720  0.00  0.00    +0.000 A 
ENDROOT
BRANCH   1   7
ATOM      7  C   UNL     1      47.288   3.678  16.853  0.00  0.00    +0.000 C 
BRANCH   7   8
ATOM      8  N   UNL     1      46.790   4.106  18.155  0.00  0.00    +0.000 NA
ATOM      9  H   UNL     1      47.518   3.970  18.853  0.00  0.00    +0.000 HD
ATOM     10  H   UNL     1      46.014   3.505  18.430  0.00  0.00    +0.000 HD
ENDBRANCH   7   8
ENDBRANCH   1   7
BRANCH   5  11
ATOM     11  O   UNL     1      47.525   6.399  12.690  0.00  0.00    +0.000 OA
BRANCH  11  12
ATOM     12  C   UNL     1      46.153   6.752  12.469  0.00  0.00    +0.000 C 
BRANCH  12  13
ATOM     13  C   UNL     1      45.710   6.273  11.089  0.00  0.00    +0.000 C 
BRANCH  13  14
ATOM     14  C   UNL     1      44.884   5.013  11.172  0.00  0.00    +0.000 A 
ATOM     15  C   UNL     1      44.162   4.708  12.329  0.00  0.00    +0.000 A 
ATOM     16  C   UNL     1      43.423   3.535  12.365  0.00  0.00    +0.000 A 
ATOM     17  N   UNL     1      43.363   2.652  11.346  0.00  0.00    +0.000 NA
ATOM     18  C   UNL     1      44.076   2.957  10.241  0.00  0.00    +0.000 A 
ATOM     19  C   UNL     1      44.845   4.105  10.109  0.00  0.00    +0.000 A 
ENDBRANCH  13  14
ENDBRANCH  12  13
ENDBRANCH  11  12
ENDBRANCH   5  11
TORSDOF 6
ENDMDL
