MODEL 1
REMARK VINA RESULT:    -8.352      0.000      0.000
REMARK INTER + INTRA:         -12.797
REMARK INTER:                 -11.770
REMARK INTRA:                  -1.027
REMARK UNBOUND:                -1.027
REMARK  Name = 
REMARK  7 active torsions:
REMARK  status: ('A' for Active; 'I' for Inactive)
REMARK    1  A    between atoms: C_2  and  C_4
REMARK    2  A    between atoms: C_7  and  N_8
REMARK    3  A    between atoms: N_8  and  C_9
REMARK    4  A    between atoms: C_9  and  C_10
REMARK    5  A    between atoms: C_10  and  C_13
REMARK    6  A    between atoms: C_17  and  C_18
REMARK    7  A    between atoms: C_18  and  C_19
REMARK                            x       y       z     vdW  Elec       q    Type
REMARK                         _______ _______ _______ _____ _____    ______ ____
ROOT
ATOM      1  C   UNL     1      44.172   5.014  12.431  0.00  0.00    +0.000 C 
ATOM      2  F   UNL     1      43.257   5.521  13.307  0.00  0.00    +0.000 F 
ATOM      3  F   UNL     1      44.027   3.656  12.497  0.00  0.00    +0.000 F 
ENDROOT
BRANCH   1   4
ATOM      4  C   UNL     1      45.573   5.467  12.755  0.00  0.00    +0.000 A 
ATOM      5  C   UNL     1      46.232   6.379  11.945  0.00  0.00    +0.000 A 
ATOM      6  N   UNL     1      47.444   6.902  12.236  0.00  0.00    +0.000 NA
ATOM      7  C   UNL     1      48.032   6.491  13.383  0.00  0.00    +0.000 A 
ATOM      8  C   UNL     1      47.467   5.578  14.267  0.00  0.00    +0.000 A 
ATOM      9  C   UNL     1      46.216   5.056  13.931  0.00  0.00    +0.000 A 
BRANCH   8  10
ATOM     10  C   UNL     1      48.164   5.184  15.541  0.00  0.00    +0.000 C 
BRANCH  10  11
ATOM     11  C   UNL     1      47.287   4.259  16.377  0.00  0.00    +0.000 C 
ATOM     12  C   UNL     1      47.129   4.704  17.844  0.00  0.00    +0.000 C 
ATOM     13  N   UNL     1      47.452   3.347  18.296  0.00  0.00    +0.000 NA
ATOM     14  C   UNL     1      47.908   2.970  16.951  0.00  0.00    +0.000 C 
ATOM     15  H   UNL     1      46.646   2.818  18.627  0.00  0.00    +0.000 HD
ENDBRANCH  10  11
ENDBRANCH   8  10
ENDBRANCH   1   4
BRANCH   1  16
ATOM     16  C   UNL     1      43.820   5.473  10.996  0.00  0.00    +0.000 C 
BRANCH  16  17
ATOM     17  N   UNL     1      43.534   4.376  10.059  0.00  0.00    +0.000 N 
ATOM     18  H   UNL     1      42.826   3.712  10.373  0.00  0.00    +0.000 HD
BRANCH  17  22
ATOM     19  C   UNL     1      46.506   2.499   7.723  0.00  0.00    +0.000 A 
ATOM     20  C   UNL     1      46.360   3.885   7.666  0.00  0.00    +0.000 A 
ATOM     21  C   UNL     1      45.393   4.519   8.451  0.00  0.00    +0.000 A 
ATOM     22  C   UNL     1      44.572   3.797   9.329  0.00  0.00    +0.000 A 
ATOM     23  C   UNL     1      44.718   2.404   9.357  0.00  0.00    +0.000 A 
ATOM     24  C   UNL     1      45.669   1.756   8.560  0.00  0.00    +0.000 A 
BRANCH  19  26
ATOM     25  N   UNL     1      48.578   2.515   6.447  0.00  0.00    +0.000 N 
ATOM     26  C   UNL     1      47.502   1.790   6.881  0.00  0.00    +0.000 C 
ATOM     27  O   UNL     1      47.389   0.604   6.607  0.00  0.00    +0.000 OA
ATOM     28  H   UNL     1      49.298   1.999   5.955  0.00  0.00    +0.000 HD
ATOM     29  H   UNL     1      48.831   3.405   6.848  0.00  0.00    +0.000 HD
ENDBRANCH  19  26
ENDBRANCH  17  22
ENDBRANCH  16  17
ENDBRANCH   1  16
TORSDOF 7
ENDMDL
MODEL 2
REMARK VINA RESULT:    -8.338      1.935      3.555
REMARK INTER + INTRA:         -12.777
REMARK INTER:                 -11.757
REMARK INTRA:                  -1.020
REMARK UNBOUND:                -1.027
REMARK  Name = 
REMARK  7 active torsions:
REMARK  status: ('A' for Active; 'I' for Inactive)
REMARK    1  A    between atoms: C_2  and  C_4
REMARK    2  A    between atoms: C_7  and  N_8
REMARK    3  A    between atoms: N_8  and  C_9
REMARK    4  A    between atoms: C_9  and  C_10
REMARK    5  A    between atoms: C_10  and  C_13
REMARK    6  A    between atoms: C_17  and  C_18
REMARK    7  A    between atoms: C_18  and  C_19
REMARK                            x       y       z     vdW  Elec       q    Type
REMARK                         _______ _______ _______ _____ _____    ______ ____
ROOT
ATOM      1  C   UNL     1      43.383   5.572  12.125  0.00  0.00    +0.000 C 
ATOM      2  F   UNL     1      43.287   6.852  11.664  0.00  0.00    +0.000 F 
ATOM      3  F   UNL     1      42.354   5.425  13.011  0.00  0.00    +0.000 F 
ENDROOT
BRANCH   1   4
ATOM      4  C   UNL     1      44.730   5.294  12.742  0.00  0.00    +0.000 A 
ATOM      5  C   UNL     1      45.085   4.013  13.133  0.00  0.00    +0.000 A 
ATOM      6  N   UNL     1      46.311   3.682  13.596  0.00  0.00    +0.000 NA
ATOM      7  C   UNL     1      47.225   4.677  13.683  0.00  0.00    +0.000 A 
ATOM      8  C   UNL     1      46.978   5.997  13.325  0.00  0.00    +0.000 A 
ATOM      9  C   UNL     1      45.698   6.302  12.855  0.00  0.00    +0.000 A 
BRANCH   8  10
ATOM     10  C   UNL     1      48.049   7.049  13.422  0.00  0.00    +0.000 C 
BRANCH  10  11
ATOM     11  C   UNL     1      48.204   7.790  12.097  0.00  0.00    +0.000 C 
ATOM     12  C   UNL     1      49.660   7.896  11.606  0.00  0.00    +0.000 C 
ATOM     13  N   UNL     1      49.481   9.333  11.369  0.00  0.00    +0.000 NA
ATOM     14  C   UNL     1      48.212   9.332  12.109  0.00  0.00    +0.000 C 
ATOM     15  H   UNL     1      49.391   9.581  10.385  0.00  0.00    +0.000 HD
ENDBRANCH  10  11
ENDBRANCH   8  10
ENDBRANCH   1   4
BRANCH   1  16
ATOM     16  C   UNL     1      43.162   4.586  10.952  0.00  0.00    +0.000 C 
BRANCH  16  17
ATOM     17  N   UNL     1      43.844   4.962   9.704  0.00  0.00    +0.000 N 
ATOM     18  H   UNL     1      43.309   5.573   9.086  0.00  0.00    +0.000 HD
BRANCH  17  22
ATOM     19  C   UNL     1      46.430   2.232   7.787  0.00  0.00    +0.000 A 
ATOM     20  C   UNL     1      45.475   1.759   8.687  0.00  0.00    +0.000 A 
ATOM     21  C   UNL     1      44.599   2.651   9.311  0.00  0.00    +0.000 A 
ATOM     22  C   UNL     1      44.633   4.026   9.035  0.00  0.00    +0.000 A 
ATOM     23  C   UNL     1      45.613   4.486   8.146  0.00  0.00    +0.000 A 
ATOM     24  C   UNL     1      46.509   3.603   7.529  0.00  0.00    +0.000 A 
BRANCH  19  26
ATOM     25  N   UNL     1      48.464   1.890   6.495  0.00  0.00    +0.000 N 
ATOM     26  C   UNL     1      47.395   1.316   7.127  0.00  0.00    +0.000 C 
ATOM     27  O   UNL     1      47.264   0.101   7.169  0.00  0.00    +0.000 OA
ATOM     28  H   UNL     1      49.164   1.254   6.132  0.00  0.00    +0.000 HD
ATOM     29  H   UNL     1      48.735   2.849   6.648  0.00  0.00    +0.000 HD
ENDBRANCH  19  26
ENDBRANCH  17  22
ENDBRANCH  16  17
ENDBRANCH   1  16
TORSDOF 7
ENDMDL
MODEL 3
REMARK VINA RESULT:    -8.133      2.019      3.728
REMARK INTER + INTRA:         -12.488
REMARK INTER:                 -11.604
REMARK INTRA:                  -0.884
REMARK UNBOUND:                -1.027
REMARK  Name = 
REMARK  7 active torsions:
REMARK  status: ('A' for Active; 'I' for Inactive)
REMARK    1  A    between atoms: C_2  and  C_4
REMARK    2  A    between atoms: C_7  and  N_8
REMARK    3  A    between atoms: N_8  and  C_9
REMARK    4  A    between atoms: C_9  and  C_10
REMARK    5  A    between atoms: C_10  and  C_13
REMARK    6  A    between atoms: C_17  and  C_18
REMARK    7  A    between atoms: C_18  and  C_19
REMARK                            x       y       z     vdW  Elec       q    Type
REMARK                         _______ _______ _______ _____ _____    ______ ____
ROOT
ATOM      1  C   UNL     1      43.516   4.510  12.846  0.00  0.00    +0.000 C 
ATOM      2  F   UNL     1      42.617   5.478  12.505  0.00  0.00    +0.000 F 
ATOM      3  F   UNL     1      43.043   3.965  14.006  0.00  0.00    +0.000 F 
ENDROOT
BRANCH   1   4
ATOM      4  C   UNL     1      44.911   5.062  12.988  0.00  0.00    +0.000 A 
ATOM      5  C   UNL     1      45.909   4.330  13.614  0.00  0.00    +0.000 A 
ATOM      6  N   UNL     1      47.199   4.724  13.681  0.00  0.00    +0.000 NA
ATOM      7  C   UNL     1      47.512   5.908  13.106  0.00  0.00    +0.000 A 
ATOM      8  C   UNL     1      46.595   6.727  12.457  0.00  0.00    +0.000 A 
ATOM      9  C   UNL     1      45.270   6.289  12.412  0.00  0.00    +0.000 A 
BRANCH   8  10
ATOM     10  C   UNL     1      47.016   8.021  11.815  0.00  0.00    +0.000 C 
BRANCH  10  11
ATOM     11  C   UNL     1      46.503   9.216  12.612  0.00  0.00    +0.000 C 
ATOM     12  C   UNL     1      45.097   9.689  12.197  0.00  0.00    +0.000 C 
ATOM     13  N   UNL     1      45.578  11.073  12.125  0.00  0.00    +0.000 NA
ATOM     14  C   UNL     1      46.975  10.629  12.214  0.00  0.00    +0.000 C 
ATOM     15  H   UNL     1      45.275  11.656  12.904  0.00  0.00    +0.000 HD
ENDBRANCH  10  11
ENDBRANCH   8  10
ENDBRANCH   1   4
BRANCH   1  16
ATOM     16  C   UNL     1      43.525   3.410  11.757  0.00  0.00    +0.000 C 
BRANCH  16  17
ATOM     17  N   UNL     1      43.541   3.920  10.378  0.00  0.00    +0.000 N 
ATOM     18  H   UNL     1      42.628   3.965   9.923  0.00  0.00    +0.000 HD
BRANCH  17  22
ATOM     19  C   UNL     1      46.537   2.762   7.640  0.00  0.00    +0.000 A 
ATOM     20  C   UNL     1      46.291   4.118   7.858  0.00  0.00    +0.000 A 
ATOM     21  C   UNL     1      45.316   4.513   8.778  0.00  0.00    +0.000 A 
ATOM     22  C   UNL     1      44.586   3.574   9.521  0.00  0.00    +0.000 A 
ATOM     23  C   UNL     1      44.831   2.217   9.273  0.00  0.00    +0.000 A 
ATOM     24  C   UNL     1      45.791   1.809   8.339  0.00  0.00    +0.000 A 
BRANCH  19  26
ATOM     25  N   UNL     1      47.547   2.933   5.432  0.00  0.00    +0.000 N 
ATOM     26  C   UNL     1      47.545   2.307   6.649  0.00  0.00    +0.000 C 
ATOM     27  O   UNL     1      48.359   1.433   6.910  0.00  0.00    +0.000 OA
ATOM     28  H   UNL     1      48.298   2.682   4.800  0.00  0.00    +0.000 HD
ATOM     29  H   UNL     1      47.070   3.806   5.270  0.00  0.00    +0.000 HD
ENDBRANCH  19  26
ENDBRANCH  17  22
ENDBRANCH  16  17
ENDBRANCH   1  16
TORSDOF 7
ENDMDL
MODEL 4
REMARK VINA RESULT:    -7.947      2.650      3.295
REMARK INTER + INTRA:         -12.226
REMARK INTER:                 -11.489
REMARK INTRA:                  -0.737
REMARK UNBOUND:                -1.027
REMARK  Name = 
REMARK  7 active torsions:
REMARK  status: ('A' for Active; 'I' for Inactive)
REMARK    1  A    between atoms: C_2  and  C_4
REMARK    2  A    between atoms: C_7  and  N_8
REMARK    3  A    between atoms: N_8  and  C_9
REMARK    4  A    between atoms: C_9  and  C_10
REMARK    5  A    between atoms: C_10  and  C_13
REMARK    6  A    between atoms: C_17  and  C_18
REMARK    7  A    between atoms: C_18  and  C_19
REMARK                            x       y       z     vdW  Elec       q    Type
REMARK                         _______ _______ _______ _____ _____    ______ ____
ROOT
ATOM      1  C   UNL     1      43.825   4.757  12.422  0.00  0.00    +0.000 C 
ATOM      2  F   UNL     1      42.945   5.022  13.431  0.00  0.00    +0.000 F 
ATOM      3  F   UNL     1      44.385   3.550  12.735  0.00  0.00    +0.000 F 
ENDROOT
BRANCH   1   4
ATOM      4  C   UNL     1      44.848   5.852  12.264  0.00  0.00    +0.000 A 
ATOM      5  C   UNL     1      44.466   7.143  11.932  0.00  0.00    +0.000 A 
ATOM      6  N   UNL     1      45.321   8.188  11.878  0.00  0.00    +0.000 NA
ATOM      7  C   UNL     1      46.621   7.935  12.158  0.00  0.00    +0.000 A 
ATOM      8  C   UNL     1      47.117   6.681  12.498  0.00  0.00    +0.000 A 
ATOM      9  C   UNL     1      46.204   5.625  12.540  0.00  0.00    +0.000 A 
BRANCH   8  10
ATOM     10  C   UNL     1      48.570   6.475  12.825  0.00  0.00    +0.000 C 
BRANCH  10  11
ATOM     11  C   UNL     1      49.365   7.758  12.605  0.00  0.00    +0.000 C 
ATOM     12  C   UNL     1      50.387   7.671  11.456  0.00  0.00    +0.000 C 
ATOM     13  N   UNL     1      51.424   8.232  12.330  0.00  0.00    +0.000 NA
ATOM     14  C   UNL     1      50.577   8.043  13.515  0.00  0.00    +0.000 C 
ATOM     15  H   UNL     1      51.651   9.205  12.130  0.00  0.00    +0.000 HD
ENDBRANCH  10  11
ENDBRANCH   8  10
ENDBRANCH   1   4
BRANCH   1  16
ATOM     16  C   UNL     1      43.050   4.605  11.090  0.00  0.00    +0.000 C 
BRANCH  16  17
ATOM     17  N   UNL     1      43.815   4.988   9.894  0.00  0.00    +0.000 N 
ATOM     18  H   UNL     1      43.358   5.670   9.289  0.00  0.00    +0.000 HD
BRANCH  17  22
ATOM     19  C   UNL     1      46.270   2.172   7.930  0.00  0.00    +0.000 A 
ATOM     20  C   UNL     1      45.292   1.729   8.821  0.00  0.00    +0.000 A 
ATOM     21  C   UNL     1      44.459   2.651   9.460  0.00  0.00    +0.000 A 
ATOM     22  C   UNL     1      44.559   4.027   9.209  0.00  0.00    +0.000 A 
ATOM     23  C   UNL     1      45.562   4.455   8.329  0.00  0.00    +0.000 A 
ATOM     24  C   UNL     1      46.415   3.542   7.698  0.00  0.00    +0.000 A 
BRANCH  19  26
ATOM     25  N   UNL     1      48.269   1.758   6.605  0.00  0.00    +0.000 N 
ATOM     26  C   UNL     1      47.191   1.222   7.256  0.00  0.00    +0.000 C 
ATOM     27  O   UNL     1      47.017   0.013   7.299  0.00  0.00    +0.000 OA
ATOM     28  H   UNL     1      48.941   1.098   6.231  0.00  0.00    +0.000 HD
ATOM     29  H   UNL     1      48.577   2.706   6.755  0.00  0.00    +0.000 HD
ENDBRANCH  19  26
ENDBRANCH  17  22
ENDBRANCH  16  17
ENDBRANCH   1  16
TORSDOF 7
ENDMDL
MODEL 5
REMARK VINA RESULT:    -7.643      2.378      4.206
REMARK INTER + INTRA:         -11.798
REMARK INTER:                 -11.091
REMARK INTRA:                  -0.707
REMARK UNBOUND:                -1.027
REMARK  Name = 
REMARK  7 active torsions:
REMARK  status: ('A' for Active; 'I' for Inactive)
REMARK    1  A    between atoms: C_2  and  C_4
REMARK    2  A    between atoms: C_7  and  N_8
REMARK    3  A    between atoms: N_8  and  C_9
REMARK    4  A    between atoms: C_9  and  C_10
REMARK    5  A    between atoms: C_10  and  C_13
REMARK    6  A    between atoms: C_17  and  C_18
REMARK    7  A    between atoms: C_18  and  C_19
REMARK                            x       y       z     vdW  Elec       q    Type
REMARK                         _______ _______ _______ _____ _____    ______ ____
ROOT
ATOM      1  C   UNL     1      45.398   5.403  12.197  0.00  0.00    +0.000 C 
ATOM      2  F   UNL     1      44.363   5.610  13.062  0.00  0.00    +0.000 F 
ATOM      3  F   UNL     1      45.524   4.046  12.098  0.00  0.00    +0.000 F 
ENDROOT
BRANCH   1   4
ATOM      4  C   UNL     1      46.664   6.074  12.663  0.00  0.00    +0.000 A 
ATOM      5  C   UNL     1      47.231   5.757  13.888  0.00  0.00    +0.000 A 
ATOM      6  N   UNL     1      48.416   6.246  14.316  0.00  0.00    +0.000 NA
ATOM      7  C   UNL     1      49.064   7.098  13.490  0.00  0.00    +0.000 A 
ATOM      8  C   UNL     1      48.590   7.491  12.243  0.00  0.00    +0.000 A 
ATOM      9  C   UNL     1      47.360   6.968  11.837  0.00  0.00    +0.000 A 
BRANCH   8  10
ATOM     10  C   UNL     1      49.376   8.422  11.362  0.00  0.00    +0.000 C 
BRANCH  10  11
ATOM     11  C   UNL     1      50.870   8.130  11.458  0.00  0.00    +0.000 C 
ATOM     12  C   UNL     1      51.766   9.293  10.990  0.00  0.00    +0.000 C 
ATOM     13  N   UNL     1      52.542   8.366  10.159  0.00  0.00    +0.000 NA
ATOM     14  C   UNL     1      51.538   7.310  10.335  0.00  0.00    +0.000 C 
ATOM     15  H   UNL     1      53.460   8.138  10.540  0.00  0.00    +0.000 HD
ENDBRANCH  10  11
ENDBRANCH   8  10
ENDBRANCH   1   4
BRANCH   1  16
ATOM     16  C   UNL     1      45.024   5.962  10.803  0.00  0.00    +0.000 C 
BRANCH  16  17
ATOM     17  N   UNL     1      44.199   5.058   9.986  0.00  0.00    +0.000 N 
ATOM     18  H   UNL     1      43.297   4.810  10.393  0.00  0.00    +0.000 HD
BRANCH  17  22
ATOM     19  C   UNL     1      46.243   1.998   7.920  0.00  0.00    +0.000 A 
ATOM     20  C   UNL     1      45.259   1.661   8.849  0.00  0.00    +0.000 A 
ATOM     21  C   UNL     1      44.560   2.667   9.523  0.00  0.00    +0.000 A 
ATOM     22  C   UNL     1      44.803   4.024   9.270  0.00  0.00    +0.000 A 
ATOM     23  C   UNL     1      45.811   4.343   8.351  0.00  0.00    +0.000 A 
ATOM     24  C   UNL     1      46.531   3.344   7.684  0.00  0.00    +0.000 A 
BRANCH  19  26
ATOM     25  N   UNL     1      46.762  -0.348   7.530  0.00  0.00    +0.000 N 
ATOM     26  C   UNL     1      47.025   0.955   7.207  0.00  0.00    +0.000 C 
ATOM     27  O   UNL     1      47.847   1.239   6.348  0.00  0.00    +0.000 OA
ATOM     28  H   UNL     1      47.230  -1.052   6.972  0.00  0.00    +0.000 HD
ATOM     29  H   UNL     1      45.936  -0.626   8.039  0.00  0.00    +0.000 HD
ENDBRANCH  19  26
ENDBRANCH  17  22
ENDBRANCH  16  17
ENDBRANCH   1  16
TORSDOF 7
ENDMDL
MODEL 6
REMARK VINA RESULT:    -7.412      2.640      7.909
REMARK INTER + INTRA:         -11.472
REMARK INTER:                 -10.720
REMARK INTRA:                  -0.752
REMARK UNBOUND:                -1.027
REMARK  Name = 
REMARK  7 active torsions:
REMARK  status: ('A' for Active; 'I' for Inactive)
REMARK    1  A    between atoms: C_2  and  C_4
REMARK    2  A    between atoms: C_7  and  N_8
REMARK    3  A    between atoms: N_8  and  C_9
REMARK    4  A    between atoms: C_9  and  C_10
REMARK    5  A    between atoms: C_10  and  C_13
REMARK    6  A    between atoms: C_17  and  C_18
REMARK    7  A    between atoms: C_18  and  C_19
REMARK                            x       y       z     vdW  Elec       q    Type
REMARK                         _______ _______ _______ _____ _____    ______ ____
ROOT
ATOM      1  C   UNL     1      45.163   5.953  11.804  0.00  0.00    +0.000 C 
ATOM      2  F   UNL     1      44.379   5.946  12.920  0.00  0.00    +0.000 F 
ATOM      3  F   UNL     1      44.862   7.117  11.154  0.00  0.00    +0.000 F 
ENDROOT
BRANCH   1   4
ATOM      4  C   UNL     1      44.937   4.733  10.949  0.00  0.00    +0.000 A 
ATOM      5  C   UNL     1      44.170   3.672  11.407  0.00  0.00    +0.000 A 
ATOM      6  N   UNL     1      43.845   2.600  10.653  0.00  0.00    +0.000 NA
ATOM      7  C   UNL     1      44.314   2.575   9.384  0.00  0.00    +0.000 A 
ATOM      8  C   UNL     1      45.095   3.578   8.820  0.00  0.00    +0.000 A 
ATOM      9  C   UNL     1      45.414   4.669   9.632  0.00  0.00    +0.000 A 
BRANCH   8  10
ATOM     10  C   UNL     1      45.561   3.501   7.392  0.00  0.00    +0.000 C 
BRANCH  10  11
ATOM     11  C   UNL     1      46.966   2.913   7.309  0.00  0.00    +0.000 C 
ATOM     12  C   UNL     1      47.479   2.720   5.869  0.00  0.00    +0.000 C 
ATOM     13  N   UNL     1      47.885   1.348   6.193  0.00  0.00    +0.000 NA
ATOM     14  C   UNL     1      47.140   1.388   7.458  0.00  0.00    +0.000 C 
ATOM     15  H   UNL     1      48.892   1.231   6.305  0.00  0.00    +0.000 HD
ENDBRANCH  10  11
ENDBRANCH   8  10
ENDBRANCH   1   4
BRANCH   1  16
ATOM     16  C   UNL     1      46.653   5.998  12.221  0.00  0.00    +0.000 C 
BRANCH  16  17
ATOM     17  N   UNL     1      46.888   6.497  13.585  0.00  0.00    +0.000 N 
ATOM     18  H   UNL     1      47.227   7.458  13.641  0.00  0.00    +0.000 HD
BRANCH  17  22
ATOM     19  C   UNL     1      48.404   4.071  16.687  0.00  0.00    +0.000 A 
ATOM     20  C   UNL     1      47.488   3.536  15.782  0.00  0.00    +0.000 A 
ATOM     21  C   UNL     1      46.996   4.324  14.737  0.00  0.00    +0.000 A 
ATOM     22  C   UNL     1      47.422   5.647  14.553  0.00  0.00    +0.000 A 
ATOM     23  C   UNL     1      48.325   6.174  15.486  0.00  0.00    +0.000 A 
ATOM     24  C   UNL     1      48.810   5.401  16.548  0.00  0.00    +0.000 A 
BRANCH  19  26
ATOM     25  N   UNL     1      48.271   3.393  19.021  0.00  0.00    +0.000 N 
ATOM     26  C   UNL     1      48.925   3.271  17.825  0.00  0.00    +0.000 C 
ATOM     27  O   UNL     1      49.877   2.514  17.701  0.00  0.00    +0.000 OA
ATOM     28  H   UNL     1      48.574   2.773  19.763  0.00  0.00    +0.000 HD
ATOM     29  H   UNL     1      47.354   3.804  19.100  0.00  0.00    +0.000 HD
ENDBRANCH  19  26
ENDBRANCH  17  22
ENDBRANCH  16  17
ENDBRANCH   1  16
TORSDOF 7
ENDMDL
MODEL 7
REMARK VINA RESULT:    -6.917      3.086      7.183
REMARK INTER + INTRA:         -10.775
REMARK INTER:                  -9.812
REMARK INTRA:                  -0.963
REMARK UNBOUND:                -1.027
REMARK  Name = 
REMARK  7 active torsions:
REMARK  status: ('A' for Active; 'I' for Inactive)
REMARK    1  A    between atoms: C_2  and  C_4
REMARK    2  A    between atoms: C_7  and  N_8
REMARK    3  A    between atoms: N_8  and  C_9
REMARK    4  A    between atoms: C_9  and  C_10
REMARK    5  A    between atoms: C_10  and  C_13
REMARK    6  A    between atoms: C_17  and  C_18
REMARK    7  A    between atoms: C_18  and  C_19
REMARK                            x       y       z     vdW  Elec       q    Type
REMARK                         _______ _______ _______ _____ _____    ______ ____
ROOT
ATOM      1  C   UNL     1      44.108   3.313  12.340  0.00  0.00    +0.000 C 
ATOM      2  F   UNL     1      43.548   2.117  12.685  0.00  0.00    +0.000 F 
ATOM      3  F   UNL     1      43.283   4.267  12.866  0.00  0.00    +0.000 F 
ENDROOT
BRANCH   1   4
ATOM      4  C   UNL     1      44.277   3.446  10.848  0.00  0.00    +0.000 A 
ATOM      5  C   UNL     1      43.741   4.525  10.162  0.00  0.00    +0.000 A 
ATOM      6  N   UNL     1      43.945   4.754   8.847  0.00  0.00    +0.000 NA
ATOM      7  C   UNL     1      44.711   3.862   8.178  0.00  0.00    +0.000 A 
ATOM      8  C   UNL     1      45.294   2.742   8.760  0.00  0.00    +0.000 A 
ATOM      9  C   UNL     1      45.057   2.536  10.121  0.00  0.00    +0.000 A 
BRANCH   8  10
ATOM     10  C   UNL     1      46.159   1.803   7.964  0.00  0.00    +0.000 C 
BRANCH  10  11
ATOM     11  C   UNL     1      47.177   2.576   7.132  0.00  0.00    +0.000 C 
ATOM     12  C   UNL     1      46.895   2.551   5.617  0.00  0.00    +0.000 C 
ATOM     13  N   UNL     1      48.291   2.181   5.359  0.00  0.00    +0.000 NA
ATOM     14  C   UNL     1      48.516   1.896   6.782  0.00  0.00    +0.000 C 
ATOM     15  H   UNL     1      48.859   2.943   4.991  0.00  0.00    +0.000 HD
ENDBRANCH  10  11
ENDBRANCH   8  10
ENDBRANCH   1   4
BRANCH   1  16
ATOM     16  C   UNL     1      45.496   3.444  13.011  0.00  0.00    +0.000 C 
BRANCH  16  17
ATOM     17  N   UNL     1      45.696   4.696  13.756  0.00  0.00    +0.000 N 
ATOM     18  H   UNL     1      44.888   5.014  14.292  0.00  0.00    +0.000 HD
BRANCH  17  22
ATOM     19  C   UNL     1      47.865   7.972  12.216  0.00  0.00    +0.000 A 
ATOM     20  C   UNL     1      48.552   6.896  12.778  0.00  0.00    +0.000 A 
ATOM     21  C   UNL     1      47.845   5.796  13.271  0.00  0.00    +0.000 A 
ATOM     22  C   UNL     1      46.446   5.728  13.192  0.00  0.00    +0.000 A 
ATOM     23  C   UNL     1      45.772   6.828  12.646  0.00  0.00    +0.000 A 
ATOM     24  C   UNL     1      46.469   7.944  12.166  0.00  0.00    +0.000 A 
BRANCH  19  26
ATOM     25  N   UNL     1      49.914   9.023  11.428  0.00  0.00    +0.000 N 
ATOM     26  C   UNL     1      48.583   9.170  11.709  0.00  0.00    +0.000 C 
ATOM     27  O   UNL     1      48.011  10.234  11.520  0.00  0.00    +0.000 OA
ATOM     28  H   UNL     1      50.370   9.817  10.993  0.00  0.00    +0.000 HD
ATOM     29  H   UNL     1      50.354   8.121  11.334  0.00  0.00    +0.000 HD
ENDBRANCH  19  26
ENDBRANCH  17  22
ENDBRANCH  16  17
ENDBRANCH   1  16
TORSDOF 7
ENDMDL
MODEL 8
REMARK VINA RESULT:    -6.864      3.438      7.596
REMARK INTER + INTRA:         -10.700
REMARK INTER:                 -10.092
REMARK INTRA:                  -0.608
REMARK UNBOUND:                -1.027
REMARK  Name = 
REMARK  7 active torsions:
REMARK  status: ('A' for Active; 'I' for Inactive)
REMARK    1  A    between atoms: C_2  and  C_4
REMARK    2  A    between atoms: C_7  and  N_8
REMARK    3  A    between atoms: N_8  and  C_9
REMARK    4  A    between atoms: C_9  and  C_10
REMARK    5  A    between atoms: C_10  and  C_13
REMARK    6  A    between atoms: C_17  and  C_18
REMARK    7  A    between atoms: C_18  and  C_19
REMARK                            x       y       z     vdW  Elec       q    Type
REMARK                         _______ _______ _______ _____ _____    ______ ____
ROOT
ATOM      1  C   UNL     1      44.409   5.717  11.443  0.00  0.00    +0.000 C 
ATOM      2  F   UNL     1      44.068   5.445  12.736  0.00  0.00    +0.000 F 
ATOM      3  F   UNL     1      43.452   6.579  10.986  0.00  0.00    +0.000 F 
ENDROOT
BRANCH   1   4
ATOM      4  C   UNL     1      44.510   4.464  10.612  0.00  0.00    +0.000 A 
ATOM      5  C   UNL     1      43.960   3.270  11.051  0.00  0.00    +0.000 A 
ATOM      6  N   UNL     1      43.927   2.141  10.309  0.00  0.00    +0.000 NA
ATOM      7  C   UNL     1      44.476   2.200   9.074  0.00  0.00    +0.000 A 
ATOM      8  C   UNL     1      45.059   3.340   8.532  0.00  0.00    +0.000 A 
ATOM      9  C   UNL     1      45.079   4.486   9.330  0.00  0.00    +0.000 A 
BRANCH   8  10
ATOM     10  C   UNL     1      45.627   3.345   7.139  0.00  0.00    +0.000 C 
BRANCH  10  11
ATOM     11  C   UNL     1      47.087   2.904   7.146  0.00  0.00    +0.000 C 
ATOM     12  C   UNL     1      47.748   2.909   5.754  0.00  0.00    +0.000 C 
ATOM     13  N   UNL     1      48.264   1.555   5.990  0.00  0.00    +0.000 NA
ATOM     14  C   UNL     1      47.405   1.395   7.170  0.00  0.00    +0.000 C 
ATOM     15  H   UNL     1      49.262   1.523   6.192  0.00  0.00    +0.000 HD
ENDBRANCH  10  11
ENDBRANCH   8  10
ENDBRANCH   1   4
BRANCH   1  16
ATOM     16  C   UNL     1      45.775   6.445  11.414  0.00  0.00    +0.000 C 
BRANCH  16  17
ATOM     17  N   UNL     1      46.472   6.482  12.708  0.00  0.00    +0.000 N 
ATOM     18  H   UNL     1      45.898   6.769  13.501  0.00  0.00    +0.000 HD
BRANCH  17  22
ATOM     19  C   UNL     1      50.389   8.048  12.839  0.00  0.00    +0.000 A 
ATOM     20  C   UNL     1      49.809   7.551  14.005  0.00  0.00    +0.000 A 
ATOM     21  C   UNL     1      48.520   7.010  13.969  0.00  0.00    +0.000 A 
ATOM     22  C   UNL     1      47.794   6.925  12.773  0.00  0.00    +0.000 A 
ATOM     23  C   UNL     1      48.384   7.450  11.616  0.00  0.00    +0.000 A 
ATOM     24  C   UNL     1      49.666   8.012  11.644  0.00  0.00    +0.000 A 
BRANCH  19  26
ATOM     25  N   UNL     1      52.727   7.992  12.162  0.00  0.00    +0.000 N 
ATOM     26  C   UNL     1      51.745   8.656  12.846  0.00  0.00    +0.000 C 
ATOM     27  O   UNL     1      51.974   9.715  13.411  0.00  0.00    +0.000 OA
ATOM     28  H   UNL     1      53.621   8.463  12.093  0.00  0.00    +0.000 HD
ATOM     29  H   UNL     1      52.526   7.266  11.492  0.00  0.00    +0.000 HD
ENDBRANCH  19  26
ENDBRANCH  17  22
ENDBRANCH  16  17
ENDBRANCH   1  16
TORSDOF 7
ENDMDL
MODEL 9
REMARK VINA RESULT:    -6.452      3.171      4.523
REMARK INTER + INTRA:         -10.119
REMARK INTER:                  -8.873
REMARK INTRA:                  -1.246
REMARK UNBOUND:                -1.027
REMARK  Name = 
REMARK  7 active torsions:
REMARK  status: ('A' for Active; 'I' for Inactive)
REMARK    1  A    between atoms: C_2  and  C_4
REMARK    2  A    between atoms: C_7  and  N_8
REMARK    3  A    between atoms: N_8  and  C_9
REMARK    4  A    between atoms: C_9  and  C_10
REMARK    5  A    between atoms: C_10  and  C_13
REMARK    6  A    between atoms: C_17  and  C_18
REMARK    7  A    between atoms: C_18  and  C_19
REMARK                            x       y       z     vdW  Elec       q    Type
REMARK                         _______ _______ _______ _____ _____    ______ ____
ROOT
ATOM      1  C   UNL     1      48.396   8.008  12.444  0.00  0.00    +0.000 C 
ATOM      2  F   UNL     1      48.350   6.775  11.862  0.00  0.00    +0.000 F 
ATOM      3  F   UNL     1      49.200   8.763  11.636  0.00  0.00    +0.000 F 
ENDROOT
BRANCH   1   4
ATOM      4  C   UNL     1      48.894   7.942  13.865  0.00  0.00    +0.000 A 
ATOM      5  C   UNL     1      49.302   9.087  14.532  0.00  0.00    +0.000 A 
ATOM      6  N   UNL     1      49.659   9.110  15.835  0.00  0.00    +0.000 NA
ATOM      7  C   UNL     1      49.617   7.935  16.504  0.00  0.00    +0.000 A 
ATOM      8  C   UNL     1      49.230   6.726  15.937  0.00  0.00    +0.000 A 
ATOM      9  C   UNL     1      48.872   6.741  14.587  0.00  0.00    +0.000 A 
BRANCH   8  10
ATOM     10  C   UNL     1      49.179   5.459  16.748  0.00  0.00    +0.000 C 
BRANCH  10  11
ATOM     11  C   UNL     1      47.831   4.765  16.588  0.00  0.00    +0.000 C 
ATOM     12  C   UNL     1      47.038   4.628  17.902  0.00  0.00    +0.000 C 
ATOM     13  N   UNL     1      46.801   3.208  17.616  0.00  0.00    +0.000 NA
ATOM     14  C   UNL     1      47.793   3.224  16.533  0.00  0.00    +0.000 C 
ATOM     15  H   UNL     1      45.851   3.001  17.310  0.00  0.00    +0.000 HD
ENDBRANCH  10  11
ENDBRANCH   8  10
ENDBRANCH   1   4
BRANCH   1  16
ATOM     16  C   UNL     1      46.979   8.631  12.441  0.00  0.00    +0.000 C 
BRANCH  16  17
ATOM     17  N   UNL     1      45.989   7.893  13.240  0.00  0.00    +0.000 N 
ATOM     18  H   UNL     1      46.150   7.905  14.247  0.00  0.00    +0.000 HD
BRANCH  17  22
ATOM     19  C   UNL     1      44.546   4.288  11.587  0.00  0.00    +0.000 A 
ATOM     20  C   UNL     1      45.290   4.254  12.766  0.00  0.00    +0.000 A 
ATOM     21  C   UNL     1      45.754   5.444  13.334  0.00  0.00    +0.000 A 
ATOM     22  C   UNL     1      45.467   6.691  12.761  0.00  0.00    +0.000 A 
ATOM     23  C   UNL     1      44.738   6.704  11.565  0.00  0.00    +0.000 A 
ATOM     24  C   UNL     1      44.284   5.518  10.976  0.00  0.00    +0.000 A 
BRANCH  19  26
ATOM     25  N   UNL     1      43.361   2.167  11.725  0.00  0.00    +0.000 N 
ATOM     26  C   UNL     1      44.061   3.042  10.940  0.00  0.00    +0.000 C 
ATOM     27  O   UNL     1      44.250   2.815   9.754  0.00  0.00    +0.000 OA
ATOM     28  H   UNL     1      42.955   1.368  11.253  0.00  0.00    +0.000 HD
ATOM     29  H   UNL     1      42.978   2.426  12.621  0.00  0.00    +0.000 HD
ENDBRANCH  19  26
ENDBRANCH  17  22
ENDBRANCH  16  17
ENDBRANCH   1  16
TORSDOF 7
ENDMDL
