MODEL 1
REMARK VINA RESULT:    -8.215      0.000      0.000
REMARK INTER + INTRA:         -11.451
REMARK INTER:                 -10.136
REMARK INTRA:                  -1.315
REMARK UNBOUND:                -1.315
REMARK  Name = 
REMARK  7 active torsions:
REMARK  status: ('A' for Active; 'I' for Inactive)
REMARK    1  A    between atoms: C_1  and  C_2
REMARK    2  A    between atoms: C_5  and  C_6
REMARK    3  A    between atoms: C_7  and  N_8
REMARK    4  A    between atoms: N_8  and  C_9
REMARK    5  A    between atoms: C_9  and  C_10
REMARK    6  A    between atoms: C_14  and  C_15
REMARK    7  A    between atoms: C_19  and  C_20
REMARK                            x       y       z     vdW  Elec       q    Type
REMARK                         _______ _______ _______ _____ _____    ______ ____
ROOT
ATOM      1  C   UNL     1      44.043   5.494  11.290  0.00  0.00    +0.000 A 
ATOM      2  C   UNL     1      43.285   4.604  12.063  0.00  0.00    +0.000 A 
ATOM      3  C   UNL     1      43.329   3.237  11.812  0.00  0.00    +0.000 A 
ATOM      4  C   UNL     1      44.102   2.751  10.756  0.00  0.00    +0.000 A 
ATOM      5  C   UNL     1      44.834   3.616   9.918  0.00  0.00    +0.000 A 
ATOM      6  C   UNL     1      44.807   4.990  10.224  0.00  0.00    +0.000 A 
ENDROOT
BRANCH   5   7
ATOM      7  C   UNL     1      45.571   3.108   8.740  0.00  0.00    +0.000 A 
ATOM      8  C   UNL     1      46.031   3.960   7.739  0.00  0.00    +0.000 A 
ATOM      9  C   UNL     1      46.749   3.434   6.670  0.00  0.00    +0.000 A 
ATOM     10  C   UNL     1      46.992   2.070   6.623  0.00  0.00    +0.000 A 
ATOM     11  C   UNL     1      46.513   1.270   7.655  0.00  0.00    +0.000 A 
ATOM     12  C   UNL     1      46.762  -0.208   7.648  0.00  0.00    +0.000 C 
ATOM     13  N   UNL     1      45.815   1.771   8.706  0.00  0.00    +0.000 NA
ENDBRANCH   5   7
BRANCH   1  14
ATOM     14  C   UNL     1      44.019   6.976  11.601  0.00  0.00    +0.000 C 
BRANCH  14  15
ATOM     15  N   UNL     1      44.902   7.266  12.719  0.00  0.00    +0.000 N 
ATOM     16  H   UNL     1      44.568   8.080  13.231  0.00  0.00    +0.000 HD
BRANCH  15  23
ATOM     17  C   UNL     1      48.786   9.997  11.466  0.00  0.00    +0.000 C 
ATOM     18  C   UNL     1      48.249   8.707  12.010  0.00  0.00    +0.000 A 
ATOM     19  C   UNL     1      49.111   7.699  12.424  0.00  0.00    +0.000 A 
ATOM     20  C   UNL     1      48.590   6.510  12.926  0.00  0.00    +0.000 A 
ATOM     21  C   UNL     1      47.198   6.289  13.026  0.00  0.00    +0.000 A 
ATOM     22  C   UNL     1      46.787   4.974  13.628  0.00  0.00    +0.000 C 
ATOM     23  C   UNL     1      46.301   7.287  12.590  0.00  0.00    +0.000 A 
ATOM     24  C   UNL     1      46.864   8.495  12.111  0.00  0.00    +0.000 A 
ENDBRANCH  15  23
ENDBRANCH  14  15
ENDBRANCH   1  14
TORSDOF 4
ENDMDL
MODEL 2
REMARK VINA RESULT:    -7.715      0.854      1.879
REMARK INTER + INTRA:         -10.834
REMARK INTER:                  -9.981
REMARK INTRA:                  -0.853
REMARK UNBOUND:                -1.315
REMARK  Name = 
REMARK  7 active torsions:
REMARK  status: ('A' for Active; 'I' for Inactive)
REMARK    1  A    between atoms: C_1  and  C_2
REMARK    2  A    between atoms: C_5  and  C_6
REMARK    3  A    between atoms: C_7  and  N_8
REMARK    4  A    between atoms: N_8  and  C_9
REMARK    5  A    between atoms: C_9  and  C_10
REMARK    6  A    between atoms: C_14  and  C_15
REMARK    7  A    between atoms: C_19  and  C_20
REMARK                            x       y       z     vdW  Elec       q    Type
REMARK                         _______ _______ _______ _____ _____    ______ ____
ROOT
ATOM      1  C   UNL     1      43.846   5.316  11.139  0.00  0.00    +0.000 A 
ATOM      2  C   UNL     1      43.155   4.405  11.948  0.00  0.00    +0.000 A 
ATOM      3  C   UNL     1      43.303   3.036  11.756  0.00  0.00    +0.000 A 
ATOM      4  C   UNL     1      44.116   2.565  10.723  0.00  0.00    +0.000 A 
ATOM      5  C   UNL     1      44.784   3.447   9.850  0.00  0.00    +0.000 A 
ATOM      6  C   UNL     1      44.651   4.827  10.097  0.00  0.00    +0.000 A 
ENDROOT
BRANCH   5   7
ATOM      7  C   UNL     1      45.562   2.947   8.696  0.00  0.00    +0.000 A 
ATOM      8  C   UNL     1      46.061   3.806   7.719  0.00  0.00    +0.000 A 
ATOM      9  C   UNL     1      46.817   3.287   6.673  0.00  0.00    +0.000 A 
ATOM     10  C   UNL     1      47.059   1.923   6.624  0.00  0.00    +0.000 A 
ATOM     11  C   UNL     1      46.540   1.116   7.631  0.00  0.00    +0.000 A 
ATOM     12  C   UNL     1      46.786  -0.363   7.621  0.00  0.00    +0.000 C 
ATOM     13  N   UNL     1      45.805   1.610   8.660  0.00  0.00    +0.000 NA
ENDBRANCH   5   7
BRANCH   1  14
ATOM     14  C   UNL     1      43.708   6.803  11.386  0.00  0.00    +0.000 C 
BRANCH  14  15
ATOM     15  N   UNL     1      44.495   7.193  12.546  0.00  0.00    +0.000 N 
ATOM     16  H   UNL     1      43.885   7.525  13.290  0.00  0.00    +0.000 HD
BRANCH  15  23
ATOM     17  C   UNL     1      49.403   7.155  12.407  0.00  0.00    +0.000 C 
ATOM     18  C   UNL     1      48.125   7.933  12.313  0.00  0.00    +0.000 A 
ATOM     19  C   UNL     1      48.143   9.297  12.047  0.00  0.00    +0.000 A 
ATOM     20  C   UNL     1      46.944   9.998  11.963  0.00  0.00    +0.000 A 
ATOM     21  C   UNL     1      45.694   9.365  12.147  0.00  0.00    +0.000 A 
ATOM     22  C   UNL     1      44.486  10.244  11.983  0.00  0.00    +0.000 C 
ATOM     23  C   UNL     1      45.649   7.986  12.442  0.00  0.00    +0.000 A 
ATOM     24  C   UNL     1      46.886   7.297  12.492  0.00  0.00    +0.000 A 
ENDBRANCH  15  23
ENDBRANCH  14  15
ENDBRANCH   1  14
TORSDOF 4
ENDMDL
MODEL 3
REMARK VINA RESULT:    -7.636      2.379      6.984
REMARK INTER + INTRA:         -10.737
REMARK INTER:                 -10.020
REMARK INTRA:                  -0.717
REMARK UNBOUND:                -1.315
REMARK  Name = 
REMARK  7 active torsions:
REMARK  status: ('A' for Active; 'I' for Inactive)
REMARK    1  A    between atoms: C_1  and  C_2
REMARK    2  A    between atoms: C_5  and  C_6
REMARK    3  A    between atoms: C_7  and  N_8
REMARK    4  A    between atoms: N_8  and  C_9
REMARK    5  A    between atoms: C_9  and  C_10
REMARK    6  A    between atoms: C_14  and  C_15
REMARK    7  A    between atoms: C_19  and  C_20
REMARK                            x       y       z     vdW  Elec       q    Type
REMARK                         _______ _______ _______ _____ _____    ______ ____
ROOT
ATOM      1  C   UNL     1      45.306   5.952  12.152  0.00  0.00    +0.000 A 
ATOM      2  C   UNL     1      46.140   6.781  11.391  0.00  0.00    +0.000 A 
ATOM      3  C   UNL     1      47.464   6.986  11.765  0.00  0.00    +0.000 A 
ATOM      4  C   UNL     1      47.954   6.393  12.930  0.00  0.00    +0.000 A 
ATOM      5  C   UNL     1      47.134   5.598  13.755  0.00  0.00    +0.000 A 
ATOM      6  C   UNL     1      45.811   5.372  13.328  0.00  0.00    +0.000 A 
ENDROOT
BRANCH   5   7
ATOM      7  C   UNL     1      47.627   5.055  15.039  0.00  0.00    +0.000 A 
ATOM      8  C   UNL     1      47.161   3.847  15.553  0.00  0.00    +0.000 A 
ATOM      9  C   UNL     1      47.684   3.364  16.748  0.00  0.00    +0.000 A 
ATOM     10  C   UNL     1      48.661   4.098  17.405  0.00  0.00    +0.000 A 
ATOM     11  C   UNL     1      49.089   5.294  16.841  0.00  0.00    +0.000 A 
ATOM     12  C   UNL     1      50.150   6.113  17.514  0.00  0.00    +0.000 C 
ATOM     13  N   UNL     1      48.591   5.774  15.673  0.00  0.00    +0.000 NA
ENDBRANCH   5   7
BRANCH   1  14
ATOM     14  C   UNL     1      43.879   5.705  11.711  0.00  0.00    +0.000 C 
BRANCH  14  15
ATOM     15  N   UNL     1      43.835   5.456  10.278  0.00  0.00    +0.000 N 
ATOM     16  H   UNL     1      42.922   5.707   9.904  0.00  0.00    +0.000 HD
BRANCH  15  23
ATOM     17  C   UNL     1      46.649   3.531   6.744  0.00  0.00    +0.000 C 
ATOM     18  C   UNL     1      45.784   3.320   7.950  0.00  0.00    +0.000 A 
ATOM     19  C   UNL     1      45.587   2.045   8.466  0.00  0.00    +0.000 A 
ATOM     20  C   UNL     1      44.781   1.873   9.588  0.00  0.00    +0.000 A 
ATOM     21  C   UNL     1      44.144   2.962  10.224  0.00  0.00    +0.000 A 
ATOM     22  C   UNL     1      43.342   2.625  11.449  0.00  0.00    +0.000 C 
ATOM     23  C   UNL     1      44.308   4.264   9.705  0.00  0.00    +0.000 A 
ATOM     24  C   UNL     1      45.158   4.407   8.581  0.00  0.00    +0.000 A 
ENDBRANCH  15  23
ENDBRANCH  14  15
ENDBRANCH   1  14
TORSDOF 4
ENDMDL
MODEL 4
REMARK VINA RESULT:    -7.554      2.160      6.761
REMARK INTER + INTRA:         -10.636
REMARK INTER:                  -9.713
REMARK INTRA:                  -0.923
REMARK UNBOUND:                -1.315
REMARK  Name = 
REMARK  7 active torsions:
REMARK  status: ('A' for Active; 'I' for Inactive)
REMARK    1  A    between atoms: C_1  and  C_2
REMARK    2  A    between atoms: C_5  and  C_6
REMARK    3  A    between atoms: C_7  and  N_8
REMARK    4  A    between atoms: N_8  and  C_9
REMARK    5  A    between atoms: C_9  and  C_10
REMARK    6  A    between atoms: C_14  and  C_15
REMARK    7  A    between atoms: C_19  and  C_20
REMARK                            x       y       z     vdW  Elec       q    Type
REMARK                         _______ _______ _______ _____ _____    ______ ____
ROOT
ATOM      1  C   UNL     1      45.185   5.193  10.684  0.00  0.00    +0.000 A 
ATOM      2  C   UNL     1      43.865   4.812  10.961  0.00  0.00    +0.000 A 
ATOM      3  C   UNL     1      43.445   4.622  12.273  0.00  0.00    +0.000 A 
ATOM      4  C   UNL     1      44.357   4.774  13.321  0.00  0.00    +0.000 A 
ATOM      5  C   UNL     1      45.706   5.101  13.083  0.00  0.00    +0.000 A 
ATOM      6  C   UNL     1      46.092   5.331  11.748  0.00  0.00    +0.000 A 
ENDROOT
BRANCH   5   7
ATOM      7  C   UNL     1      46.691   5.161  14.184  0.00  0.00    +0.000 A 
ATOM      8  C   UNL     1      47.675   6.146  14.238  0.00  0.00    +0.000 A 
ATOM      9  C   UNL     1      48.553   6.178  15.316  0.00  0.00    +0.000 A 
ATOM     10  C   UNL     1      48.432   5.226  16.316  0.00  0.00    +0.000 A 
ATOM     11  C   UNL     1      47.428   4.270  16.211  0.00  0.00    +0.000 A 
ATOM     12  C   UNL     1      47.257   3.229  17.276  0.00  0.00    +0.000 C 
ATOM     13  N   UNL     1      46.561   4.231  15.167  0.00  0.00    +0.000 NA
ENDBRANCH   5   7
BRANCH   1  14
ATOM     14  C   UNL     1      45.617   5.437   9.253  0.00  0.00    +0.000 C 
BRANCH  14  15
ATOM     15  N   UNL     1      44.950   4.499   8.363  0.00  0.00    +0.000 N 
ATOM     16  H   UNL     1      43.995   4.336   8.673  0.00  0.00    +0.000 HD
BRANCH  15  23
ATOM     17  C   UNL     1      48.173   2.522   5.229  0.00  0.00    +0.000 C 
ATOM     18  C   UNL     1      47.233   2.342   6.383  0.00  0.00    +0.000 A 
ATOM     19  C   UNL     1      47.091   1.103   6.995  0.00  0.00    +0.000 A 
ATOM     20  C   UNL     1      46.214   0.960   8.066  0.00  0.00    +0.000 A 
ATOM     21  C   UNL     1      45.448   2.043   8.554  0.00  0.00    +0.000 A 
ATOM     22  C   UNL     1      44.578   1.745   9.743  0.00  0.00    +0.000 C 
ATOM     23  C   UNL     1      45.556   3.306   7.935  0.00  0.00    +0.000 A 
ATOM     24  C   UNL     1      46.479   3.424   6.867  0.00  0.00    +0.000 A 
ENDBRANCH  15  23
ENDBRANCH  14  15
ENDBRANCH   1  14
TORSDOF 4
ENDMDL
MODEL 5
REMARK VINA RESULT:    -7.241      1.558      6.543
REMARK INTER + INTRA:         -10.250
REMARK INTER:                  -9.508
REMARK INTRA:                  -0.742
REMARK UNBOUND:                -1.315
REMARK  Name = 
REMARK  7 active torsions:
REMARK  status: ('A' for Active; 'I' for Inactive)
REMARK    1  A    between atoms: C_1  and  C_2
REMARK    2  A    between atoms: C_5  and  C_6
REMARK    3  A    between atoms: C_7  and  N_8
REMARK    4  A    between atoms: N_8  and  C_9
REMARK    5  A    between atoms: C_9  and  C_10
REMARK    6  A    between atoms: C_14  and  C_15
REMARK    7  A    between atoms: C_19  and  C_20
REMARK                            x       y       z     vdW  Elec       q    Type
REMARK                         _______ _______ _______ _____ _____    ______ ____
ROOT
ATOM      1  C   UNL     1      45.199   5.726  12.370  0.00  0.00    +0.000 A 
ATOM      2  C   UNL     1      45.617   4.750  13.285  0.00  0.00    +0.000 A 
ATOM      3  C   UNL     1      46.874   4.826  13.875  0.00  0.00    +0.000 A 
ATOM      4  C   UNL     1      47.743   5.861  13.523  0.00  0.00    +0.000 A 
ATOM      5  C   UNL     1      47.385   6.831  12.565  0.00  0.00    +0.000 A 
ATOM      6  C   UNL     1      46.089   6.755  12.018  0.00  0.00    +0.000 A 
ENDROOT
BRANCH   5   7
ATOM      7  C   UNL     1      48.343   7.866  12.120  0.00  0.00    +0.000 A 
ATOM      8  C   UNL     1      49.691   7.578  11.913  0.00  0.00    +0.000 A 
ATOM      9  C   UNL     1      50.542   8.581  11.460  0.00  0.00    +0.000 A 
ATOM     10  C   UNL     1      50.031   9.848  11.223  0.00  0.00    +0.000 A 
ATOM     11  C   UNL     1      48.677  10.073  11.444  0.00  0.00    +0.000 A 
ATOM     12  C   UNL     1      48.082  11.427  11.192  0.00  0.00    +0.000 C 
ATOM     13  N   UNL     1      47.834   9.103  11.881  0.00  0.00    +0.000 NA
ENDBRANCH   5   7
BRANCH   1  14
ATOM     14  C   UNL     1      43.812   5.654  11.768  0.00  0.00    +0.000 C 
BRANCH  14  15
ATOM     15  N   UNL     1      43.902   5.489  10.325  0.00  0.00    +0.000 N 
ATOM     16  H   UNL     1      43.051   5.823   9.878  0.00  0.00    +0.000 HD
BRANCH  15  23
ATOM     17  C   UNL     1      46.730   3.588   6.789  0.00  0.00    +0.000 C 
ATOM     18  C   UNL     1      45.839   3.367   7.974  0.00  0.00    +0.000 A 
ATOM     19  C   UNL     1      45.602   2.085   8.453  0.00  0.00    +0.000 A 
ATOM     20  C   UNL     1      44.773   1.903   9.556  0.00  0.00    +0.000 A 
ATOM     21  C   UNL     1      44.151   2.991  10.210  0.00  0.00    +0.000 A 
ATOM     22  C   UNL     1      43.319   2.642  11.412  0.00  0.00    +0.000 C 
ATOM     23  C   UNL     1      44.356   4.301   9.729  0.00  0.00    +0.000 A 
ATOM     24  C   UNL     1      45.228   4.453   8.623  0.00  0.00    +0.000 A 
ENDBRANCH  15  23
ENDBRANCH  14  15
ENDBRANCH   1  14
TORSDOF 4
ENDMDL
MODEL 6
REMARK VINA RESULT:    -6.908      2.094      6.884
REMARK INTER + INTRA:          -9.839
REMARK INTER:                  -9.010
REMARK INTRA:                  -0.829
REMARK UNBOUND:                -1.315
REMARK  Name = 
REMARK  7 active torsions:
REMARK  status: ('A' for Active; 'I' for Inactive)
REMARK    1  A    between atoms: C_1  and  C_2
REMARK    2  A    between atoms: C_5  and  C_6
REMARK    3  A    between atoms: C_7  and  N_8
REMARK    4  A    between atoms: N_8  and  C_9
REMARK    5  A    between atoms: C_9  and  C_10
REMARK    6  A    between atoms: C_14  and  C_15
REMARK    7  A    between atoms: C_19  and  C_20
REMARK                            x       y       z     vdW  Elec       q    Type
REMARK                         _______ _______ _______ _____ _____    ______ ____
ROOT
ATOM      1  C   UNL     1      45.900   6.152  11.968  0.00  0.00    +0.000 A 
ATOM      2  C   UNL     1      45.510   5.123  12.836  0.00  0.00    +0.000 A 
ATOM      3  C   UNL     1      46.283   4.805  13.947  0.00  0.00    +0.000 A 
ATOM      4  C   UNL     1      47.478   5.490  14.179  0.00  0.00    +0.000 A 
ATOM      5  C   UNL     1      47.936   6.492  13.301  0.00  0.00    +0.000 A 
ATOM      6  C   UNL     1      47.110   6.824  12.209  0.00  0.00    +0.000 A 
ENDROOT
BRANCH   5   7
ATOM      7  C   UNL     1      49.249   7.144  13.493  0.00  0.00    +0.000 A 
ATOM      8  C   UNL     1      49.852   7.893  12.484  0.00  0.00    +0.000 A 
ATOM      9  C   UNL     1      51.072   8.514  12.730  0.00  0.00    +0.000 A 
ATOM     10  C   UNL     1      51.664   8.376  13.976  0.00  0.00    +0.000 A 
ATOM     11  C   UNL     1      51.012   7.621  14.945  0.00  0.00    +0.000 A 
ATOM     12  C   UNL     1      51.613   7.453  16.309  0.00  0.00    +0.000 C 
ATOM     13  N   UNL     1      49.819   7.013  14.720  0.00  0.00    +0.000 NA
ENDBRANCH   5   7
BRANCH   1  14
ATOM     14  C   UNL     1      45.028   6.516  10.786  0.00  0.00    +0.000 C 
BRANCH  14  15
ATOM     15  N   UNL     1      44.083   5.444  10.513  0.00  0.00    +0.000 N 
ATOM     16  H   UNL     1      43.546   5.226  11.349  0.00  0.00    +0.000 HD
BRANCH  15  23
ATOM     17  C   UNL     1      46.678   3.630   6.759  0.00  0.00    +0.000 C 
ATOM     18  C   UNL     1      45.815   3.379   7.960  0.00  0.00    +0.000 A 
ATOM     19  C   UNL     1      45.519   2.083   8.362  0.00  0.00    +0.000 A 
ATOM     20  C   UNL     1      44.717   1.874   9.480  0.00  0.00    +0.000 A 
ATOM     21  C   UNL     1      44.182   2.949  10.226  0.00  0.00    +0.000 A 
ATOM     22  C   UNL     1      43.371   2.567  11.432  0.00  0.00    +0.000 C 
ATOM     23  C   UNL     1      44.447   4.275   9.824  0.00  0.00    +0.000 A 
ATOM     24  C   UNL     1      45.290   4.452   8.699  0.00  0.00    +0.000 A 
ENDBRANCH  15  23
ENDBRANCH  14  15
ENDBRANCH   1  14
TORSDOF 4
ENDMDL
MODEL 7
REMARK VINA RESULT:    -6.392      2.790      4.875
REMARK INTER + INTRA:          -9.202
REMARK INTER:                  -8.487
REMARK INTRA:                  -0.716
REMARK UNBOUND:                -1.315
REMARK  Name = 
REMARK  7 active torsions:
REMARK  status: ('A' for Active; 'I' for Inactive)
REMARK    1  A    between atoms: C_1  and  C_2
REMARK    2  A    between atoms: C_5  and  C_6
REMARK    3  A    between atoms: C_7  and  N_8
REMARK    4  A    between atoms: N_8  and  C_9
REMARK    5  A    between atoms: C_9  and  C_10
REMARK    6  A    between atoms: C_14  and  C_15
REMARK    7  A    between atoms: C_19  and  C_20
REMARK                            x       y       z     vdW  Elec       q    Type
REMARK                         _______ _______ _______ _____ _____    ______ ____
ROOT
ATOM      1  C   UNL     1      47.248   7.116  12.961  0.00  0.00    +0.000 A 
ATOM      2  C   UNL     1      46.463   8.276  12.909  0.00  0.00    +0.000 A 
ATOM      3  C   UNL     1      45.247   8.276  12.233  0.00  0.00    +0.000 A 
ATOM      4  C   UNL     1      44.825   7.123  11.567  0.00  0.00    +0.000 A 
ATOM      5  C   UNL     1      45.610   5.954  11.546  0.00  0.00    +0.000 A 
ATOM      6  C   UNL     1      46.815   5.968  12.276  0.00  0.00    +0.000 A 
ENDROOT
BRANCH   5   7
ATOM      7  C   UNL     1      45.209   4.769  10.756  0.00  0.00    +0.000 A 
ATOM      8  C   UNL     1      44.355   3.797  11.272  0.00  0.00    +0.000 A 
ATOM      9  C   UNL     1      43.981   2.721  10.474  0.00  0.00    +0.000 A 
ATOM     10  C   UNL     1      44.467   2.639   9.178  0.00  0.00    +0.000 A 
ATOM     11  C   UNL     1      45.312   3.642   8.716  0.00  0.00    +0.000 A 
ATOM     12  C   UNL     1      45.852   3.595   7.318  0.00  0.00    +0.000 C 
ATOM     13  N   UNL     1      45.680   4.700   9.483  0.00  0.00    +0.000 NA
ENDBRANCH   5   7
BRANCH   1  14
ATOM     14  C   UNL     1      48.549   7.118  13.735  0.00  0.00    +0.000 C 
BRANCH  14  15
ATOM     15  N   UNL     1      48.280   7.162  15.164  0.00  0.00    +0.000 N 
ATOM     16  H   UNL     1      48.406   8.108  15.518  0.00  0.00    +0.000 HD
BRANCH  15  23
ATOM     17  C   UNL     1      47.430   2.895  17.442  0.00  0.00    +0.000 C 
ATOM     18  C   UNL     1      48.370   4.025  17.148  0.00  0.00    +0.000 A 
ATOM     19  C   UNL     1      49.660   4.026  17.664  0.00  0.00    +0.000 A 
ATOM     20  C   UNL     1      50.516   5.085  17.377  0.00  0.00    +0.000 A 
ATOM     21  C   UNL     1      50.112   6.176  16.575  0.00  0.00    +0.000 A 
ATOM     22  C   UNL     1      51.160   7.222  16.318  0.00  0.00    +0.000 C 
ATOM     23  C   UNL     1      48.799   6.212  16.059  0.00  0.00    +0.000 A 
ATOM     24  C   UNL     1      47.963   5.104  16.346  0.00  0.00    +0.000 A 
ENDBRANCH  15  23
ENDBRANCH  14  15
ENDBRANCH   1  14
TORSDOF 4
ENDMDL
MODEL 8
REMARK VINA RESULT:    -6.147      3.325      5.882
REMARK INTER + INTRA:          -8.900
REMARK INTER:                  -7.983
REMARK INTRA:                  -0.917
REMARK UNBOUND:                -1.315
REMARK  Name = 
REMARK  7 active torsions:
REMARK  status: ('A' for Active; 'I' for Inactive)
REMARK    1  A    between atoms: C_1  and  C_2
REMARK    2  A    between atoms: C_5  and  C_6
REMARK    3  A    between atoms: C_7  and  N_8
REMARK    4  A    between atoms: N_8  and  C_9
REMARK    5  A    between atoms: C_9  and  C_10
REMARK    6  A    between atoms: C_14  and  C_15
REMARK    7  A    between atoms: C_19  and  C_20
REMARK                            x       y       z     vdW  Elec       q    Type
REMARK                         _______ _______ _______ _____ _____    ______ ____
ROOT
ATOM      1  C   UNL     1      48.428   7.423  14.080  0.00  0.00    +0.000 A 
ATOM      2  C   UNL     1      49.282   7.872  13.064  0.00  0.00    +0.000 A 
ATOM      3  C   UNL     1      48.920   7.741  11.727  0.00  0.00    +0.000 A 
ATOM      4  C   UNL     1      47.715   7.120  11.393  0.00  0.00    +0.000 A 
ATOM      5  C   UNL     1      46.853   6.603  12.381  0.00  0.00    +0.000 A 
ATOM      6  C   UNL     1      47.224   6.790  13.727  0.00  0.00    +0.000 A 
ENDROOT
BRANCH   5   7
ATOM      7  C   UNL     1      45.628   5.857  12.022  0.00  0.00    +0.000 A 
ATOM      8  C   UNL     1      44.566   5.716  12.913  0.00  0.00    +0.000 A 
ATOM      9  C   UNL     1      43.422   5.034  12.511  0.00  0.00    +0.000 A 
ATOM     10  C   UNL     1      43.362   4.508  11.229  0.00  0.00    +0.000 A 
ATOM     11  C   UNL     1      44.451   4.685  10.383  0.00  0.00    +0.000 A 
ATOM     12  C   UNL     1      44.424   4.140   8.987  0.00  0.00    +0.000 C 
ATOM     13  N   UNL     1      45.572   5.352  10.761  0.00  0.00    +0.000 NA
ENDBRANCH   5   7
BRANCH   1  14
ATOM     14  C   UNL     1      48.815   7.610  15.531  0.00  0.00    +0.000 C 
BRANCH  14  15
ATOM     15  N   UNL     1      48.266   6.532  16.338  0.00  0.00    +0.000 N 
ATOM     16  H   UNL     1      47.737   6.911  17.121  0.00  0.00    +0.000 HD
BRANCH  15  23
ATOM     17  C   UNL     1      52.750   4.978  17.603  0.00  0.00    +0.000 C 
ATOM     18  C   UNL     1      51.292   4.676  17.427  0.00  0.00    +0.000 A 
ATOM     19  C   UNL     1      50.786   3.420  17.737  0.00  0.00    +0.000 A 
ATOM     20  C   UNL     1      49.428   3.162  17.567  0.00  0.00    +0.000 A 
ATOM     21  C   UNL     1      48.538   4.145  17.078  0.00  0.00    +0.000 A 
ATOM     22  C   UNL     1      47.095   3.733  16.989  0.00  0.00    +0.000 C 
ATOM     23  C   UNL     1      49.030   5.421  16.733  0.00  0.00    +0.000 A 
ATOM     24  C   UNL     1      50.411   5.659  16.945  0.00  0.00    +0.000 A 
ENDBRANCH  15  23
ENDBRANCH  14  15
ENDBRANCH   1  14
TORSDOF 4
ENDMDL
MODEL 9
REMARK VINA RESULT:    -5.916      3.814      6.127
REMARK INTER + INTRA:          -8.614
REMARK INTER:                  -7.909
REMARK INTRA:                  -0.705
REMARK UNBOUND:                -1.315
REMARK  Name = 
REMARK  7 active torsions:
REMARK  status: ('A' for Active; 'I' for Inactive)
REMARK    1  A    between atoms: C_1  and  C_2
REMARK    2  A    between atoms: C_5  and  C_6
REMARK    3  A    between atoms: C_7  and  N_8
REMARK    4  A    between atoms: N_8  and  C_9
REMARK    5  A    between atoms: C_9  and  C_10
REMARK    6  A    between atoms: C_14  and  C_15
REMARK    7  A    between atoms: C_19  and  C_20
REMARK                            x       y       z     vdW  Elec       q    Type
REMARK                         _______ _______ _______ _____ _____    ______ ____
ROOT
ATOM      1  C   UNL     1      48.427   6.780  14.080  0.00  0.00    +0.000 A 
ATOM      2  C   UNL     1      49.160   7.532  13.152  0.00  0.00    +0.000 A 
ATOM      3  C   UNL     1      48.684   7.714  11.858  0.00  0.00    +0.000 A 
ATOM      4  C   UNL     1      47.486   7.110  11.469  0.00  0.00    +0.000 A 
ATOM      5  C   UNL     1      46.747   6.300  12.353  0.00  0.00    +0.000 A 
ATOM      6  C   UNL     1      47.230   6.170  13.670  0.00  0.00    +0.000 A 
ENDROOT
BRANCH   5   7
ATOM      7  C   UNL     1      45.534   5.580  11.909  0.00  0.00    +0.000 A 
ATOM      8  C   UNL     1      44.441   5.392  12.752  0.00  0.00    +0.000 A 
ATOM      9  C   UNL     1      43.311   4.738  12.272  0.00  0.00    +0.000 A 
ATOM     10  C   UNL     1      43.296   4.287  10.961  0.00  0.00    +0.000 A 
ATOM     11  C   UNL     1      44.415   4.508  10.165  0.00  0.00    +0.000 A 
ATOM     12  C   UNL     1      44.436   4.044   8.739  0.00  0.00    +0.000 C 
ATOM     13  N   UNL     1      45.522   5.149  10.620  0.00  0.00    +0.000 NA
ENDBRANCH   5   7
BRANCH   1  14
ATOM     14  C   UNL     1      48.937   6.625  15.498  0.00  0.00    +0.000 C 
BRANCH  14  15
ATOM     15  N   UNL     1      47.975   5.879  16.296  0.00  0.00    +0.000 N 
ATOM     16  H   UNL     1      47.065   6.333  16.265  0.00  0.00    +0.000 HD
BRANCH  15  23
ATOM     17  C   UNL     1      48.274   7.105  21.041  0.00  0.00    +0.000 C 
ATOM     18  C   UNL     1      48.352   6.044  19.985  0.00  0.00    +0.000 A 
ATOM     19  C   UNL     1      48.596   4.720  20.327  0.00  0.00    +0.000 A 
ATOM     20  C   UNL     1      48.663   3.751  19.330  0.00  0.00    +0.000 A 
ATOM     21  C   UNL     1      48.494   4.073  17.964  0.00  0.00    +0.000 A 
ATOM     22  C   UNL     1      48.549   2.915  17.009  0.00  0.00    +0.000 C 
ATOM     23  C   UNL     1      48.268   5.414  17.588  0.00  0.00    +0.000 A 
ATOM     24  C   UNL     1      48.178   6.370  18.630  0.00  0.00    +0.000 A 
ENDBRANCH  15  23
ENDBRANCH  14  15
ENDBRANCH   1  14
TORSDOF 4
ENDMDL
