MODEL 1
REMARK VINA RESULT:    -8.142      0.000      0.000
REMARK INTER + INTRA:         -10.971
REMARK INTER:                 -10.522
REMARK INTRA:                  -0.448
REMARK UNBOUND:                -0.448
REMARK  Name = 
REMARK  6 active torsions:
REMARK  status: ('A' for Active; 'I' for Inactive)
REMARK    1  A    between atoms: N_1  and  C_2
REMARK    2  A    between atoms: C_2  and  C_3
REMARK    3  A    between atoms: C_6  and  C_7
REMARK    4  A    between atoms: C_7  and  C_8
REMARK    5  A    between atoms: C_13  and  C_14
REMARK    6  A    between atoms: C_14  and  O_16
REMARK                            x       y       z     vdW  Elec       q    Type
REMARK                         _______ _______ _______ _____ _____    ______ ____
ROOT
ATOM      1  C   UNL     1      44.900   3.699  11.553  0.00  0.00    +0.000 A 
ATOM      2  N   UNL     1      45.354   2.918  12.518  0.00  0.00    +0.000 NA
ATOM      3  N   UNL     1      46.052   3.695  13.412  0.00  0.00    +0.000 NA
ATOM      4  C   UNL     1      46.009   4.936  12.982  0.00  0.00    +0.000 A 
ATOM      5  C   UNL     1      46.610   6.134  13.464  0.00  0.00    +0.000 A 
ATOM      6  C   UNL     1      46.365   7.311  12.842  0.00  0.00    +0.000 A 
ATOM      7  C   UNL     1      45.475   7.344  11.669  0.00  0.00    +0.000 A 
ATOM      8  C   UNL     1      44.957   6.203  11.183  0.00  0.00    +0.000 A 
ATOM      9  N   UNL     1      45.240   5.004  11.830  0.00  0.00    +0.000 N 
ENDROOT
BRANCH   6  10
ATOM     10  C   UNL     1      47.043   8.585  13.238  0.00  0.00    +0.000 C 
ATOM     11  O   UNL     1      47.588   9.317  12.426  0.00  0.00    +0.000 OA
BRANCH  10  12
ATOM     12  O   UNL     1      47.004   8.887  14.550  0.00  0.00    +0.000 OA
ATOM     13  H   UNL     1      46.421   9.617  14.818  0.00  0.00    +0.000 HD
ENDBRANCH  10  12
ENDBRANCH   6  10
BRANCH   1  14
ATOM     14  C   UNL     1      44.170   3.255  10.336  0.00  0.00    +0.000 C 
BRANCH  14  18
ATOM     15  C   UNL     1      46.608   2.750   6.855  0.00  0.00    +0.000 A 
ATOM     16  C   UNL     1      46.359   1.648   7.673  0.00  0.00    +0.000 A 
ATOM     17  C   UNL     1      45.581   1.798   8.821  0.00  0.00    +0.000 A 
ATOM     18  C   UNL     1      45.069   3.056   9.135  0.00  0.00    +0.000 A 
ATOM     19  N   UNL     1      45.313   4.147   8.368  0.00  0.00    +0.000 NA
ATOM     20  C   UNL     1      46.066   3.968   7.254  0.00  0.00    +0.000 A 
BRANCH  15  21
ATOM     21  C   UNL     1      47.394   2.632   5.581  0.00  0.00    +0.000 C 
BRANCH  21  22
ATOM     22  N   UNL     1      48.557   1.769   5.738  0.00  0.00    +0.000 NA
ATOM     23  H   UNL     1      49.159   2.146   6.467  0.00  0.00    +0.000 HD
ATOM     24  H   UNL     1      49.105   1.790   4.878  0.00  0.00    +0.000 HD
ENDBRANCH  21  22
ENDBRANCH  15  21
ENDBRANCH  14  18
ENDBRANCH   1  14
TORSDOF 6
ENDMDL
MODEL 2
REMARK VINA RESULT:    -7.696      2.108      3.052
REMARK INTER + INTRA:         -10.394
REMARK INTER:                  -9.996
REMARK INTRA:                  -0.398
REMARK UNBOUND:                -0.448
REMARK  Name = 
REMARK  6 active torsions:
REMARK  status: ('A' for Active; 'I' for Inactive)
REMARK    1  A    between atoms: N_1  and  C_2
REMARK    2  A    between atoms: C_2  and  C_3
REMARK    3  A    between atoms: C_6  and  C_7
REMARK    4  A    between atoms: C_7  and  C_8
REMARK    5  A    between atoms: C_13  and  C_14
REMARK    6  A    between atoms: C_14  and  O_16
REMARK                            x       y       z     vdW  Elec       q    Type
REMARK                         _______ _______ _______ _____ _____    ______ ____
ROOT
ATOM      1  C   UNL     1      44.534   5.154  11.087  0.00  0.00    +0.000 A 
ATOM      2  N   UNL     1      44.450   6.472  11.150  0.00  0.00    +0.000 NA
ATOM      3  N   UNL     1      45.150   6.898  12.254  0.00  0.00    +0.000 NA
ATOM      4  C   UNL     1      45.652   5.837  12.844  0.00  0.00    +0.000 A 
ATOM      5  C   UNL     1      46.394   5.677  14.049  0.00  0.00    +0.000 A 
ATOM      6  C   UNL     1      46.833   4.450  14.414  0.00  0.00    +0.000 A 
ATOM      7  C   UNL     1      46.542   3.287  13.559  0.00  0.00    +0.000 A 
ATOM      8  C   UNL     1      45.793   3.434  12.453  0.00  0.00    +0.000 A 
ATOM      9  N   UNL     1      45.338   4.702  12.110  0.00  0.00    +0.000 N 
ENDROOT
BRANCH   6  10
ATOM     10  C   UNL     1      47.530   4.200  15.716  0.00  0.00    +0.000 C 
ATOM     11  O   UNL     1      48.234   3.221  15.905  0.00  0.00    +0.000 OA
BRANCH  10  12
ATOM     12  O   UNL     1      47.344   5.135  16.668  0.00  0.00    +0.000 OA
ATOM     13  H   UNL     1      46.780   4.891  17.422  0.00  0.00    +0.000 HD
ENDBRANCH  10  12
ENDBRANCH   6  10
BRANCH   1  14
ATOM     14  C   UNL     1      43.848   4.278  10.100  0.00  0.00    +0.000 C 
BRANCH  14  18
ATOM     15  C   UNL     1      46.605   2.294   7.496  0.00  0.00    +0.000 A 
ATOM     16  C   UNL     1      46.466   3.679   7.407  0.00  0.00    +0.000 A 
ATOM     17  C   UNL     1      45.559   4.340   8.236  0.00  0.00    +0.000 A 
ATOM     18  C   UNL     1      44.800   3.598   9.139  0.00  0.00    +0.000 A 
ATOM     19  N   UNL     1      44.900   2.250   9.231  0.00  0.00    +0.000 NA
ATOM     20  C   UNL     1      45.796   1.636   8.418  0.00  0.00    +0.000 A 
BRANCH  15  21
ATOM     21  C   UNL     1      47.604   1.540   6.666  0.00  0.00    +0.000 C 
BRANCH  21  22
ATOM     22  N   UNL     1      48.684   2.402   6.200  0.00  0.00    +0.000 NA
ATOM     23  H   UNL     1      49.574   1.927   6.336  0.00  0.00    +0.000 HD
ATOM     24  H   UNL     1      48.716   3.238   6.783  0.00  0.00    +0.000 HD
ENDBRANCH  21  22
ENDBRANCH  15  21
ENDBRANCH  14  18
ENDBRANCH   1  14
TORSDOF 6
ENDMDL
MODEL 3
REMARK VINA RESULT:    -7.429      3.640      6.836
REMARK INTER + INTRA:         -10.048
REMARK INTER:                  -9.713
REMARK INTRA:                  -0.336
REMARK UNBOUND:                -0.448
REMARK  Name = 
REMARK  6 active torsions:
REMARK  status: ('A' for Active; 'I' for Inactive)
REMARK    1  A    between atoms: N_1  and  C_2
REMARK    2  A    between atoms: C_2  and  C_3
REMARK    3  A    between atoms: C_6  and  C_7
REMARK    4  A    between atoms: C_7  and  C_8
REMARK    5  A    between atoms: C_13  and  C_14
REMARK    6  A    between atoms: C_14  and  O_16
REMARK                            x       y       z     vdW  Elec       q    Type
REMARK                         _______ _______ _______ _____ _____    ______ ____
ROOT
ATOM      1  C   UNL     1      43.838   4.253  10.562  0.00  0.00    +0.000 A 
ATOM      2  N   UNL     1      43.351   3.128  11.056  0.00  0.00    +0.000 NA
ATOM      3  N   UNL     1      43.902   2.075  10.365  0.00  0.00    +0.000 NA
ATOM      4  C   UNL     1      44.720   2.573   9.465  0.00  0.00    +0.000 A 
ATOM      5  C   UNL     1      45.497   1.962   8.439  0.00  0.00    +0.000 A 
ATOM      6  C   UNL     1      46.302   2.720   7.658  0.00  0.00    +0.000 A 
ATOM      7  C   UNL     1      46.371   4.174   7.877  0.00  0.00    +0.000 A 
ATOM      8  C   UNL     1      45.593   4.754   8.807  0.00  0.00    +0.000 A 
ATOM      9  N   UNL     1      44.760   3.955   9.583  0.00  0.00    +0.000 N 
ENDROOT
BRANCH   6  10
ATOM     10  C   UNL     1      47.065   2.152   6.502  0.00  0.00    +0.000 C 
ATOM     11  O   UNL     1      47.904   1.276   6.638  0.00  0.00    +0.000 OA
BRANCH  10  12
ATOM     12  O   UNL     1      46.758   2.659   5.292  0.00  0.00    +0.000 OA
ATOM     13  H   UNL     1      45.839   2.561   4.993  0.00  0.00    +0.000 HD
ENDBRANCH  10  12
ENDBRANCH   6  10
BRANCH   1  14
ATOM     14  C   UNL     1      43.441   5.630  10.959  0.00  0.00    +0.000 C 
BRANCH  14  18
ATOM     15  C   UNL     1      46.564   7.793  12.929  0.00  0.00    +0.000 A 
ATOM     16  C   UNL     1      45.682   8.484  12.098  0.00  0.00    +0.000 A 
ATOM     17  C   UNL     1      44.668   7.792  11.434  0.00  0.00    +0.000 A 
ATOM     18  C   UNL     1      44.561   6.413  11.610  0.00  0.00    +0.000 A 
ATOM     19  N   UNL     1      45.417   5.715  12.395  0.00  0.00    +0.000 NA
ATOM     20  C   UNL     1      46.386   6.416  13.034  0.00  0.00    +0.000 A 
BRANCH  15  21
ATOM     21  C   UNL     1      47.637   8.497  13.708  0.00  0.00    +0.000 C 
BRANCH  21  22
ATOM     22  N   UNL     1      47.141   9.003  14.981  0.00  0.00    +0.000 NA
ATOM     23  H   UNL     1      46.438   9.719  14.807  0.00  0.00    +0.000 HD
ATOM     24  H   UNL     1      47.904   9.468  15.474  0.00  0.00    +0.000 HD
ENDBRANCH  21  22
ENDBRANCH  15  21
ENDBRANCH  14  18
ENDBRANCH   1  14
TORSDOF 6
ENDMDL
MODEL 4
REMARK VINA RESULT:    -6.589      1.511      2.257
REMARK INTER + INTRA:          -8.963
REMARK INTER:                  -8.493
REMARK INTRA:                  -0.469
REMARK UNBOUND:                -0.448
REMARK  Name = 
REMARK  6 active torsions:
REMARK  status: ('A' for Active; 'I' for Inactive)
REMARK    1  A    between atoms: N_1  and  C_2
REMARK    2  A    between atoms: C_2  and  C_3
REMARK    3  A    between atoms: C_6  and  C_7
REMARK    4  A    between atoms: C_7  and  C_8
REMARK    5  A    between atoms: C_13  and  C_14
REMARK    6  A    between atoms: C_14  and  O_16
REMARK                            x       y       z     vdW  Elec       q    Type
REMARK                         _______ _______ _______ _____ _____    ______ ____
ROOT
ATOM      1  C   UNL     1      45.615   4.542  13.000  0.00  0.00    +0.000 A 
ATOM      2  N   UNL     1      46.314   3.637  13.664  0.00  0.00    +0.000 NA
ATOM      3  N   UNL     1      47.367   4.269  14.281  0.00  0.00    +0.000 NA
ATOM      4  C   UNL     1      47.291   5.549  13.990  0.00  0.00    +0.000 A 
ATOM      5  C   UNL     1      48.143   6.649  14.294  0.00  0.00    +0.000 A 
ATOM      6  C   UNL     1      47.803   7.897  13.897  0.00  0.00    +0.000 A 
ATOM      7  C   UNL     1      46.550   8.110  13.153  0.00  0.00    +0.000 A 
ATOM      8  C   UNL     1      45.779   7.061  12.818  0.00  0.00    +0.000 A 
ATOM      9  N   UNL     1      46.160   5.787  13.222  0.00  0.00    +0.000 N 
ENDROOT
BRANCH   6  10
ATOM     10  C   UNL     1      48.703   9.077  14.098  0.00  0.00    +0.000 C 
ATOM     11  O   UNL     1      48.694   9.740  15.123  0.00  0.00    +0.000 OA
BRANCH  10  12
ATOM     12  O   UNL     1      49.539   9.357  13.079  0.00  0.00    +0.000 OA
ATOM     13  H   UNL     1      49.788  10.288  12.956  0.00  0.00    +0.000 HD
ENDBRANCH  10  12
ENDBRANCH   6  10
BRANCH   1  14
ATOM     14  C   UNL     1      44.445   4.275  12.121  0.00  0.00    +0.000 C 
BRANCH  14  18
ATOM     15  C   UNL     1      45.617   3.343   8.112  0.00  0.00    +0.000 A 
ATOM     16  C   UNL     1      45.730   4.659   8.563  0.00  0.00    +0.000 A 
ATOM     17  C   UNL     1      45.337   4.984   9.861  0.00  0.00    +0.000 A 
ATOM     18  C   UNL     1      44.828   3.982  10.686  0.00  0.00    +0.000 A 
ATOM     19  N   UNL     1      44.687   2.702  10.266  0.00  0.00    +0.000 NA
ATOM     20  C   UNL     1      45.086   2.414   9.002  0.00  0.00    +0.000 A 
BRANCH  15  21
ATOM     21  C   UNL     1      46.075   2.930   6.743  0.00  0.00    +0.000 C 
BRANCH  21  22
ATOM     22  N   UNL     1      46.882   3.963   6.106  0.00  0.00    +0.000 NA
ATOM     23  H   UNL     1      46.541   4.119   5.159  0.00  0.00    +0.000 HD
ATOM     24  H   UNL     1      47.839   3.626   6.011  0.00  0.00    +0.000 HD
ENDBRANCH  21  22
ENDBRANCH  15  21
ENDBRANCH  14  18
ENDBRANCH   1  14
TORSDOF 6
ENDMDL
MODEL 5
REMARK VINA RESULT:    -6.381      4.606      7.486
REMARK INTER + INTRA:          -8.695
REMARK INTER:                  -8.378
REMARK INTRA:                  -0.317
REMARK UNBOUND:                -0.448
REMARK  Name = 
REMARK  6 active torsions:
REMARK  status: ('A' for Active; 'I' for Inactive)
REMARK    1  A    between atoms: N_1  and  C_2
REMARK    2  A    between atoms: C_2  and  C_3
REMARK    3  A    between atoms: C_6  and  C_7
REMARK    4  A    between atoms: C_7  and  C_8
REMARK    5  A    between atoms: C_13  and  C_14
REMARK    6  A    between atoms: C_14  and  O_16
REMARK                            x       y       z     vdW  Elec       q    Type
REMARK                         _______ _______ _______ _____ _____    ______ ____
ROOT
ATOM      1  C   UNL     1      47.324   5.181  14.899  0.00  0.00    +0.000 A 
ATOM      2  N   UNL     1      48.229   6.121  14.688  0.00  0.00    +0.000 NA
ATOM      3  N   UNL     1      48.070   6.597  13.408  0.00  0.00    +0.000 NA
ATOM      4  C   UNL     1      47.069   5.945  12.861  0.00  0.00    +0.000 A 
ATOM      5  C   UNL     1      46.515   5.973  11.549  0.00  0.00    +0.000 A 
ATOM      6  C   UNL     1      45.436   5.212  11.254  0.00  0.00    +0.000 A 
ATOM      7  C   UNL     1      44.839   4.358  12.295  0.00  0.00    +0.000 A 
ATOM      8  C   UNL     1      45.401   4.290  13.514  0.00  0.00    +0.000 A 
ATOM      9  N   UNL     1      46.520   5.069  13.786  0.00  0.00    +0.000 N 
ENDROOT
BRANCH   6  10
ATOM     10  C   UNL     1      44.870   5.122   9.871  0.00  0.00    +0.000 C 
ATOM     11  O   UNL     1      45.574   4.974   8.884  0.00  0.00    +0.000 OA
BRANCH  10  12
ATOM     12  O   UNL     1      43.528   5.200   9.781  0.00  0.00    +0.000 OA
ATOM     13  H   UNL     1      43.063   4.419   9.436  0.00  0.00    +0.000 HD
ENDBRANCH  10  12
ENDBRANCH   6  10
BRANCH   1  14
ATOM     14  C   UNL     1      47.199   4.342  16.121  0.00  0.00    +0.000 C 
BRANCH  14  18
ATOM     15  C   UNL     1      50.802   2.385  17.346  0.00  0.00    +0.000 A 
ATOM     16  C   UNL     1      50.535   3.671  17.818  0.00  0.00    +0.000 A 
ATOM     17  C   UNL     1      49.374   4.330  17.415  0.00  0.00    +0.000 A 
ATOM     18  C   UNL     1      48.501   3.691  16.537  0.00  0.00    +0.000 A 
ATOM     19  N   UNL     1      48.746   2.451  16.048  0.00  0.00    +0.000 NA
ATOM     20  C   UNL     1      49.879   1.832  16.464  0.00  0.00    +0.000 A 
BRANCH  15  21
ATOM     21  C   UNL     1      52.010   1.611  17.790  0.00  0.00    +0.000 C 
BRANCH  21  22
ATOM     22  N   UNL     1      51.682   0.226  18.105  0.00  0.00    +0.000 NA
ATOM     23  H   UNL     1      51.621  -0.310  17.241  0.00  0.00    +0.000 HD
ATOM     24  H   UNL     1      50.754   0.192  18.526  0.00  0.00    +0.000 HD
ENDBRANCH  21  22
ENDBRANCH  15  21
ENDBRANCH  14  18
ENDBRANCH   1  14
TORSDOF 6
ENDMDL
MODEL 6
REMARK VINA RESULT:    -5.992      4.263      6.588
REMARK INTER + INTRA:          -8.191
REMARK INTER:                  -7.733
REMARK INTRA:                  -0.459
REMARK UNBOUND:                -0.448
REMARK  Name = 
REMARK  6 active torsions:
REMARK  status: ('A' for Active; 'I' for Inactive)
REMARK    1  A    between atoms: N_1  and  C_2
REMARK    2  A    between atoms: C_2  and  C_3
REMARK    3  A    between atoms: C_6  and  C_7
REMARK    4  A    between atoms: C_7  and  C_8
REMARK    5  A    between atoms: C_13  and  C_14
REMARK    6  A    between atoms: C_14  and  O_16
REMARK                            x       y       z     vdW  Elec       q    Type
REMARK                         _______ _______ _______ _____ _____    ______ ____
ROOT
ATOM      1  C   UNL     1      47.461   6.062  13.784  0.00  0.00    +0.000 A 
ATOM      2  N   UNL     1      47.837   5.174  14.688  0.00  0.00    +0.000 NA
ATOM      3  N   UNL     1      47.213   3.981  14.410  0.00  0.00    +0.000 NA
ATOM      4  C   UNL     1      46.472   4.157  13.340  0.00  0.00    +0.000 A 
ATOM      5  C   UNL     1      45.568   3.297  12.653  0.00  0.00    +0.000 A 
ATOM      6  C   UNL     1      44.950   3.725  11.527  0.00  0.00    +0.000 A 
ATOM      7  C   UNL     1      45.220   5.080  11.018  0.00  0.00    +0.000 A 
ATOM      8  C   UNL     1      46.028   5.909  11.702  0.00  0.00    +0.000 A 
ATOM      9  N   UNL     1      46.636   5.450  12.865  0.00  0.00    +0.000 N 
ENDROOT
BRANCH   6  10
ATOM     10  C   UNL     1      43.916   2.908  10.818  0.00  0.00    +0.000 C 
ATOM     11  O   UNL     1      43.899   2.784   9.603  0.00  0.00    +0.000 OA
BRANCH  10  12
ATOM     12  O   UNL     1      43.007   2.300  11.606  0.00  0.00    +0.000 OA
ATOM     13  H   UNL     1      43.130   1.351  11.770  0.00  0.00    +0.000 HD
ENDBRANCH  10  12
ENDBRANCH   6  10
BRANCH   1  14
ATOM     14  C   UNL     1      47.829   7.502  13.762  0.00  0.00    +0.000 C 
BRANCH  14  18
ATOM     15  C   UNL     1      51.638   8.389  12.024  0.00  0.00    +0.000 A 
ATOM     16  C   UNL     1      50.611   7.922  11.203  0.00  0.00    +0.000 A 
ATOM     17  C   UNL     1      49.368   7.611  11.756  0.00  0.00    +0.000 A 
ATOM     18  C   UNL     1      49.177   7.768  13.128  0.00  0.00    +0.000 A 
ATOM     19  N   UNL     1      50.164   8.200  13.950  0.00  0.00    +0.000 NA
ATOM     20  C   UNL     1      51.358   8.502  13.383  0.00  0.00    +0.000 A 
BRANCH  15  21
ATOM     21  C   UNL     1      52.976   8.788  11.472  0.00  0.00    +0.000 C 
BRANCH  21  22
ATOM     22  N   UNL     1      53.721   7.641  10.970  0.00  0.00    +0.000 NA
ATOM     23  H   UNL     1      53.561   7.548   9.969  0.00  0.00    +0.000 HD
ATOM     24  H   UNL     1      53.351   6.792  11.397  0.00  0.00    +0.000 HD
ENDBRANCH  21  22
ENDBRANCH  15  21
ENDBRANCH  14  18
ENDBRANCH   1  14
TORSDOF 6
ENDMDL
MODEL 7
REMARK VINA RESULT:    -5.935      4.300      8.017
REMARK INTER + INTRA:          -8.118
REMARK INTER:                  -7.678
REMARK INTRA:                  -0.440
REMARK UNBOUND:                -0.448
REMARK  Name = 
REMARK  6 active torsions:
REMARK  status: ('A' for Active; 'I' for Inactive)
REMARK    1  A    between atoms: N_1  and  C_2
REMARK    2  A    between atoms: C_2  and  C_3
REMARK    3  A    between atoms: C_6  and  C_7
REMARK    4  A    between atoms: C_7  and  C_8
REMARK    5  A    between atoms: C_13  and  C_14
REMARK    6  A    between atoms: C_14  and  O_16
REMARK                            x       y       z     vdW  Elec       q    Type
REMARK                         _______ _______ _______ _____ _____    ______ ____
ROOT
ATOM      1  C   UNL     1      47.438   7.343  13.640  0.00  0.00    +0.000 A 
ATOM      2  N   UNL     1      46.904   8.550  13.571  0.00  0.00    +0.000 NA
ATOM      3  N   UNL     1      45.699   8.455  12.916  0.00  0.00    +0.000 NA
ATOM      4  C   UNL     1      45.514   7.193  12.601  0.00  0.00    +0.000 A 
ATOM      5  C   UNL     1      44.488   6.533  11.865  0.00  0.00    +0.000 A 
ATOM      6  C   UNL     1      44.519   5.188  11.719  0.00  0.00    +0.000 A 
ATOM      7  C   UNL     1      45.616   4.414  12.324  0.00  0.00    +0.000 A 
ATOM      8  C   UNL     1      46.612   5.046  12.968  0.00  0.00    +0.000 A 
ATOM      9  N   UNL     1      46.566   6.431  13.089  0.00  0.00    +0.000 N 
ENDROOT
BRANCH   6  10
ATOM     10  C   UNL     1      43.528   4.449  10.874  0.00  0.00    +0.000 C 
ATOM     11  O   UNL     1      42.854   3.529  11.310  0.00  0.00    +0.000 OA
BRANCH  10  12
ATOM     12  O   UNL     1      43.413   4.872   9.600  0.00  0.00    +0.000 OA
ATOM     13  H   UNL     1      43.745   4.279   8.907  0.00  0.00    +0.000 HD
ENDBRANCH  10  12
ENDBRANCH   6  10
BRANCH   1  14
ATOM     14  C   UNL     1      48.779   7.007  14.188  0.00  0.00    +0.000 C 
BRANCH  14  18
ATOM     15  C   UNL     1      48.540   5.639  18.236  0.00  0.00    +0.000 A 
ATOM     16  C   UNL     1      48.719   7.000  17.991  0.00  0.00    +0.000 A 
ATOM     17  C   UNL     1      48.817   7.462  16.678  0.00  0.00    +0.000 A 
ATOM     18  C   UNL     1      48.740   6.546  15.630  0.00  0.00    +0.000 A 
ATOM     19  N   UNL     1      48.586   5.216  15.841  0.00  0.00    +0.000 NA
ATOM     20  C   UNL     1      48.486   4.799  17.127  0.00  0.00    +0.000 A 
BRANCH  15  21
ATOM     21  C   UNL     1      48.375   5.097  19.627  0.00  0.00    +0.000 C 
BRANCH  21  22
ATOM     22  N   UNL     1      48.491   3.645  19.662  0.00  0.00    +0.000 NA
ATOM     23  H   UNL     1      49.238   3.353  19.035  0.00  0.00    +0.000 HD
ATOM     24  H   UNL     1      47.633   3.234  19.294  0.00  0.00    +0.000 HD
ENDBRANCH  21  22
ENDBRANCH  15  21
ENDBRANCH  14  18
ENDBRANCH   1  14
TORSDOF 6
ENDMDL
MODEL 8
REMARK VINA RESULT:    -5.702      4.624      8.319
REMARK INTER + INTRA:          -7.817
REMARK INTER:                  -7.523
REMARK INTRA:                  -0.294
REMARK UNBOUND:                -0.448
REMARK  Name = 
REMARK  6 active torsions:
REMARK  status: ('A' for Active; 'I' for Inactive)
REMARK    1  A    between atoms: N_1  and  C_2
REMARK    2  A    between atoms: C_2  and  C_3
REMARK    3  A    between atoms: C_6  and  C_7
REMARK    4  A    between atoms: C_7  and  C_8
REMARK    5  A    between atoms: C_13  and  C_14
REMARK    6  A    between atoms: C_14  and  O_16
REMARK                            x       y       z     vdW  Elec       q    Type
REMARK                         _______ _______ _______ _____ _____    ______ ____
ROOT
ATOM      1  C   UNL     1      47.697   5.356  14.555  0.00  0.00    +0.000 A 
ATOM      2  N   UNL     1      47.911   4.142  15.034  0.00  0.00    +0.000 NA
ATOM      3  N   UNL     1      47.130   3.255  14.333  0.00  0.00    +0.000 NA
ATOM      4  C   UNL     1      46.456   3.938  13.436  0.00  0.00    +0.000 A 
ATOM      5  C   UNL     1      45.457   3.554  12.495  0.00  0.00    +0.000 A 
ATOM      6  C   UNL     1      44.944   4.470  11.641  0.00  0.00    +0.000 A 
ATOM      7  C   UNL     1      45.424   5.861  11.690  0.00  0.00    +0.000 A 
ATOM      8  C   UNL     1      46.323   6.232  12.618  0.00  0.00    +0.000 A 
ATOM      9  N   UNL     1      46.821   5.275  13.495  0.00  0.00    +0.000 N 
ENDROOT
BRANCH   6  10
ATOM     10  C   UNL     1      43.824   4.152  10.700  0.00  0.00    +0.000 C 
ATOM     11  O   UNL     1      43.901   4.354   9.498  0.00  0.00    +0.000 OA
BRANCH  10  12
ATOM     12  O   UNL     1      42.724   3.612  11.260  0.00  0.00    +0.000 OA
ATOM     13  H   UNL     1      42.707   2.645  11.355  0.00  0.00    +0.000 HD
ENDBRANCH  10  12
ENDBRANCH   6  10
BRANCH   1  14
ATOM     14  C   UNL     1      48.271   6.621  15.084  0.00  0.00    +0.000 C 
BRANCH  14  18
ATOM     15  C   UNL     1      50.524   5.962  18.662  0.00  0.00    +0.000 A 
ATOM     16  C   UNL     1      49.183   6.332  18.765  0.00  0.00    +0.000 A 
ATOM     17  C   UNL     1      48.438   6.568  17.609  0.00  0.00    +0.000 A 
ATOM     18  C   UNL     1      49.055   6.435  16.366  0.00  0.00    +0.000 A 
ATOM     19  N   UNL     1      50.361   6.098  16.239  0.00  0.00    +0.000 NA
ATOM     20  C   UNL     1      51.057   5.866  17.380  0.00  0.00    +0.000 A 
BRANCH  15  21
ATOM     21  C   UNL     1      51.355   5.644  19.872  0.00  0.00    +0.000 C 
BRANCH  21  22
ATOM     22  N   UNL     1      50.765   4.579  20.672  0.00  0.00    +0.000 NA
ATOM     23  H   UNL     1      50.246   4.988  21.446  0.00  0.00    +0.000 HD
ATOM     24  H   UNL     1      51.512   4.026  21.092  0.00  0.00    +0.000 HD
ENDBRANCH  21  22
ENDBRANCH  15  21
ENDBRANCH  14  18
ENDBRANCH   1  14
TORSDOF 6
ENDMDL
MODEL 9
REMARK VINA RESULT:    -5.673      4.295      6.765
REMARK INTER + INTRA:          -7.780
REMARK INTER:                  -7.473
REMARK INTRA:                  -0.307
REMARK UNBOUND:                -0.448
REMARK  Name = 
REMARK  6 active torsions:
REMARK  status: ('A' for Active; 'I' for Inactive)
REMARK    1  A    between atoms: N_1  and  C_2
REMARK    2  A    between atoms: C_2  and  C_3
REMARK    3  A    between atoms: C_6  and  C_7
REMARK    4  A    between atoms: C_7  and  C_8
REMARK    5  A    between atoms: C_13  and  C_14
REMARK    6  A    between atoms: C_14  and  O_16
REMARK                            x       y       z     vdW  Elec       q    Type
REMARK                         _______ _______ _______ _____ _____    ______ ____
ROOT
ATOM      1  C   UNL     1      45.955   4.560  13.403  0.00  0.00    +0.000 A 
ATOM      2  N   UNL     1      44.638   4.504  13.502  0.00  0.00    +0.000 NA
ATOM      3  N   UNL     1      44.127   5.743  13.195  0.00  0.00    +0.000 NA
ATOM      4  C   UNL     1      45.137   6.533  12.909  0.00  0.00    +0.000 A 
ATOM      5  C   UNL     1      45.205   7.921  12.594  0.00  0.00    +0.000 A 
ATOM      6  C   UNL     1      46.396   8.489  12.296  0.00  0.00    +0.000 A 
ATOM      7  C   UNL     1      47.617   7.666  12.296  0.00  0.00    +0.000 A 
ATOM      8  C   UNL     1      47.557   6.371  12.651  0.00  0.00    +0.000 A 
ATOM      9  N   UNL     1      46.323   5.816  12.971  0.00  0.00    +0.000 N 
ENDROOT
BRANCH   6  10
ATOM     10  C   UNL     1      46.547   9.959  12.055  0.00  0.00    +0.000 C 
ATOM     11  O   UNL     1      47.538  10.438  11.527  0.00  0.00    +0.000 OA
BRANCH  10  12
ATOM     12  O   UNL     1      45.510  10.726  12.446  0.00  0.00    +0.000 OA
ATOM     13  H   UNL     1      45.409  10.878  13.400  0.00  0.00    +0.000 HD
ENDBRANCH  10  12
ENDBRANCH   6  10
BRANCH   1  14
ATOM     14  C   UNL     1      46.907   3.467  13.735  0.00  0.00    +0.000 C 
BRANCH  14  18
ATOM     15  C   UNL     1      48.684   3.797  17.614  0.00  0.00    +0.000 A 
ATOM     16  C   UNL     1      47.902   4.849  17.135  0.00  0.00    +0.000 A 
ATOM     17  C   UNL     1      47.329   4.765  15.866  0.00  0.00    +0.000 A 
ATOM     18  C   UNL     1      47.557   3.629  15.092  0.00  0.00    +0.000 A 
ATOM     19  N   UNL     1      48.330   2.603  15.524  0.00  0.00    +0.000 NA
ATOM     20  C   UNL     1      48.866   2.709  16.765  0.00  0.00    +0.000 A 
BRANCH  15  21
ATOM     21  C   UNL     1      49.279   3.813  18.993  0.00  0.00    +0.000 C 
BRANCH  21  22
ATOM     22  N   UNL     1      48.294   3.477  20.013  0.00  0.00    +0.000 NA
ATOM     23  H   UNL     1      48.689   3.659  20.934  0.00  0.00    +0.000 HD
ATOM     24  H   UNL     1      48.107   2.475  19.977  0.00  0.00    +0.000 HD
ENDBRANCH  21  22
ENDBRANCH  15  21
ENDBRANCH  14  18
ENDBRANCH   1  14
TORSDOF 6
ENDMDL
