MODEL 1
REMARK VINA RESULT:    -7.079      0.000      0.000
REMARK INTER + INTRA:          -9.810
REMARK INTER:                  -9.356
REMARK INTRA:                  -0.455
REMARK UNBOUND:                -0.455
REMARK  Name = 
REMARK  6 active torsions:
REMARK  status: ('A' for Active; 'I' for Inactive)
REMARK    1  A    between atoms: N_1  and  C_2
REMARK    2  A    between atoms: C_2  and  C_3
REMARK    3  A    between atoms: C_3  and  C_4
REMARK    4  A    between atoms: C_7  and  S_8
REMARK    5  A    between atoms: S_8  and  C_9
REMARK    6  A    between atoms: C_9  and  C_10
REMARK                            x       y       z     vdW  Elec       q    Type
REMARK                         _______ _______ _______ _____ _____    ______ ____
ROOT
ATOM      1  C   UNL     1      45.799   2.598   8.249  0.00  0.00    +0.000 A 
ATOM      2  C   UNL     1      45.922   3.988   8.264  0.00  0.00    +0.000 A 
ATOM      3  C   UNL     1      45.131   4.743   9.129  0.00  0.00    +0.000 A 
ATOM      4  C   UNL     1      44.249   4.084   9.978  0.00  0.00    +0.000 A 
ATOM      5  N   UNL     1      44.113   2.741   9.983  0.00  0.00    +0.000 NA
ATOM      6  C   UNL     1      44.879   2.033   9.123  0.00  0.00    +0.000 A 
ENDROOT
BRANCH   1   7
ATOM      7  C   UNL     1      46.638   1.738   7.344  0.00  0.00    +0.000 C 
BRANCH   7   8
ATOM      8  C   UNL     1      47.868   2.485   6.813  0.00  0.00    +0.000 C 
BRANCH   8   9
ATOM      9  N   UNL     1      48.475   1.763   5.696  0.00  0.00    +0.000 NA
ATOM     10  H   UNL     1      49.279   2.286   5.351  0.00  0.00    +0.000 HD
ATOM     11  H   UNL     1      47.818   1.713   4.917  0.00  0.00    +0.000 HD
ENDBRANCH   8   9
ENDBRANCH   7   8
ENDBRANCH   1   7
BRANCH   4  12
ATOM     12  S   UNL     1      43.239   5.033  11.101  0.00  0.00    +0.000 S 
BRANCH  12  13
ATOM     13  C   UNL     1      44.390   6.398  11.455  0.00  0.00    +0.000 C 
BRANCH  13  14
ATOM     14  C   UNL     1      45.537   5.961  12.331  0.00  0.00    +0.000 A 
ATOM     15  C   UNL     1      46.812   6.510  12.163  0.00  0.00    +0.000 A 
ATOM     16  C   UNL     1      47.833   6.097  13.006  0.00  0.00    +0.000 A 
ATOM     17  N   UNL     1      47.673   5.182  13.987  0.00  0.00    +0.000 NA
ATOM     18  C   UNL     1      46.440   4.652  14.123  0.00  0.00    +0.000 A 
ATOM     19  C   UNL     1      45.357   5.001  13.332  0.00  0.00    +0.000 A 
ENDBRANCH  13  14
ENDBRANCH  12  13
ENDBRANCH   4  12
TORSDOF 6
ENDMDL
MODEL 2
REMARK VINA RESULT:    -6.774      1.546      5.988
REMARK INTER + INTRA:          -9.407
REMARK INTER:                  -8.915
REMARK INTRA:                  -0.492
REMARK UNBOUND:                -0.455
REMARK  Name = 
REMARK  6 active torsions:
REMARK  status: ('A' for Active; 'I' for Inactive)
REMARK    1  A    between atoms: N_1  and  C_2
REMARK    2  A    between atoms: C_2  and  C_3
REMARK    3  A    between atoms: C_3  and  C_4
REMARK    4  A    between atoms: C_7  and  S_8
REMARK    5  A    between atoms: S_8  and  C_9
REMARK    6  A    between atoms: C_9  and  C_10
REMARK                            x       y       z     vdW  Elec       q    Type
REMARK                         _______ _______ _______ _____ _____    ______ ____
ROOT
ATOM      1  C   UNL     1      46.466   6.370  12.641  0.00  0.00    +0.000 A 
ATOM      2  C   UNL     1      46.175   6.594  11.295  0.00  0.00    +0.000 A 
ATOM      3  C   UNL     1      45.522   5.608  10.555  0.00  0.00    +0.000 A 
ATOM      4  C   UNL     1      45.155   4.427  11.189  0.00  0.00    +0.000 A 
ATOM      5  N   UNL     1      45.425   4.187  12.490  0.00  0.00    +0.000 NA
ATOM      6  C   UNL     1      46.074   5.151  13.181  0.00  0.00    +0.000 A 
ENDROOT
BRANCH   1   7
ATOM      7  C   UNL     1      47.156   7.406  13.485  0.00  0.00    +0.000 C 
BRANCH   7   8
ATOM      8  C   UNL     1      48.529   6.930  13.977  0.00  0.00    +0.000 C 
BRANCH   8   9
ATOM      9  N   UNL     1      49.409   6.624  12.851  0.00  0.00    +0.000 NA
ATOM     10  H   UNL     1      50.289   7.128  12.962  0.00  0.00    +0.000 HD
ATOM     11  H   UNL     1      48.996   6.969  11.984  0.00  0.00    +0.000 HD
ENDBRANCH   8   9
ENDBRANCH   7   8
ENDBRANCH   1   7
BRANCH   4  12
ATOM     12  S   UNL     1      44.308   3.160  10.262  0.00  0.00    +0.000 S 
BRANCH  12  13
ATOM     13  C   UNL     1      44.722   3.701   8.574  0.00  0.00    +0.000 C 
BRANCH  13  14
ATOM     14  C   UNL     1      45.819   2.866   7.963  0.00  0.00    +0.000 A 
ATOM     15  C   UNL     1      46.759   3.442   7.104  0.00  0.00    +0.000 A 
ATOM     16  C   UNL     1      47.766   2.642   6.583  0.00  0.00    +0.000 A 
ATOM     17  N   UNL     1      47.894   1.325   6.852  0.00  0.00    +0.000 NA
ATOM     18  C   UNL     1      46.967   0.784   7.670  0.00  0.00    +0.000 A 
ATOM     19  C   UNL     1      45.926   1.500   8.241  0.00  0.00    +0.000 A 
ENDBRANCH  13  14
ENDBRANCH  12  13
ENDBRANCH   4  12
TORSDOF 6
ENDMDL
MODEL 3
REMARK VINA RESULT:    -6.748      1.706      6.272
REMARK INTER + INTRA:          -9.372
REMARK INTER:                  -8.890
REMARK INTRA:                  -0.482
REMARK UNBOUND:                -0.455
REMARK  Name = 
REMARK  6 active torsions:
REMARK  status: ('A' for Active; 'I' for Inactive)
REMARK    1  A    between atoms: N_1  and  C_2
REMARK    2  A    between atoms: C_2  and  C_3
REMARK    3  A    between atoms: C_3  and  C_4
REMARK    4  A    between atoms: C_7  and  S_8
REMARK    5  A    between atoms: S_8  and  C_9
REMARK    6  A    between atoms: C_9  and  C_10
REMARK                            x       y       z     vdW  Elec       q    Type
REMARK                         _______ _______ _______ _____ _____    ______ ____
ROOT
ATOM      1  C   UNL     1      46.703   5.704  12.893  0.00  0.00    +0.000 A 
ATOM      2  C   UNL     1      46.290   6.193  11.653  0.00  0.00    +0.000 A 
ATOM      3  C   UNL     1      45.520   5.389  10.814  0.00  0.00    +0.000 A 
ATOM      4  C   UNL     1      45.161   4.118  11.247  0.00  0.00    +0.000 A 
ATOM      5  N   UNL     1      45.547   3.622  12.442  0.00  0.00    +0.000 NA
ATOM      6  C   UNL     1      46.307   4.415  13.230  0.00  0.00    +0.000 A 
ENDROOT
BRANCH   1   7
ATOM      7  C   UNL     1      47.524   6.535  13.841  0.00  0.00    +0.000 C 
BRANCH   7   8
ATOM      8  C   UNL     1      47.666   7.986  13.363  0.00  0.00    +0.000 C 
BRANCH   8   9
ATOM      9  N   UNL     1      46.801   8.876  14.134  0.00  0.00    +0.000 NA
ATOM     10  H   UNL     1      47.023   8.788  15.126  0.00  0.00    +0.000 HD
ATOM     11  H   UNL     1      45.829   8.585  14.037  0.00  0.00    +0.000 HD
ENDBRANCH   8   9
ENDBRANCH   7   8
ENDBRANCH   1   7
BRANCH   4  12
ATOM     12  S   UNL     1      44.165   3.081  10.192  0.00  0.00    +0.000 S 
BRANCH  12  13
ATOM     13  C   UNL     1      44.701   3.706   8.569  0.00  0.00    +0.000 C 
BRANCH  13  14
ATOM     14  C   UNL     1      45.827   2.887   7.989  0.00  0.00    +0.000 A 
ATOM     15  C   UNL     1      45.911   1.514   8.239  0.00  0.00    +0.000 A 
ATOM     16  C   UNL     1      46.950   0.794   7.666  0.00  0.00    +0.000 A 
ATOM     17  N   UNL     1      47.899   1.343   6.878  0.00  0.00    +0.000 NA
ATOM     18  C   UNL     1      47.810   2.672   6.663  0.00  0.00    +0.000 A 
ATOM     19  C   UNL     1      46.810   3.475   7.188  0.00  0.00    +0.000 A 
ENDBRANCH  13  14
ENDBRANCH  12  13
ENDBRANCH   4  12
TORSDOF 6
ENDMDL
MODEL 4
REMARK VINA RESULT:    -5.314      1.742      2.371
REMARK INTER + INTRA:          -7.477
REMARK INTER:                  -7.019
REMARK INTRA:                  -0.458
REMARK UNBOUND:                -0.455
REMARK  Name = 
REMARK  6 active torsions:
REMARK  status: ('A' for Active; 'I' for Inactive)
REMARK    1  A    between atoms: N_1  and  C_2
REMARK    2  A    between atoms: C_2  and  C_3
REMARK    3  A    between atoms: C_3  and  C_4
REMARK    4  A    between atoms: C_7  and  S_8
REMARK    5  A    between atoms: S_8  and  C_9
REMARK    6  A    between atoms: C_9  and  C_10
REMARK                            x       y       z     vdW  Elec       q    Type
REMARK                         _______ _______ _______ _____ _____    ______ ____
ROOT
ATOM      1  C   UNL     1      45.291   3.522   8.709  0.00  0.00    +0.000 A 
ATOM      2  C   UNL     1      45.612   4.848   9.001  0.00  0.00    +0.000 A 
ATOM      3  C   UNL     1      45.426   5.336  10.294  0.00  0.00    +0.000 A 
ATOM      4  C   UNL     1      44.943   4.475  11.273  0.00  0.00    +0.000 A 
ATOM      5  N   UNL     1      44.627   3.188  11.016  0.00  0.00    +0.000 NA
ATOM      6  C   UNL     1      44.800   2.744   9.751  0.00  0.00    +0.000 A 
ENDROOT
BRANCH   1   7
ATOM      7  C   UNL     1      45.485   2.944   7.334  0.00  0.00    +0.000 C 
BRANCH   7   8
ATOM      8  C   UNL     1      46.702   3.545   6.620  0.00  0.00    +0.000 C 
BRANCH   8   9
ATOM      9  N   UNL     1      47.890   2.721   6.832  0.00  0.00    +0.000 NA
ATOM     10  H   UNL     1      48.174   2.302   5.946  0.00  0.00    +0.000 HD
ATOM     11  H   UNL     1      47.667   1.943   7.452  0.00  0.00    +0.000 HD
ENDBRANCH   8   9
ENDBRANCH   7   8
ENDBRANCH   1   7
BRANCH   4  12
ATOM     12  S   UNL     1      44.713   5.079  12.935  0.00  0.00    +0.000 S 
BRANCH  12  13
ATOM     13  C   UNL     1      46.454   5.196  13.453  0.00  0.00    +0.000 C 
BRANCH  13  14
ATOM     14  C   UNL     1      47.092   6.488  13.010  0.00  0.00    +0.000 A 
ATOM     15  C   UNL     1      46.372   7.686  13.041  0.00  0.00    +0.000 A 
ATOM     16  C   UNL     1      47.006   8.856  12.647  0.00  0.00    +0.000 A 
ATOM     17  N   UNL     1      48.287   8.910  12.223  0.00  0.00    +0.000 NA
ATOM     18  C   UNL     1      48.960   7.741  12.185  0.00  0.00    +0.000 A 
ATOM     19  C   UNL     1      48.415   6.523  12.559  0.00  0.00    +0.000 A 
ENDBRANCH  13  14
ENDBRANCH  12  13
ENDBRANCH   4  12
TORSDOF 6
ENDMDL
MODEL 5
REMARK VINA RESULT:    -5.103      2.918      7.295
REMARK INTER + INTRA:          -7.198
REMARK INTER:                  -6.796
REMARK INTRA:                  -0.402
REMARK UNBOUND:                -0.455
REMARK  Name = 
REMARK  6 active torsions:
REMARK  status: ('A' for Active; 'I' for Inactive)
REMARK    1  A    between atoms: N_1  and  C_2
REMARK    2  A    between atoms: C_2  and  C_3
REMARK    3  A    between atoms: C_3  and  C_4
REMARK    4  A    between atoms: C_7  and  S_8
REMARK    5  A    between atoms: S_8  and  C_9
REMARK    6  A    between atoms: C_9  and  C_10
REMARK                            x       y       z     vdW  Elec       q    Type
REMARK                         _______ _______ _______ _____ _____    ______ ____
ROOT
ATOM      1  C   UNL     1      48.363   5.132  16.513  0.00  0.00    +0.000 A 
ATOM      2  C   UNL     1      47.517   4.296  15.783  0.00  0.00    +0.000 A 
ATOM      3  C   UNL     1      47.073   4.692  14.522  0.00  0.00    +0.000 A 
ATOM      4  C   UNL     1      47.506   5.910  14.010  0.00  0.00    +0.000 A 
ATOM      5  N   UNL     1      48.325   6.736  14.696  0.00  0.00    +0.000 NA
ATOM      6  C   UNL     1      48.728   6.337  15.923  0.00  0.00    +0.000 A 
ENDROOT
BRANCH   1   7
ATOM      7  C   UNL     1      48.880   4.746  17.872  0.00  0.00    +0.000 C 
BRANCH   7   8
ATOM      8  C   UNL     1      48.517   3.303  18.240  0.00  0.00    +0.000 C 
BRANCH   8   9
ATOM      9  N   UNL     1      48.405   3.147  19.689  0.00  0.00    +0.000 NA
ATOM     10  H   UNL     1      47.470   2.813  19.922  0.00  0.00    +0.000 HD
ATOM     11  H   UNL     1      48.501   4.054  20.144  0.00  0.00    +0.000 HD
ENDBRANCH   8   9
ENDBRANCH   7   8
ENDBRANCH   1   7
BRANCH   4  12
ATOM     12  S   UNL     1      46.959   6.425  12.393  0.00  0.00    +0.000 S 
BRANCH  12  13
ATOM     13  C   UNL     1      45.159   6.295  12.632  0.00  0.00    +0.000 C 
BRANCH  13  14
ATOM     14  C   UNL     1      44.587   5.064  11.976  0.00  0.00    +0.000 A 
ATOM     15  C   UNL     1      44.679   4.886  10.592  0.00  0.00    +0.000 A 
ATOM     16  C   UNL     1      44.160   3.727  10.033  0.00  0.00    +0.000 A 
ATOM     17  N   UNL     1      43.559   2.752  10.747  0.00  0.00    +0.000 NA
ATOM     18  C   UNL     1      43.466   2.949  12.079  0.00  0.00    +0.000 A 
ATOM     19  C   UNL     1      43.954   4.071  12.730  0.00  0.00    +0.000 A 
ENDBRANCH  13  14
ENDBRANCH  12  13
ENDBRANCH   4  12
TORSDOF 6
ENDMDL
MODEL 6
REMARK VINA RESULT:    -5.072      2.558      7.339
REMARK INTER + INTRA:          -7.157
REMARK INTER:                  -6.891
REMARK INTRA:                  -0.267
REMARK UNBOUND:                -0.455
REMARK  Name = 
REMARK  6 active torsions:
REMARK  status: ('A' for Active; 'I' for Inactive)
REMARK    1  A    between atoms: N_1  and  C_2
REMARK    2  A    between atoms: C_2  and  C_3
REMARK    3  A    between atoms: C_3  and  C_4
REMARK    4  A    between atoms: C_7  and  S_8
REMARK    5  A    between atoms: S_8  and  C_9
REMARK    6  A    between atoms: C_9  and  C_10
REMARK                            x       y       z     vdW  Elec       q    Type
REMARK                         _______ _______ _______ _____ _____    ______ ____
ROOT
ATOM      1  C   UNL     1      48.161   5.061  16.280  0.00  0.00    +0.000 A 
ATOM      2  C   UNL     1      48.618   6.255  15.720  0.00  0.00    +0.000 A 
ATOM      3  C   UNL     1      48.192   6.629  14.446  0.00  0.00    +0.000 A 
ATOM      4  C   UNL     1      47.298   5.807  13.769  0.00  0.00    +0.000 A 
ATOM      5  N   UNL     1      46.841   4.648  14.290  0.00  0.00    +0.000 NA
ATOM      6  C   UNL     1      47.282   4.299  15.519  0.00  0.00    +0.000 A 
ENDROOT
BRANCH   1   7
ATOM      7  C   UNL     1      48.580   4.619  17.655  0.00  0.00    +0.000 C 
BRANCH   7   8
ATOM      8  C   UNL     1      47.940   5.472  18.757  0.00  0.00    +0.000 C 
BRANCH   8   9
ATOM      9  N   UNL     1      46.482   5.385  18.703  0.00  0.00    +0.000 NA
ATOM     10  H   UNL     1      46.205   4.412  18.578  0.00  0.00    +0.000 HD
ATOM     11  H   UNL     1      46.135   5.884  17.884  0.00  0.00    +0.000 HD
ENDBRANCH   8   9
ENDBRANCH   7   8
ENDBRANCH   1   7
BRANCH   4  12
ATOM     12  S   UNL     1      46.733   6.277  12.144  0.00  0.00    +0.000 S 
BRANCH  12  13
ATOM     13  C   UNL     1      45.180   5.329  12.084  0.00  0.00    +0.000 C 
BRANCH  13  14
ATOM     14  C   UNL     1      45.063   4.510  10.823  0.00  0.00    +0.000 A 
ATOM     15  C   UNL     1      44.519   3.223  10.858  0.00  0.00    +0.000 A 
ATOM     16  C   UNL     1      44.408   2.514   9.670  0.00  0.00    +0.000 A 
ATOM     17  N   UNL     1      44.803   2.991   8.470  0.00  0.00    +0.000 NA
ATOM     18  C   UNL     1      45.340   4.228   8.460  0.00  0.00    +0.000 A 
ATOM     19  C   UNL     1      45.492   5.015   9.592  0.00  0.00    +0.000 A 
ENDBRANCH  13  14
ENDBRANCH  12  13
ENDBRANCH   4  12
TORSDOF 6
ENDMDL
MODEL 7
REMARK VINA RESULT:    -4.939      2.944      6.781
REMARK INTER + INTRA:          -6.981
REMARK INTER:                  -6.868
REMARK INTRA:                  -0.114
REMARK UNBOUND:                -0.455
REMARK  Name = 
REMARK  6 active torsions:
REMARK  status: ('A' for Active; 'I' for Inactive)
REMARK    1  A    between atoms: N_1  and  C_2
REMARK    2  A    between atoms: C_2  and  C_3
REMARK    3  A    between atoms: C_3  and  C_4
REMARK    4  A    between atoms: C_7  and  S_8
REMARK    5  A    between atoms: S_8  and  C_9
REMARK    6  A    between atoms: C_9  and  C_10
REMARK                            x       y       z     vdW  Elec       q    Type
REMARK                         _______ _______ _______ _____ _____    ______ ____
ROOT
ATOM      1  C   UNL     1      48.219   4.291  16.422  0.00  0.00    +0.000 A 
ATOM      2  C   UNL     1      48.634   5.611  16.245  0.00  0.00    +0.000 A 
ATOM      3  C   UNL     1      48.249   6.310  15.101  0.00  0.00    +0.000 A 
ATOM      4  C   UNL     1      47.438   5.675  14.168  0.00  0.00    +0.000 A 
ATOM      5  N   UNL     1      47.023   4.398  14.316  0.00  0.00    +0.000 NA
ATOM      6  C   UNL     1      47.423   3.737  15.426  0.00  0.00    +0.000 A 
ENDROOT
BRANCH   1   7
ATOM      7  C   UNL     1      48.595   3.498  17.643  0.00  0.00    +0.000 C 
BRANCH   7   8
ATOM      8  C   UNL     1      49.932   2.767  17.470  0.00  0.00    +0.000 C 
BRANCH   8   9
ATOM      9  N   UNL     1      49.847   1.771  16.404  0.00  0.00    +0.000 NA
ATOM     10  H   UNL     1      49.819   2.243  15.500  0.00  0.00    +0.000 HD
ATOM     11  H   UNL     1      48.969   1.256  16.478  0.00  0.00    +0.000 HD
ENDBRANCH   8   9
ENDBRANCH   7   8
ENDBRANCH   1   7
BRANCH   4  12
ATOM     12  S   UNL     1      46.926   6.558  12.706  0.00  0.00    +0.000 S 
BRANCH  12  13
ATOM     13  C   UNL     1      45.122   6.380  12.867  0.00  0.00    +0.000 C 
BRANCH  13  14
ATOM     14  C   UNL     1      44.597   5.196  12.094  0.00  0.00    +0.000 A 
ATOM     15  C   UNL     1      43.927   4.158  12.748  0.00  0.00    +0.000 A 
ATOM     16  C   UNL     1      43.439   3.100  11.994  0.00  0.00    +0.000 A 
ATOM     17  N   UNL     1      43.579   3.004  10.655  0.00  0.00    +0.000 NA
ATOM     18  C   UNL     1      44.243   4.007  10.044  0.00  0.00    +0.000 A 
ATOM     19  C   UNL     1      44.765   5.106  10.708  0.00  0.00    +0.000 A 
ENDBRANCH  13  14
ENDBRANCH  12  13
ENDBRANCH   4  12
TORSDOF 6
ENDMDL
MODEL 8
REMARK VINA RESULT:    -4.816      1.980      6.325
REMARK INTER + INTRA:          -6.819
REMARK INTER:                  -6.374
REMARK INTRA:                  -0.446
REMARK UNBOUND:                -0.455
REMARK  Name = 
REMARK  6 active torsions:
REMARK  status: ('A' for Active; 'I' for Inactive)
REMARK    1  A    between atoms: N_1  and  C_2
REMARK    2  A    between atoms: C_2  and  C_3
REMARK    3  A    between atoms: C_3  and  C_4
REMARK    4  A    between atoms: C_7  and  S_8
REMARK    5  A    between atoms: S_8  and  C_9
REMARK    6  A    between atoms: C_9  and  C_10
REMARK                            x       y       z     vdW  Elec       q    Type
REMARK                         _______ _______ _______ _____ _____    ______ ____
ROOT
ATOM      1  C   UNL     1      47.924   6.661  14.025  0.00  0.00    +0.000 A 
ATOM      2  C   UNL     1      47.233   5.448  14.001  0.00  0.00    +0.000 A 
ATOM      3  C   UNL     1      46.102   5.313  13.198  0.00  0.00    +0.000 A 
ATOM      4  C   UNL     1      45.700   6.392  12.418  0.00  0.00    +0.000 A 
ATOM      5  N   UNL     1      46.352   7.574  12.423  0.00  0.00    +0.000 NA
ATOM      6  C   UNL     1      47.436   7.685  13.223  0.00  0.00    +0.000 A 
ENDROOT
BRANCH   1   7
ATOM      7  C   UNL     1      49.157   6.854  14.865  0.00  0.00    +0.000 C 
BRANCH   7   8
ATOM      8  C   UNL     1      50.159   7.812  14.210  0.00  0.00    +0.000 C 
BRANCH   8   9
ATOM      9  N   UNL     1      51.520   7.536  14.665  0.00  0.00    +0.000 NA
ATOM     10  H   UNL     1      51.812   6.620  14.323  0.00  0.00    +0.000 HD
ATOM     11  H   UNL     1      51.540   7.475  15.683  0.00  0.00    +0.000 HD
ENDBRANCH   8   9
ENDBRANCH   7   8
ENDBRANCH   1   7
BRANCH   4  12
ATOM     12  S   UNL     1      44.263   6.232  11.374  0.00  0.00    +0.000 S 
BRANCH  12  13
ATOM     13  C   UNL     1      44.115   4.418  11.348  0.00  0.00    +0.000 C 
BRANCH  13  14
ATOM     14  C   UNL     1      44.734   3.816  10.112  0.00  0.00    +0.000 A 
ATOM     15  C   UNL     1      45.326   4.630   9.142  0.00  0.00    +0.000 A 
ATOM     16  C   UNL     1      45.905   4.032   8.032  0.00  0.00    +0.000 A 
ATOM     17  N   UNL     1      45.929   2.698   7.824  0.00  0.00    +0.000 NA
ATOM     18  C   UNL     1      45.338   1.930   8.763  0.00  0.00    +0.000 A 
ATOM     19  C   UNL     1      44.735   2.433   9.906  0.00  0.00    +0.000 A 
ENDBRANCH  13  14
ENDBRANCH  12  13
ENDBRANCH   4  12
TORSDOF 6
ENDMDL
MODEL 9
REMARK VINA RESULT:    -4.573      3.908      5.679
REMARK INTER + INTRA:          -6.498
REMARK INTER:                  -6.045
REMARK INTRA:                  -0.453
REMARK UNBOUND:                -0.455
REMARK  Name = 
REMARK  6 active torsions:
REMARK  status: ('A' for Active; 'I' for Inactive)
REMARK    1  A    between atoms: N_1  and  C_2
REMARK    2  A    between atoms: C_2  and  C_3
REMARK    3  A    between atoms: C_3  and  C_4
REMARK    4  A    between atoms: C_7  and  S_8
REMARK    5  A    between atoms: S_8  and  C_9
REMARK    6  A    between atoms: C_9  and  C_10
REMARK                            x       y       z     vdW  Elec       q    Type
REMARK                         _______ _______ _______ _____ _____    ______ ____
ROOT
ATOM      1  C   UNL     1      44.654   5.118  12.950  0.00  0.00    +0.000 A 
ATOM      2  C   UNL     1      45.917   4.652  13.316  0.00  0.00    +0.000 A 
ATOM      3  C   UNL     1      46.991   5.539  13.376  0.00  0.00    +0.000 A 
ATOM      4  C   UNL     1      46.770   6.880  13.087  0.00  0.00    +0.000 A 
ATOM      5  N   UNL     1      45.558   7.356  12.730  0.00  0.00    +0.000 NA
ATOM      6  C   UNL     1      44.536   6.473  12.664  0.00  0.00    +0.000 A 
ENDROOT
BRANCH   1   7
ATOM      7  C   UNL     1      43.460   4.205  12.883  0.00  0.00    +0.000 C 
BRANCH   7   8
ATOM      8  C   UNL     1      43.341   3.508  11.522  0.00  0.00    +0.000 C 
BRANCH   8   9
ATOM      9  N   UNL     1      42.981   2.101  11.686  0.00  0.00    +0.000 NA
ATOM     10  H   UNL     1      43.687   1.517  11.236  0.00  0.00    +0.000 HD
ATOM     11  H   UNL     1      42.106   1.907  11.201  0.00  0.00    +0.000 HD
ENDBRANCH   8   9
ENDBRANCH   7   8
ENDBRANCH   1   7
BRANCH   4  12
ATOM     12  S   UNL     1      48.130   8.031  13.171  0.00  0.00    +0.000 S 
BRANCH  12  13
ATOM     13  C   UNL     1      49.192   7.151  14.359  0.00  0.00    +0.000 C 
BRANCH  13  14
ATOM     14  C   UNL     1      48.840   7.480  15.787  0.00  0.00    +0.000 A 
ATOM     15  C   UNL     1      48.491   8.784  16.153  0.00  0.00    +0.000 A 
ATOM     16  C   UNL     1      48.151   9.038  17.474  0.00  0.00    +0.000 A 
ATOM     17  N   UNL     1      48.142   8.096  18.442  0.00  0.00    +0.000 NA
ATOM     18  C   UNL     1      48.496   6.848  18.073  0.00  0.00    +0.000 A 
ATOM     19  C   UNL     1      48.850   6.495  16.780  0.00  0.00    +0.000 A 
ENDBRANCH  13  14
ENDBRANCH  12  13
ENDBRANCH   4  12
TORSDOF 6
ENDMDL
