MODEL 1
REMARK VINA RESULT:    -7.997      0.000      0.000
REMARK INTER + INTRA:         -10.357
REMARK INTER:                  -9.867
REMARK INTRA:                  -0.489
REMARK UNBOUND:                -0.489
REMARK  Name = 
REMARK  5 active torsions:
REMARK  status: ('A' for Active; 'I' for Inactive)
REMARK    1  A    between atoms: C_1  and  C_2
REMARK    2  A    between atoms: C_2  and  C_3
REMARK    3  A    between atoms: C_2  and  C_14
REMARK    4  A    between atoms: C_3  and  N_4
REMARK    5  A    between atoms: C_8  and  C_9
REMARK                            x       y       z     vdW  Elec       q    Type
REMARK                         _______ _______ _______ _____ _____    ______ ____
ROOT
ATOM      1  N   UNL     1      43.770   4.557   9.699  0.00  0.00    +0.000 N 
ATOM      2  C   UNL     1      44.737   3.875   8.979  0.00  0.00    +0.000 A 
ATOM      3  N   UNL     1      44.834   2.543   9.090  0.00  0.00    +0.000 NA
ATOM      4  C   UNL     1      45.821   1.935   8.401  0.00  0.00    +0.000 A 
ATOM      5  C   UNL     1      46.699   2.606   7.584  0.00  0.00    +0.000 A 
ATOM      6  C   UNL     1      46.518   3.967   7.530  0.00  0.00    +0.000 A 
ATOM      7  N   UNL     1      45.552   4.621   8.215  0.00  0.00    +0.000 NA
ATOM      8  H   UNL     1      44.094   5.515   9.786  0.00  0.00    +0.000 HD
ENDROOT
BRANCH   5   9
ATOM      9  C   UNL     1      47.763   1.866   6.896  0.00  0.00    +0.000 C 
ATOM     10  N   UNL     1      48.704   2.576   6.206  0.00  0.00    +0.000 N 
ATOM     11  O   UNL     1      47.789   0.642   6.917  0.00  0.00    +0.000 OA
ATOM     12  H   UNL     1      48.609   3.552   5.962  0.00  0.00    +0.000 HD
ATOM     13  H   UNL     1      49.362   2.026   5.665  0.00  0.00    +0.000 HD
ENDBRANCH   5   9
BRANCH   1  14
ATOM     14  C   UNL     1      43.430   3.919  10.956  0.00  0.00    +0.000 C 
BRANCH  14  16
ATOM     15  C   UNL     1      42.263   5.917  12.067  0.00  0.00    +0.000 C 
ATOM     16  C   UNL     1      43.432   4.986  12.011  0.00  0.00    +0.000 C 
BRANCH  16  17
ATOM     17  C   UNL     1      44.725   5.387  12.581  0.00  0.00    +0.000 A 
ATOM     18  C   UNL     1      45.512   4.468  13.284  0.00  0.00    +0.000 A 
ATOM     19  C   UNL     1      46.778   4.833  13.748  0.00  0.00    +0.000 A 
ATOM     20  C   UNL     1      47.266   6.116  13.508  0.00  0.00    +0.000 A 
ATOM     21  C   UNL     1      46.482   7.042  12.825  0.00  0.00    +0.000 A 
ATOM     22  C   UNL     1      45.212   6.681  12.373  0.00  0.00    +0.000 A 
ENDBRANCH  16  17
ENDBRANCH  14  16
ENDBRANCH   1  14
TORSDOF 4
ENDMDL
MODEL 2
REMARK VINA RESULT:    -7.888      1.324      2.090
REMARK INTER + INTRA:         -10.221
REMARK INTER:                  -9.789
REMARK INTRA:                  -0.433
REMARK UNBOUND:                -0.489
REMARK  Name = 
REMARK  5 active torsions:
REMARK  status: ('A' for Active; 'I' for Inactive)
REMARK    1  A    between atoms: C_1  and  C_2
REMARK    2  A    between atoms: C_2  and  C_3
REMARK    3  A    between atoms: C_2  and  C_14
REMARK    4  A    between atoms: C_3  and  N_4
REMARK    5  A    between atoms: C_8  and  C_9
REMARK                            x       y       z     vdW  Elec       q    Type
REMARK                         _______ _______ _______ _____ _____    ______ ____
ROOT
ATOM      1  N   UNL     1      44.168   5.133   9.806  0.00  0.00    +0.000 N 
ATOM      2  C   UNL     1      44.860   4.121   9.160  0.00  0.00    +0.000 A 
ATOM      3  N   UNL     1      44.717   2.852   9.567  0.00  0.00    +0.000 NA
ATOM      4  C   UNL     1      45.447   1.913   8.931  0.00  0.00    +0.000 A 
ATOM      5  C   UNL     1      46.294   2.191   7.886  0.00  0.00    +0.000 A 
ATOM      6  C   UNL     1      46.370   3.518   7.536  0.00  0.00    +0.000 A 
ATOM      7  N   UNL     1      45.668   4.496   8.155  0.00  0.00    +0.000 NA
ATOM      8  H   UNL     1      44.679   5.992   9.629  0.00  0.00    +0.000 HD
ENDROOT
BRANCH   5   9
ATOM      9  C   UNL     1      47.073   1.109   7.273  0.00  0.00    +0.000 C 
ATOM     10  N   UNL     1      46.802  -0.177   7.647  0.00  0.00    +0.000 N 
ATOM     11  O   UNL     1      47.962   1.355   6.468  0.00  0.00    +0.000 OA
ATOM     12  H   UNL     1      46.253  -0.425   8.458  0.00  0.00    +0.000 HD
ATOM     13  H   UNL     1      47.426  -0.884   7.275  0.00  0.00    +0.000 HD
ENDBRANCH   5   9
BRANCH   1  14
ATOM     14  C   UNL     1      43.919   4.856  11.207  0.00  0.00    +0.000 C 
BRANCH  14  16
ATOM     15  C   UNL     1      45.633   3.954  12.892  0.00  0.00    +0.000 C 
ATOM     16  C   UNL     1      45.222   5.024  11.931  0.00  0.00    +0.000 C 
BRANCH  16  17
ATOM     17  C   UNL     1      45.768   6.381  12.060  0.00  0.00    +0.000 A 
ATOM     18  C   UNL     1      44.970   7.432  12.527  0.00  0.00    +0.000 A 
ATOM     19  C   UNL     1      45.520   8.700  12.729  0.00  0.00    +0.000 A 
ATOM     20  C   UNL     1      46.871   8.924  12.470  0.00  0.00    +0.000 A 
ATOM     21  C   UNL     1      47.667   7.889  11.988  0.00  0.00    +0.000 A 
ATOM     22  C   UNL     1      47.115   6.626  11.774  0.00  0.00    +0.000 A 
ENDBRANCH  16  17
ENDBRANCH  14  16
ENDBRANCH   1  14
TORSDOF 4
ENDMDL
MODEL 3
REMARK VINA RESULT:    -7.524      1.106      1.827
REMARK INTER + INTRA:          -9.772
REMARK INTER:                  -9.234
REMARK INTRA:                  -0.538
REMARK UNBOUND:                -0.489
REMARK  Name = 
REMARK  5 active torsions:
REMARK  status: ('A' for Active; 'I' for Inactive)
REMARK    1  A    between atoms: C_1  and  C_2
REMARK    2  A    between atoms: C_2  and  C_3
REMARK    3  A    between atoms: C_2  and  C_14
REMARK    4  A    between atoms: C_3  and  N_4
REMARK    5  A    between atoms: C_8  and  C_9
REMARK                            x       y       z     vdW  Elec       q    Type
REMARK                         _______ _______ _______ _____ _____    ______ ____
ROOT
ATOM      1  N   UNL     1      44.442   2.784  10.554  0.00  0.00    +0.000 N 
ATOM      2  C   UNL     1      45.239   2.687   9.424  0.00  0.00    +0.000 A 
ATOM      3  N   UNL     1      45.638   3.801   8.794  0.00  0.00    +0.000 NA
ATOM      4  C   UNL     1      46.376   3.647   7.675  0.00  0.00    +0.000 A 
ATOM      5  C   UNL     1      46.751   2.423   7.177  0.00  0.00    +0.000 A 
ATOM      6  C   UNL     1      46.298   1.341   7.893  0.00  0.00    +0.000 A 
ATOM      7  N   UNL     1      45.545   1.446   9.011  0.00  0.00    +0.000 NA
ATOM      8  H   UNL     1      43.952   1.900  10.639  0.00  0.00    +0.000 HD
ENDROOT
BRANCH   5   9
ATOM      9  C   UNL     1      47.528   2.350   5.934  0.00  0.00    +0.000 C 
ATOM     10  N   UNL     1      47.252   3.249   4.944  0.00  0.00    +0.000 N 
ATOM     11  O   UNL     1      48.383   1.487   5.780  0.00  0.00    +0.000 OA
ATOM     12  H   UNL     1      46.422   3.824   4.918  0.00  0.00    +0.000 HD
ATOM     13  H   UNL     1      47.741   3.103   4.068  0.00  0.00    +0.000 HD
ENDBRANCH   5   9
BRANCH   1  14
ATOM     14  C   UNL     1      43.584   3.953  10.554  0.00  0.00    +0.000 C 
BRANCH  14  16
ATOM     15  C   UNL     1      42.590   5.261  12.527  0.00  0.00    +0.000 C 
ATOM     16  C   UNL     1      43.785   4.650  11.867  0.00  0.00    +0.000 C 
BRANCH  16  17
ATOM     17  C   UNL     1      45.134   5.133  12.190  0.00  0.00    +0.000 A 
ATOM     18  C   UNL     1      45.745   6.123  11.411  0.00  0.00    +0.000 A 
ATOM     19  C   UNL     1      46.991   6.638  11.775  0.00  0.00    +0.000 A 
ATOM     20  C   UNL     1      47.631   6.172  12.922  0.00  0.00    +0.000 A 
ATOM     21  C   UNL     1      47.038   5.176  13.693  0.00  0.00    +0.000 A 
ATOM     22  C   UNL     1      45.799   4.652  13.322  0.00  0.00    +0.000 A 
ENDBRANCH  16  17
ENDBRANCH  14  16
ENDBRANCH   1  14
TORSDOF 4
ENDMDL
MODEL 4
REMARK VINA RESULT:    -7.408      2.877      6.107
REMARK INTER + INTRA:          -9.630
REMARK INTER:                  -9.275
REMARK INTRA:                  -0.356
REMARK UNBOUND:                -0.489
REMARK  Name = 
REMARK  5 active torsions:
REMARK  status: ('A' for Active; 'I' for Inactive)
REMARK    1  A    between atoms: C_1  and  C_2
REMARK    2  A    between atoms: C_2  and  C_3
REMARK    3  A    between atoms: C_2  and  C_14
REMARK    4  A    between atoms: C_3  and  N_4
REMARK    5  A    between atoms: C_8  and  C_9
REMARK                            x       y       z     vdW  Elec       q    Type
REMARK                         _______ _______ _______ _____ _____    ______ ____
ROOT
ATOM      1  N   UNL     1      43.722   4.832  10.372  0.00  0.00    +0.000 N 
ATOM      2  C   UNL     1      44.734   5.347  11.166  0.00  0.00    +0.000 A 
ATOM      3  N   UNL     1      45.731   6.044  10.603  0.00  0.00    +0.000 NA
ATOM      4  C   UNL     1      46.712   6.485  11.417  0.00  0.00    +0.000 A 
ATOM      5  C   UNL     1      46.721   6.278  12.775  0.00  0.00    +0.000 A 
ATOM      6  C   UNL     1      45.655   5.559  13.260  0.00  0.00    +0.000 A 
ATOM      7  N   UNL     1      44.656   5.084  12.481  0.00  0.00    +0.000 NA
ATOM      8  H   UNL     1      43.315   4.057  10.887  0.00  0.00    +0.000 HD
ENDROOT
BRANCH   5   9
ATOM      9  C   UNL     1      47.847   6.768  13.579  0.00  0.00    +0.000 C 
ATOM     10  N   UNL     1      47.602   7.729  14.518  0.00  0.00    +0.000 N 
ATOM     11  O   UNL     1      48.980   6.346  13.391  0.00  0.00    +0.000 OA
ATOM     12  H   UNL     1      46.752   8.273  14.562  0.00  0.00    +0.000 HD
ATOM     13  H   UNL     1      48.420   8.109  14.982  0.00  0.00    +0.000 HD
ENDBRANCH   5   9
BRANCH   1  14
ATOM     14  C   UNL     1      44.155   4.502   9.028  0.00  0.00    +0.000 C 
BRANCH  14  16
ATOM     15  C   UNL     1      44.164   2.223  10.210  0.00  0.00    +0.000 C 
ATOM     16  C   UNL     1      44.565   3.059   9.036  0.00  0.00    +0.000 C 
BRANCH  16  17
ATOM     17  C   UNL     1      45.709   2.664   8.204  0.00  0.00    +0.000 A 
ATOM     18  C   UNL     1      46.165   1.340   8.197  0.00  0.00    +0.000 A 
ATOM     19  C   UNL     1      47.197   0.954   7.339  0.00  0.00    +0.000 A 
ATOM     20  C   UNL     1      47.776   1.886   6.480  0.00  0.00    +0.000 A 
ATOM     21  C   UNL     1      47.341   3.208   6.493  0.00  0.00    +0.000 A 
ATOM     22  C   UNL     1      46.318   3.597   7.359  0.00  0.00    +0.000 A 
ENDBRANCH  16  17
ENDBRANCH  14  16
ENDBRANCH   1  14
TORSDOF 4
ENDMDL
MODEL 5
REMARK VINA RESULT:    -7.016      3.181      5.690
REMARK INTER + INTRA:          -9.146
REMARK INTER:                  -8.501
REMARK INTRA:                  -0.646
REMARK UNBOUND:                -0.489
REMARK  Name = 
REMARK  5 active torsions:
REMARK  status: ('A' for Active; 'I' for Inactive)
REMARK    1  A    between atoms: C_1  and  C_2
REMARK    2  A    between atoms: C_2  and  C_3
REMARK    3  A    between atoms: C_2  and  C_14
REMARK    4  A    between atoms: C_3  and  N_4
REMARK    5  A    between atoms: C_8  and  C_9
REMARK                            x       y       z     vdW  Elec       q    Type
REMARK                         _______ _______ _______ _____ _____    ______ ____
ROOT
ATOM      1  N   UNL     1      44.153   5.207  12.534  0.00  0.00    +0.000 N 
ATOM      2  C   UNL     1      45.435   5.731  12.584  0.00  0.00    +0.000 A 
ATOM      3  N   UNL     1      45.824   6.627  11.667  0.00  0.00    +0.000 NA
ATOM      4  C   UNL     1      47.095   7.072  11.737  0.00  0.00    +0.000 A 
ATOM      5  C   UNL     1      47.985   6.673  12.704  0.00  0.00    +0.000 A 
ATOM      6  C   UNL     1      47.494   5.756  13.602  0.00  0.00    +0.000 A 
ATOM      7  N   UNL     1      46.232   5.271  13.563  0.00  0.00    +0.000 NA
ATOM      8  H   UNL     1      44.184   4.319  13.025  0.00  0.00    +0.000 HD
ENDROOT
BRANCH   5   9
ATOM      9  C   UNL     1      49.360   7.186  12.684  0.00  0.00    +0.000 C 
ATOM     10  N   UNL     1      50.024   7.304  13.872  0.00  0.00    +0.000 N 
ATOM     11  O   UNL     1      49.887   7.524  11.633  0.00  0.00    +0.000 OA
ATOM     12  H   UNL     1      49.577   7.261  14.777  0.00  0.00    +0.000 HD
ATOM     13  H   UNL     1      50.933   7.752  13.826  0.00  0.00    +0.000 HD
ENDBRANCH   5   9
BRANCH   1  14
ATOM     14  C   UNL     1      43.612   5.135  11.190  0.00  0.00    +0.000 C 
BRANCH  14  16
ATOM     15  C   UNL     1      43.333   2.632  11.685  0.00  0.00    +0.000 C 
ATOM     16  C   UNL     1      43.742   3.712  10.735  0.00  0.00    +0.000 C 
BRANCH  16  17
ATOM     17  C   UNL     1      44.686   3.421   9.648  0.00  0.00    +0.000 A 
ATOM     18  C   UNL     1      45.048   2.102   9.349  0.00  0.00    +0.000 A 
ATOM     19  C   UNL     1      45.877   1.828   8.259  0.00  0.00    +0.000 A 
ATOM     20  C   UNL     1      46.346   2.868   7.459  0.00  0.00    +0.000 A 
ATOM     21  C   UNL     1      46.005   4.184   7.760  0.00  0.00    +0.000 A 
ATOM     22  C   UNL     1      45.187   4.459   8.856  0.00  0.00    +0.000 A 
ENDBRANCH  16  17
ENDBRANCH  14  16
ENDBRANCH   1  14
TORSDOF 4
ENDMDL
MODEL 6
REMARK VINA RESULT:    -6.574      5.130      7.546
REMARK INTER + INTRA:          -8.600
REMARK INTER:                  -8.171
REMARK INTRA:                  -0.429
REMARK UNBOUND:                -0.489
REMARK  Name = 
REMARK  5 active torsions:
REMARK  status: ('A' for Active; 'I' for Inactive)
REMARK    1  A    between atoms: C_1  and  C_2
REMARK    2  A    between atoms: C_2  and  C_3
REMARK    3  A    between atoms: C_2  and  C_14
REMARK    4  A    between atoms: C_3  and  N_4
REMARK    5  A    between atoms: C_8  and  C_9
REMARK                            x       y       z     vdW  Elec       q    Type
REMARK                         _______ _______ _______ _____ _____    ______ ____
ROOT
ATOM      1  N   UNL     1      46.628   3.453  13.653  0.00  0.00    +0.000 N 
ATOM      2  C   UNL     1      47.145   3.518  14.937  0.00  0.00    +0.000 A 
ATOM      3  N   UNL     1      46.726   4.474  15.776  0.00  0.00    +0.000 NA
ATOM      4  C   UNL     1      47.294   4.517  16.998  0.00  0.00    +0.000 A 
ATOM      5  C   UNL     1      48.247   3.623  17.423  0.00  0.00    +0.000 A 
ATOM      6  C   UNL     1      48.609   2.676  16.495  0.00  0.00    +0.000 A 
ATOM      7  N   UNL     1      48.078   2.604  15.253  0.00  0.00    +0.000 NA
ATOM      8  H   UNL     1      47.311   2.956  13.090  0.00  0.00    +0.000 HD
ENDROOT
BRANCH   5   9
ATOM      9  C   UNL     1      48.833   3.765  18.761  0.00  0.00    +0.000 C 
ATOM     10  N   UNL     1      48.277   3.059  19.789  0.00  0.00    +0.000 N 
ATOM     11  O   UNL     1      49.779   4.518  18.953  0.00  0.00    +0.000 OA
ATOM     12  H   UNL     1      47.374   2.610  19.743  0.00  0.00    +0.000 HD
ATOM     13  H   UNL     1      48.648   3.259  20.711  0.00  0.00    +0.000 HD
ENDBRANCH   5   9
BRANCH   1  14
ATOM     14  C   UNL     1      46.235   4.745  13.125  0.00  0.00    +0.000 C 
BRANCH  14  16
ATOM     15  C   UNL     1      43.717   4.253  13.175  0.00  0.00    +0.000 C 
ATOM     16  C   UNL     1      44.949   4.548  12.380  0.00  0.00    +0.000 C 
BRANCH  16  17
ATOM     17  C   UNL     1      45.025   4.161  10.965  0.00  0.00    +0.000 A 
ATOM     18  C   UNL     1      44.502   2.938  10.529  0.00  0.00    +0.000 A 
ATOM     19  C   UNL     1      44.500   2.616   9.170  0.00  0.00    +0.000 A 
ATOM     20  C   UNL     1      45.016   3.515   8.238  0.00  0.00    +0.000 A 
ATOM     21  C   UNL     1      45.554   4.726   8.665  0.00  0.00    +0.000 A 
ATOM     22  C   UNL     1      45.567   5.043  10.024  0.00  0.00    +0.000 A 
ENDBRANCH  16  17
ENDBRANCH  14  16
ENDBRANCH   1  14
TORSDOF 4
ENDMDL
MODEL 7
REMARK VINA RESULT:    -6.514      4.507      7.049
REMARK INTER + INTRA:          -8.526
REMARK INTER:                  -8.147
REMARK INTRA:                  -0.379
REMARK UNBOUND:                -0.489
REMARK  Name = 
REMARK  5 active torsions:
REMARK  status: ('A' for Active; 'I' for Inactive)
REMARK    1  A    between atoms: C_1  and  C_2
REMARK    2  A    between atoms: C_2  and  C_3
REMARK    3  A    between atoms: C_2  and  C_14
REMARK    4  A    between atoms: C_3  and  N_4
REMARK    5  A    between atoms: C_8  and  C_9
REMARK                            x       y       z     vdW  Elec       q    Type
REMARK                         _______ _______ _______ _____ _____    ______ ____
ROOT
ATOM      1  N   UNL     1      46.369   5.190  12.736  0.00  0.00    +0.000 N 
ATOM      2  C   UNL     1      46.950   5.060  13.987  0.00  0.00    +0.000 A 
ATOM      3  N   UNL     1      46.593   4.045  14.785  0.00  0.00    +0.000 NA
ATOM      4  C   UNL     1      47.158   3.992  16.009  0.00  0.00    +0.000 A 
ATOM      5  C   UNL     1      48.087   4.900  16.454  0.00  0.00    +0.000 A 
ATOM      6  C   UNL     1      48.394   5.902  15.564  0.00  0.00    +0.000 A 
ATOM      7  N   UNL     1      47.842   6.004  14.333  0.00  0.00    +0.000 NA
ATOM      8  H   UNL     1      46.462   6.165  12.472  0.00  0.00    +0.000 HD
ENDROOT
BRANCH   5   9
ATOM      9  C   UNL     1      48.627   4.782  17.814  0.00  0.00    +0.000 C 
ATOM     10  N   UNL     1      47.750   4.795  18.862  0.00  0.00    +0.000 N 
ATOM     11  O   UNL     1      49.833   4.703  18.004  0.00  0.00    +0.000 OA
ATOM     12  H   UNL     1      46.786   5.084  18.788  0.00  0.00    +0.000 HD
ATOM     13  H   UNL     1      48.169   4.810  19.785  0.00  0.00    +0.000 HD
ENDBRANCH   5   9
BRANCH   1  14
ATOM     14  C   UNL     1      45.014   4.676  12.675  0.00  0.00    +0.000 C 
BRANCH  14  16
ATOM     15  C   UNL     1      43.167   5.710  11.222  0.00  0.00    +0.000 C 
ATOM     16  C   UNL     1      44.479   4.997  11.311  0.00  0.00    +0.000 C 
BRANCH  16  17
ATOM     17  C   UNL     1      44.965   4.201  10.176  0.00  0.00    +0.000 A 
ATOM     18  C   UNL     1      44.754   2.818  10.130  0.00  0.00    +0.000 A 
ATOM     19  C   UNL     1      45.142   2.082   9.008  0.00  0.00    +0.000 A 
ATOM     20  C   UNL     1      45.737   2.723   7.924  0.00  0.00    +0.000 A 
ATOM     21  C   UNL     1      45.966   4.096   7.969  0.00  0.00    +0.000 A 
ATOM     22  C   UNL     1      45.590   4.829   9.094  0.00  0.00    +0.000 A 
ENDBRANCH  16  17
ENDBRANCH  14  16
ENDBRANCH   1  14
TORSDOF 4
ENDMDL
MODEL 8
REMARK VINA RESULT:    -6.361      4.380      6.193
REMARK INTER + INTRA:          -8.338
REMARK INTER:                  -7.990
REMARK INTRA:                  -0.348
REMARK UNBOUND:                -0.489
REMARK  Name = 
REMARK  5 active torsions:
REMARK  status: ('A' for Active; 'I' for Inactive)
REMARK    1  A    between atoms: C_1  and  C_2
REMARK    2  A    between atoms: C_2  and  C_3
REMARK    3  A    between atoms: C_2  and  C_14
REMARK    4  A    between atoms: C_3  and  N_4
REMARK    5  A    between atoms: C_8  and  C_9
REMARK                            x       y       z     vdW  Elec       q    Type
REMARK                         _______ _______ _______ _____ _____    ______ ____
ROOT
ATOM      1  N   UNL     1      47.055   4.983  15.171  0.00  0.00    +0.000 N 
ATOM      2  C   UNL     1      46.528   5.002  13.889  0.00  0.00    +0.000 A 
ATOM      3  N   UNL     1      45.884   3.925  13.419  0.00  0.00    +0.000 NA
ATOM      4  C   UNL     1      45.429   3.982  12.151  0.00  0.00    +0.000 A 
ATOM      5  C   UNL     1      45.570   5.085  11.344  0.00  0.00    +0.000 A 
ATOM      6  C   UNL     1      46.238   6.141  11.915  0.00  0.00    +0.000 A 
ATOM      7  N   UNL     1      46.725   6.124  13.177  0.00  0.00    +0.000 NA
ATOM      8  H   UNL     1      47.793   5.679  15.191  0.00  0.00    +0.000 HD
ENDROOT
BRANCH   5   9
ATOM      9  C   UNL     1      45.070   5.046   9.964  0.00  0.00    +0.000 C 
ATOM     10  N   UNL     1      43.738   4.817   9.764  0.00  0.00    +0.000 N 
ATOM     11  O   UNL     1      45.833   5.189   9.018  0.00  0.00    +0.000 OA
ATOM     12  H   UNL     1      43.112   4.469  10.476  0.00  0.00    +0.000 HD
ATOM     13  H   UNL     1      43.452   4.701   8.799  0.00  0.00    +0.000 HD
ENDBRANCH   5   9
BRANCH   1  14
ATOM     14  C   UNL     1      47.461   3.661  15.607  0.00  0.00    +0.000 C 
BRANCH  14  16
ATOM     15  C   UNL     1      47.219   4.755  17.916  0.00  0.00    +0.000 C 
ATOM     16  C   UNL     1      47.930   3.787  17.026  0.00  0.00    +0.000 C 
BRANCH  16  17
ATOM     17  C   UNL     1      49.304   3.370  17.336  0.00  0.00    +0.000 A 
ATOM     18  C   UNL     1      49.752   2.084  17.013  0.00  0.00    +0.000 A 
ATOM     19  C   UNL     1      51.084   1.726  17.231  0.00  0.00    +0.000 A 
ATOM     20  C   UNL     1      51.977   2.650  17.770  0.00  0.00    +0.000 A 
ATOM     21  C   UNL     1      51.535   3.926  18.111  0.00  0.00    +0.000 A 
ATOM     22  C   UNL     1      50.202   4.280  17.904  0.00  0.00    +0.000 A 
ENDBRANCH  16  17
ENDBRANCH  14  16
ENDBRANCH   1  14
TORSDOF 4
ENDMDL
MODEL 9
REMARK VINA RESULT:    -6.183      4.635      6.541
REMARK INTER + INTRA:          -8.118
REMARK INTER:                  -7.777
REMARK INTRA:                  -0.342
REMARK UNBOUND:                -0.489
REMARK  Name = 
REMARK  5 active torsions:
REMARK  status: ('A' for Active; 'I' for Inactive)
REMARK    1  A    between atoms: C_1  and  C_2
REMARK    2  A    between atoms: C_2  and  C_3
REMARK    3  A    between atoms: C_2  and  C_14
REMARK    4  A    between atoms: C_3  and  N_4
REMARK    5  A    between atoms: C_8  and  C_9
REMARK                            x       y       z     vdW  Elec       q    Type
REMARK                         _______ _______ _______ _____ _____    ______ ____
ROOT
ATOM      1  N   UNL     1      47.220   3.589  14.732  0.00  0.00    +0.000 N 
ATOM      2  C   UNL     1      46.350   3.950  13.715  0.00  0.00    +0.000 A 
ATOM      3  N   UNL     1      45.990   5.232  13.572  0.00  0.00    +0.000 NA
ATOM      4  C   UNL     1      45.108   5.521  12.594  0.00  0.00    +0.000 A 
ATOM      5  C   UNL     1      44.592   4.580  11.736  0.00  0.00    +0.000 A 
ATOM      6  C   UNL     1      45.024   3.294  11.957  0.00  0.00    +0.000 A 
ATOM      7  N   UNL     1      45.896   2.955  12.935  0.00  0.00    +0.000 NA
ATOM      8  H   UNL     1      47.062   2.602  14.912  0.00  0.00    +0.000 HD
ENDROOT
BRANCH   5   9
ATOM      9  C   UNL     1      43.613   4.981  10.719  0.00  0.00    +0.000 C 
ATOM     10  N   UNL     1      43.846   4.627   9.421  0.00  0.00    +0.000 N 
ATOM     11  O   UNL     1      42.627   5.639  11.025  0.00  0.00    +0.000 OA
ATOM     12  H   UNL     1      44.735   4.293   9.077  0.00  0.00    +0.000 HD
ATOM     13  H   UNL     1      43.199   5.006   8.739  0.00  0.00    +0.000 HD
ENDBRANCH   5   9
BRANCH   1  14
ATOM     14  C   UNL     1      47.121   4.438  15.903  0.00  0.00    +0.000 C 
BRANCH  14  16
ATOM     15  C   UNL     1      48.654   2.546  16.717  0.00  0.00    +0.000 C 
ATOM     16  C   UNL     1      48.112   3.927  16.907  0.00  0.00    +0.000 C 
BRANCH  16  17
ATOM     17  C   UNL     1      48.128   4.550  18.237  0.00  0.00    +0.000 A 
ATOM     18  C   UNL     1      47.441   5.746  18.475  0.00  0.00    +0.000 A 
ATOM     19  C   UNL     1      47.388   6.286  19.762  0.00  0.00    +0.000 A 
ATOM     20  C   UNL     1      48.017   5.632  20.819  0.00  0.00    +0.000 A 
ATOM     21  C   UNL     1      48.718   4.452  20.588  0.00  0.00    +0.000 A 
ATOM     22  C   UNL     1      48.781   3.919  19.300  0.00  0.00    +0.000 A 
ENDBRANCH  16  17
ENDBRANCH  14  16
ENDBRANCH   1  14
TORSDOF 4
ENDMDL
