MODEL 1
REMARK VINA RESULT:    -7.769      0.000      0.000
REMARK INTER + INTRA:         -10.255
REMARK INTER:                  -9.812
REMARK INTRA:                  -0.443
REMARK UNBOUND:                -0.443
REMARK  Name = 
REMARK  5 active torsions:
REMARK  status: ('A' for Active; 'I' for Inactive)
REMARK    1  A    between atoms: N_1  and  C_2
REMARK    2  A    between atoms: C_2  and  C_3
REMARK    3  A    between atoms: C_3  and  C_4
REMARK    4  A    between atoms: C_7  and  C_8
REMARK    5  A    between atoms: C_8  and  C_9
REMARK                            x       y       z     vdW  Elec       q    Type
REMARK                         _______ _______ _______ _____ _____    ______ ____
ROOT
ATOM      1  C   UNL     1      46.079   2.395   7.776  0.00  0.00    +0.000 A 
ATOM      2  C   UNL     1      45.374   1.755   8.804  0.00  0.00    +0.000 A 
ATOM      3  C   UNL     1      44.730   2.496   9.798  0.00  0.00    +0.000 A 
ATOM      4  C   UNL     1      44.792   3.894   9.802  0.00  0.00    +0.000 A 
ATOM      5  C   UNL     1      45.513   4.534   8.784  0.00  0.00    +0.000 A 
ATOM      6  C   UNL     1      46.144   3.793   7.778  0.00  0.00    +0.000 A 
ENDROOT
BRANCH   1   7
ATOM      7  C   UNL     1      46.794   1.595   6.710  0.00  0.00    +0.000 C 
BRANCH   7   8
ATOM      8  C   UNL     1      48.181   2.155   6.362  0.00  0.00    +0.000 C 
BRANCH   8   9
ATOM      9  N   UNL     1      48.259   2.551   4.957  0.00  0.00    +0.000 NA
ATOM     10  H   UNL     1      48.821   1.870   4.448  0.00  0.00    +0.000 HD
ATOM     11  H   UNL     1      48.751   3.441   4.878  0.00  0.00    +0.000 HD
ENDBRANCH   8   9
ENDBRANCH   7   8
ENDBRANCH   1   7
BRANCH   4  12
ATOM     12  C   UNL     1      44.100   4.704  10.872  0.00  0.00    +0.000 C 
BRANCH  12  13
ATOM     13  C   UNL     1      44.867   4.816  12.146  0.00  0.00    +0.000 A 
ATOM     14  N   UNL     1      44.675   4.095  13.235  0.00  0.00    +0.000 NA
ATOM     15  N   UNL     1      45.671   4.390  14.139  0.00  0.00    +0.000 NA
ATOM     16  C   UNL     1      46.460   5.283  13.589  0.00  0.00    +0.000 A 
ATOM     17  C   UNL     1      47.659   5.909  14.027  0.00  0.00    +0.000 A 
ATOM     18  C   UNL     1      48.263   6.801  13.224  0.00  0.00    +0.000 A 
ATOM     19  F   UNL     1      49.411   7.396  13.608  0.00  0.00    +0.000 F 
ATOM     20  C   UNL     1      47.724   7.157  11.923  0.00  0.00    +0.000 A 
ATOM     21  C   UNL     1      46.597   6.557  11.501  0.00  0.00    +0.000 A 
ATOM     22  N   UNL     1      45.977   5.618  12.329  0.00  0.00    +0.000 N 
ENDBRANCH  12  13
ENDBRANCH   4  12
TORSDOF 5
ENDMDL
MODEL 2
REMARK VINA RESULT:    -7.268      1.319      1.874
REMARK INTER + INTRA:          -9.623
REMARK INTER:                  -9.224
REMARK INTRA:                  -0.399
REMARK UNBOUND:                -0.443
REMARK  Name = 
REMARK  5 active torsions:
REMARK  status: ('A' for Active; 'I' for Inactive)
REMARK    1  A    between atoms: N_1  and  C_2
REMARK    2  A    between atoms: C_2  and  C_3
REMARK    3  A    between atoms: C_3  and  C_4
REMARK    4  A    between atoms: C_7  and  C_8
REMARK    5  A    between atoms: C_8  and  C_9
REMARK                            x       y       z     vdW  Elec       q    Type
REMARK                         _______ _______ _______ _____ _____    ______ ____
ROOT
ATOM      1  C   UNL     1      45.875   2.576   8.129  0.00  0.00    +0.000 A 
ATOM      2  C   UNL     1      45.059   2.005   9.114  0.00  0.00    +0.000 A 
ATOM      3  C   UNL     1      44.353   2.809  10.013  0.00  0.00    +0.000 A 
ATOM      4  C   UNL     1      44.462   4.204   9.963  0.00  0.00    +0.000 A 
ATOM      5  C   UNL     1      45.294   4.775   8.990  0.00  0.00    +0.000 A 
ATOM      6  C   UNL     1      45.986   3.971   8.078  0.00  0.00    +0.000 A 
ENDROOT
BRANCH   1   7
ATOM      7  C   UNL     1      46.654   1.707   7.167  0.00  0.00    +0.000 C 
BRANCH   7   8
ATOM      8  C   UNL     1      48.040   2.276   6.827  0.00  0.00    +0.000 C 
BRANCH   8   9
ATOM      9  N   UNL     1      48.482   1.846   5.501  0.00  0.00    +0.000 NA
ATOM     10  H   UNL     1      49.246   1.179   5.604  0.00  0.00    +0.000 HD
ATOM     11  H   UNL     1      48.865   2.642   4.992  0.00  0.00    +0.000 HD
ENDBRANCH   8   9
ENDBRANCH   7   8
ENDBRANCH   1   7
BRANCH   4  12
ATOM     12  C   UNL     1      43.705   5.081  10.931  0.00  0.00    +0.000 C 
BRANCH  12  13
ATOM     13  C   UNL     1      44.439   6.311  11.346  0.00  0.00    +0.000 A 
ATOM     14  N   UNL     1      44.079   7.555  11.089  0.00  0.00    +0.000 NA
ATOM     15  N   UNL     1      44.929   8.405  11.760  0.00  0.00    +0.000 NA
ATOM     16  C   UNL     1      45.791   7.672  12.422  0.00  0.00    +0.000 A 
ATOM     17  C   UNL     1      46.851   7.997  13.313  0.00  0.00    +0.000 A 
ATOM     18  C   UNL     1      47.578   7.006  13.856  0.00  0.00    +0.000 A 
ATOM     19  F   UNL     1      48.577   7.287  14.718  0.00  0.00    +0.000 F 
ATOM     20  C   UNL     1      47.324   5.609  13.554  0.00  0.00    +0.000 A 
ATOM     21  C   UNL     1      46.315   5.297  12.722  0.00  0.00    +0.000 A 
ATOM     22  N   UNL     1      45.549   6.326  12.169  0.00  0.00    +0.000 N 
ENDBRANCH  12  13
ENDBRANCH   4  12
TORSDOF 5
ENDMDL
MODEL 3
REMARK VINA RESULT:    -6.939      3.101      6.859
REMARK INTER + INTRA:          -9.207
REMARK INTER:                  -8.714
REMARK INTRA:                  -0.493
REMARK UNBOUND:                -0.443
REMARK  Name = 
REMARK  5 active torsions:
REMARK  status: ('A' for Active; 'I' for Inactive)
REMARK    1  A    between atoms: N_1  and  C_2
REMARK    2  A    between atoms: C_2  and  C_3
REMARK    3  A    between atoms: C_3  and  C_4
REMARK    4  A    between atoms: C_7  and  C_8
REMARK    5  A    between atoms: C_8  and  C_9
REMARK                            x       y       z     vdW  Elec       q    Type
REMARK                         _______ _______ _______ _____ _____    ______ ____
ROOT
ATOM      1  C   UNL     1      46.810   4.754  14.251  0.00  0.00    +0.000 A 
ATOM      2  C   UNL     1      46.411   3.541  13.675  0.00  0.00    +0.000 A 
ATOM      3  C   UNL     1      45.666   3.522  12.492  0.00  0.00    +0.000 A 
ATOM      4  C   UNL     1      45.284   4.716  11.869  0.00  0.00    +0.000 A 
ATOM      5  C   UNL     1      45.666   5.930  12.456  0.00  0.00    +0.000 A 
ATOM      6  C   UNL     1      46.427   5.949  13.630  0.00  0.00    +0.000 A 
ENDROOT
BRANCH   1   7
ATOM      7  C   UNL     1      47.599   4.778  15.541  0.00  0.00    +0.000 C 
BRANCH   7   8
ATOM      8  C   UNL     1      47.640   3.415  16.249  0.00  0.00    +0.000 C 
BRANCH   8   9
ATOM      9  N   UNL     1      46.663   3.348  17.334  0.00  0.00    +0.000 NA
ATOM     10  H   UNL     1      47.133   3.053  18.190  0.00  0.00    +0.000 HD
ATOM     11  H   UNL     1      45.969   2.630  17.128  0.00  0.00    +0.000 HD
ENDBRANCH   8   9
ENDBRANCH   7   8
ENDBRANCH   1   7
BRANCH   4  12
ATOM     12  C   UNL     1      44.478   4.705  10.591  0.00  0.00    +0.000 C 
BRANCH  12  13
ATOM     13  C   UNL     1      45.290   4.494   9.358  0.00  0.00    +0.000 A 
ATOM     14  N   UNL     1      45.959   5.423   8.700  0.00  0.00    +0.000 NA
ATOM     15  N   UNL     1      46.696   4.813   7.709  0.00  0.00    +0.000 NA
ATOM     16  C   UNL     1      46.472   3.523   7.779  0.00  0.00    +0.000 A 
ATOM     17  C   UNL     1      46.990   2.414   7.054  0.00  0.00    +0.000 A 
ATOM     18  C   UNL     1      46.568   1.176   7.361  0.00  0.00    +0.000 A 
ATOM     19  F   UNL     1      47.057   0.106   6.701  0.00  0.00    +0.000 F 
ATOM     20  C   UNL     1      45.588   0.932   8.404  0.00  0.00    +0.000 A 
ATOM     21  C   UNL     1      45.105   1.976   9.100  0.00  0.00    +0.000 A 
ATOM     22  N   UNL     1      45.555   3.262   8.792  0.00  0.00    +0.000 N 
ENDBRANCH  12  13
ENDBRANCH   4  12
TORSDOF 5
ENDMDL
MODEL 4
REMARK VINA RESULT:    -6.549      3.003      6.259
REMARK INTER + INTRA:          -8.715
REMARK INTER:                  -8.293
REMARK INTRA:                  -0.422
REMARK UNBOUND:                -0.443
REMARK  Name = 
REMARK  5 active torsions:
REMARK  status: ('A' for Active; 'I' for Inactive)
REMARK    1  A    between atoms: N_1  and  C_2
REMARK    2  A    between atoms: C_2  and  C_3
REMARK    3  A    between atoms: C_3  and  C_4
REMARK    4  A    between atoms: C_7  and  C_8
REMARK    5  A    between atoms: C_8  and  C_9
REMARK                            x       y       z     vdW  Elec       q    Type
REMARK                         _______ _______ _______ _____ _____    ______ ____
ROOT
ATOM      1  C   UNL     1      46.781   7.650  13.185  0.00  0.00    +0.000 A 
ATOM      2  C   UNL     1      46.568   6.273  13.331  0.00  0.00    +0.000 A 
ATOM      3  C   UNL     1      45.538   5.632  12.639  0.00  0.00    +0.000 A 
ATOM      4  C   UNL     1      44.681   6.354  11.800  0.00  0.00    +0.000 A 
ATOM      5  C   UNL     1      44.882   7.735  11.668  0.00  0.00    +0.000 A 
ATOM      6  C   UNL     1      45.925   8.375  12.347  0.00  0.00    +0.000 A 
ENDROOT
BRANCH   1   7
ATOM      7  C   UNL     1      47.884   8.351  13.947  0.00  0.00    +0.000 C 
BRANCH   7   8
ATOM      8  C   UNL     1      49.269   8.166  13.311  0.00  0.00    +0.000 C 
BRANCH   8   9
ATOM      9  N   UNL     1      49.991   7.049  13.918  0.00  0.00    +0.000 NA
ATOM     10  H   UNL     1      49.341   6.280  14.081  0.00  0.00    +0.000 HD
ATOM     11  H   UNL     1      50.342   7.324  14.835  0.00  0.00    +0.000 HD
ENDBRANCH   8   9
ENDBRANCH   7   8
ENDBRANCH   1   7
BRANCH   4  12
ATOM     12  C   UNL     1      43.564   5.670  11.049  0.00  0.00    +0.000 C 
BRANCH  12  13
ATOM     13  C   UNL     1      43.854   4.255  10.675  0.00  0.00    +0.000 A 
ATOM     14  N   UNL     1      43.264   3.184  11.172  0.00  0.00    +0.000 NA
ATOM     15  N   UNL     1      43.699   2.080  10.473  0.00  0.00    +0.000 NA
ATOM     16  C   UNL     1      44.543   2.492   9.557  0.00  0.00    +0.000 A 
ATOM     17  C   UNL     1      45.257   1.815   8.530  0.00  0.00    +0.000 A 
ATOM     18  C   UNL     1      46.063   2.519   7.719  0.00  0.00    +0.000 A 
ATOM     19  F   UNL     1      46.738   1.904   6.725  0.00  0.00    +0.000 F 
ATOM     20  C   UNL     1      46.242   3.953   7.865  0.00  0.00    +0.000 A 
ATOM     21  C   UNL     1      45.559   4.598   8.827  0.00  0.00    +0.000 A 
ATOM     22  N   UNL     1      44.708   3.869   9.660  0.00  0.00    +0.000 N 
ENDBRANCH  12  13
ENDBRANCH   4  12
TORSDOF 5
ENDMDL
MODEL 5
REMARK VINA RESULT:    -5.980      3.143      6.425
REMARK INTER + INTRA:          -7.996
REMARK INTER:                  -7.712
REMARK INTRA:                  -0.284
REMARK UNBOUND:                -0.443
REMARK  Name = 
REMARK  5 active torsions:
REMARK  status: ('A' for Active; 'I' for Inactive)
REMARK    1  A    between atoms: N_1  and  C_2
REMARK    2  A    between atoms: C_2  and  C_3
REMARK    3  A    between atoms: C_3  and  C_4
REMARK    4  A    between atoms: C_7  and  C_8
REMARK    5  A    between atoms: C_8  and  C_9
REMARK                            x       y       z     vdW  Elec       q    Type
REMARK                         _______ _______ _______ _____ _____    ______ ____
ROOT
ATOM      1  C   UNL     1      46.129   6.950  12.619  0.00  0.00    +0.000 A 
ATOM      2  C   UNL     1      44.852   6.442  12.890  0.00  0.00    +0.000 A 
ATOM      3  C   UNL     1      44.175   5.667  11.945  0.00  0.00    +0.000 A 
ATOM      4  C   UNL     1      44.749   5.399  10.696  0.00  0.00    +0.000 A 
ATOM      5  C   UNL     1      46.019   5.923  10.417  0.00  0.00    +0.000 A 
ATOM      6  C   UNL     1      46.704   6.684  11.370  0.00  0.00    +0.000 A 
ENDROOT
BRANCH   1   7
ATOM      7  C   UNL     1      46.856   7.805  13.633  0.00  0.00    +0.000 C 
BRANCH   7   8
ATOM      8  C   UNL     1      48.384   7.738  13.495  0.00  0.00    +0.000 C 
BRANCH   8   9
ATOM      9  N   UNL     1      48.935   9.014  13.041  0.00  0.00    +0.000 NA
ATOM     10  H   UNL     1      48.252   9.481  12.446  0.00  0.00    +0.000 HD
ATOM     11  H   UNL     1      49.754   8.846  12.457  0.00  0.00    +0.000 HD
ENDBRANCH   8   9
ENDBRANCH   7   8
ENDBRANCH   1   7
BRANCH   4  12
ATOM     12  C   UNL     1      44.025   4.563   9.668  0.00  0.00    +0.000 C 
BRANCH  12  13
ATOM     13  C   UNL     1      44.727   3.299   9.302  0.00  0.00    +0.000 A 
ATOM     14  N   UNL     1      44.459   2.096   9.776  0.00  0.00    +0.000 NA
ATOM     15  N   UNL     1      45.219   1.175   9.090  0.00  0.00    +0.000 NA
ATOM     16  C   UNL     1      45.936   1.825   8.205  0.00  0.00    +0.000 A 
ATOM     17  C   UNL     1      46.849   1.398   7.202  0.00  0.00    +0.000 A 
ATOM     18  C   UNL     1      47.441   2.316   6.421  0.00  0.00    +0.000 A 
ATOM     19  F   UNL     1      48.297   1.936   5.450  0.00  0.00    +0.000 F 
ATOM     20  C   UNL     1      47.189   3.738   6.575  0.00  0.00    +0.000 A 
ATOM     21  C   UNL     1      46.317   4.145   7.514  0.00  0.00    +0.000 A 
ATOM     22  N   UNL     1      45.689   3.190   8.316  0.00  0.00    +0.000 N 
ENDBRANCH  12  13
ENDBRANCH   4  12
TORSDOF 5
ENDMDL
MODEL 6
REMARK VINA RESULT:    -5.748      3.099      6.413
REMARK INTER + INTRA:          -7.703
REMARK INTER:                  -7.286
REMARK INTRA:                  -0.417
REMARK UNBOUND:                -0.443
REMARK  Name = 
REMARK  5 active torsions:
REMARK  status: ('A' for Active; 'I' for Inactive)
REMARK    1  A    between atoms: N_1  and  C_2
REMARK    2  A    between atoms: C_2  and  C_3
REMARK    3  A    between atoms: C_3  and  C_4
REMARK    4  A    between atoms: C_7  and  C_8
REMARK    5  A    between atoms: C_8  and  C_9
REMARK                            x       y       z     vdW  Elec       q    Type
REMARK                         _______ _______ _______ _____ _____    ______ ____
ROOT
ATOM      1  C   UNL     1      49.710   8.086  12.332  0.00  0.00    +0.000 A 
ATOM      2  C   UNL     1      48.662   8.895  11.874  0.00  0.00    +0.000 A 
ATOM      3  C   UNL     1      47.330   8.512  12.055  0.00  0.00    +0.000 A 
ATOM      4  C   UNL     1      47.014   7.300  12.680  0.00  0.00    +0.000 A 
ATOM      5  C   UNL     1      48.063   6.481  13.122  0.00  0.00    +0.000 A 
ATOM      6  C   UNL     1      49.396   6.873  12.956  0.00  0.00    +0.000 A 
ENDROOT
BRANCH   1   7
ATOM      7  C   UNL     1      51.152   8.490  12.119  0.00  0.00    +0.000 C 
BRANCH   7   8
ATOM      8  C   UNL     1      51.870   8.873  13.422  0.00  0.00    +0.000 C 
BRANCH   8   9
ATOM      9  N   UNL     1      52.752   7.800  13.880  0.00  0.00    +0.000 NA
ATOM     10  H   UNL     1      52.278   7.265  14.607  0.00  0.00    +0.000 HD
ATOM     11  H   UNL     1      53.582   8.200  14.316  0.00  0.00    +0.000 HD
ENDBRANCH   8   9
ENDBRANCH   7   8
ENDBRANCH   1   7
BRANCH   4  12
ATOM     12  C   UNL     1      45.578   6.876  12.880  0.00  0.00    +0.000 C 
BRANCH  12  13
ATOM     13  C   UNL     1      45.324   5.431  12.613  0.00  0.00    +0.000 A 
ATOM     14  N   UNL     1      45.030   4.514  13.517  0.00  0.00    +0.000 NA
ATOM     15  N   UNL     1      44.724   3.340  12.866  0.00  0.00    +0.000 NA
ATOM     16  C   UNL     1      44.829   3.556  11.577  0.00  0.00    +0.000 A 
ATOM     17  C   UNL     1      44.589   2.736  10.439  0.00  0.00    +0.000 A 
ATOM     18  C   UNL     1      44.782   3.247   9.211  0.00  0.00    +0.000 A 
ATOM     19  F   UNL     1      44.544   2.497   8.116  0.00  0.00    +0.000 F 
ATOM     20  C   UNL     1      45.242   4.609   9.007  0.00  0.00    +0.000 A 
ATOM     21  C   UNL     1      45.459   5.390  10.079  0.00  0.00    +0.000 A 
ATOM     22  N   UNL     1      45.243   4.865  11.355  0.00  0.00    +0.000 N 
ENDBRANCH  12  13
ENDBRANCH   4  12
TORSDOF 5
ENDMDL
MODEL 7
REMARK VINA RESULT:    -5.748      3.072      6.226
REMARK INTER + INTRA:          -7.702
REMARK INTER:                  -7.416
REMARK INTRA:                  -0.286
REMARK UNBOUND:                -0.443
REMARK  Name = 
REMARK  5 active torsions:
REMARK  status: ('A' for Active; 'I' for Inactive)
REMARK    1  A    between atoms: N_1  and  C_2
REMARK    2  A    between atoms: C_2  and  C_3
REMARK    3  A    between atoms: C_3  and  C_4
REMARK    4  A    between atoms: C_7  and  C_8
REMARK    5  A    between atoms: C_8  and  C_9
REMARK                            x       y       z     vdW  Elec       q    Type
REMARK                         _______ _______ _______ _____ _____    ______ ____
ROOT
ATOM      1  C   UNL     1      48.919   8.169  12.262  0.00  0.00    +0.000 A 
ATOM      2  C   UNL     1      47.782   8.966  12.076  0.00  0.00    +0.000 A 
ATOM      3  C   UNL     1      46.503   8.449  12.296  0.00  0.00    +0.000 A 
ATOM      4  C   UNL     1      46.328   7.116  12.687  0.00  0.00    +0.000 A 
ATOM      5  C   UNL     1      47.464   6.313  12.854  0.00  0.00    +0.000 A 
ATOM      6  C   UNL     1      48.746   6.835  12.651  0.00  0.00    +0.000 A 
ENDROOT
BRANCH   1   7
ATOM      7  C   UNL     1      50.304   8.721  12.006  0.00  0.00    +0.000 C 
BRANCH   7   8
ATOM      8  C   UNL     1      50.354  10.255  12.015  0.00  0.00    +0.000 C 
BRANCH   8   9
ATOM      9  N   UNL     1      50.670  10.787  10.691  0.00  0.00    +0.000 NA
ATOM     10  H   UNL     1      51.267  11.608  10.793  0.00  0.00    +0.000 HD
ATOM     11  H   UNL     1      49.816  11.112  10.237  0.00  0.00    +0.000 HD
ENDBRANCH   8   9
ENDBRANCH   7   8
ENDBRANCH   1   7
BRANCH   4  12
ATOM     12  C   UNL     1      44.949   6.547  12.926  0.00  0.00    +0.000 C 
BRANCH  12  13
ATOM     13  C   UNL     1      44.796   5.121  12.518  0.00  0.00    +0.000 A 
ATOM     14  N   UNL     1      44.391   4.131  13.292  0.00  0.00    +0.000 NA
ATOM     15  N   UNL     1      44.240   3.002  12.518  0.00  0.00    +0.000 NA
ATOM     16  C   UNL     1      44.549   3.318  11.283  0.00  0.00    +0.000 A 
ATOM     17  C   UNL     1      44.530   2.582  10.066  0.00  0.00    +0.000 A 
ATOM     18  C   UNL     1      44.905   3.190   8.928  0.00  0.00    +0.000 A 
ATOM     19  F   UNL     1      44.879   2.519   7.757  0.00  0.00    +0.000 F 
ATOM     20  C   UNL     1      45.342   4.574   8.900  0.00  0.00    +0.000 A 
ATOM     21  C   UNL     1      45.349   5.276  10.046  0.00  0.00    +0.000 A 
ATOM     22  N   UNL     1      44.945   4.650  11.228  0.00  0.00    +0.000 N 
ENDBRANCH  12  13
ENDBRANCH   4  12
TORSDOF 5
ENDMDL
MODEL 8
REMARK VINA RESULT:    -5.579      2.222      3.041
REMARK INTER + INTRA:          -7.489
REMARK INTER:                  -7.072
REMARK INTRA:                  -0.417
REMARK UNBOUND:                -0.443
REMARK  Name = 
REMARK  5 active torsions:
REMARK  status: ('A' for Active; 'I' for Inactive)
REMARK    1  A    between atoms: N_1  and  C_2
REMARK    2  A    between atoms: C_2  and  C_3
REMARK    3  A    between atoms: C_3  and  C_4
REMARK    4  A    between atoms: C_7  and  C_8
REMARK    5  A    between atoms: C_8  and  C_9
REMARK                            x       y       z     vdW  Elec       q    Type
REMARK                         _______ _______ _______ _____ _____    ______ ____
ROOT
ATOM      1  C   UNL     1      44.779   3.304   9.807  0.00  0.00    +0.000 A 
ATOM      2  C   UNL     1      44.242   3.161  11.093  0.00  0.00    +0.000 A 
ATOM      3  C   UNL     1      44.340   4.194  12.028  0.00  0.00    +0.000 A 
ATOM      4  C   UNL     1      44.997   5.389  11.708  0.00  0.00    +0.000 A 
ATOM      5  C   UNL     1      45.551   5.525  10.428  0.00  0.00    +0.000 A 
ATOM      6  C   UNL     1      45.437   4.497   9.485  0.00  0.00    +0.000 A 
ENDROOT
BRANCH   1   7
ATOM      7  C   UNL     1      44.691   2.180   8.799  0.00  0.00    +0.000 C 
BRANCH   7   8
ATOM      8  C   UNL     1      45.978   2.000   7.981  0.00  0.00    +0.000 C 
BRANCH   8   9
ATOM      9  N   UNL     1      46.463   0.622   8.046  0.00  0.00    +0.000 NA
ATOM     10  H   UNL     1      47.039   0.508   8.879  0.00  0.00    +0.000 HD
ATOM     11  H   UNL     1      47.073   0.434   7.251  0.00  0.00    +0.000 HD
ENDBRANCH   8   9
ENDBRANCH   7   8
ENDBRANCH   1   7
BRANCH   4  12
ATOM     12  C   UNL     1      45.109   6.511  12.712  0.00  0.00    +0.000 C 
BRANCH  12  13
ATOM     13  C   UNL     1      46.509   6.839  13.110  0.00  0.00    +0.000 A 
ATOM     14  N   UNL     1      47.367   6.014  13.682  0.00  0.00    +0.000 NA
ATOM     15  N   UNL     1      48.592   6.639  13.756  0.00  0.00    +0.000 NA
ATOM     16  C   UNL     1      48.467   7.832  13.224  0.00  0.00    +0.000 A 
ATOM     17  C   UNL     1      49.396   8.882  12.985  0.00  0.00    +0.000 A 
ATOM     18  C   UNL     1      48.967  10.015  12.403  0.00  0.00    +0.000 A 
ATOM     19  F   UNL     1      49.831  11.019  12.148  0.00  0.00    +0.000 F 
ATOM     20  C   UNL     1      47.580  10.208  12.020  0.00  0.00    +0.000 A 
ATOM     21  C   UNL     1      46.702   9.213  12.234  0.00  0.00    +0.000 A 
ATOM     22  N   UNL     1      47.150   8.029  12.825  0.00  0.00    +0.000 N 
ENDBRANCH  12  13
ENDBRANCH   4  12
TORSDOF 5
ENDMDL
MODEL 9
REMARK VINA RESULT:    -5.543      4.687      8.013
REMARK INTER + INTRA:          -7.444
REMARK INTER:                  -7.040
REMARK INTRA:                  -0.404
REMARK UNBOUND:                -0.443
REMARK  Name = 
REMARK  5 active torsions:
REMARK  status: ('A' for Active; 'I' for Inactive)
REMARK    1  A    between atoms: N_1  and  C_2
REMARK    2  A    between atoms: C_2  and  C_3
REMARK    3  A    between atoms: C_3  and  C_4
REMARK    4  A    between atoms: C_7  and  C_8
REMARK    5  A    between atoms: C_8  and  C_9
REMARK                            x       y       z     vdW  Elec       q    Type
REMARK                         _______ _______ _______ _____ _____    ______ ____
ROOT
ATOM      1  C   UNL     1      51.797   2.653  17.732  0.00  0.00    +0.000 A 
ATOM      2  C   UNL     1      51.651   4.028  17.959  0.00  0.00    +0.000 A 
ATOM      3  C   UNL     1      50.420   4.659  17.759  0.00  0.00    +0.000 A 
ATOM      4  C   UNL     1      49.311   3.935  17.306  0.00  0.00    +0.000 A 
ATOM      5  C   UNL     1      49.462   2.563  17.060  0.00  0.00    +0.000 A 
ATOM      6  C   UNL     1      50.689   1.928  17.278  0.00  0.00    +0.000 A 
ENDROOT
BRANCH   1   7
ATOM      7  C   UNL     1      53.133   1.971  17.930  0.00  0.00    +0.000 C 
BRANCH   7   8
ATOM      8  C   UNL     1      53.195   0.572  17.302  0.00  0.00    +0.000 C 
BRANCH   8   9
ATOM      9  N   UNL     1      53.037  -0.474  18.311  0.00  0.00    +0.000 NA
ATOM     10  H   UNL     1      52.240  -0.248  18.905  0.00  0.00    +0.000 HD
ATOM     11  H   UNL     1      53.853  -0.487  18.923  0.00  0.00    +0.000 HD
ENDBRANCH   8   9
ENDBRANCH   7   8
ENDBRANCH   1   7
BRANCH   4  12
ATOM     12  C   UNL     1      47.977   4.608  17.085  0.00  0.00    +0.000 C 
BRANCH  12  13
ATOM     13  C   UNL     1      47.509   4.590  15.669  0.00  0.00    +0.000 A 
ATOM     14  N   UNL     1      46.681   3.710  15.135  0.00  0.00    +0.000 NA
ATOM     15  N   UNL     1      46.379   4.113  13.854  0.00  0.00    +0.000 NA
ATOM     16  C   UNL     1      47.021   5.234  13.624  0.00  0.00    +0.000 A 
ATOM     17  C   UNL     1      47.049   6.117  12.509  0.00  0.00    +0.000 A 
ATOM     18  C   UNL     1      47.816   7.219  12.566  0.00  0.00    +0.000 A 
ATOM     19  F   UNL     1      47.846   8.083  11.530  0.00  0.00    +0.000 F 
ATOM     20  C   UNL     1      48.629   7.534  13.728  0.00  0.00    +0.000 A 
ATOM     21  C   UNL     1      48.595   6.708  14.788  0.00  0.00    +0.000 A 
ATOM     22  N   UNL     1      47.786   5.570  14.735  0.00  0.00    +0.000 N 
ENDBRANCH  12  13
ENDBRANCH   4  12
TORSDOF 5
ENDMDL
