MODEL 1
REMARK VINA RESULT:    -7.220      0.000      0.000
REMARK INTER + INTRA:          -9.127
REMARK INTER:                  -8.698
REMARK INTRA:                  -0.429
REMARK UNBOUND:                -0.429
REMARK  Name = 
REMARK  4 active torsions:
REMARK  status: ('A' for Active; 'I' for Inactive)
REMARK    1  A    between atoms: N_1  and  C_2
REMARK    2  A    between atoms: C_2  and  C_3
REMARK    3  A    between atoms: C_6  and  C_7
REMARK    4  A    between atoms: C_7  and  N_8
REMARK                            x       y       z     vdW  Elec       q    Type
REMARK                         _______ _______ _______ _____ _____    ______ ____
ROOT
ATOM      1  C   UNL     1      43.793   3.941  10.511  0.00  0.00    +0.000 C 
ENDROOT
BRANCH   1   2
ATOM      2  N   UNL     1      44.147   5.053  11.382  0.00  0.00    +0.000 N 
ATOM      3  C   UNL     1      43.984   6.371  11.035  0.00  0.00    +0.000 A 
ATOM      4  N   UNL     1      44.940   7.123  11.531  0.00  0.00    +0.000 NA
ATOM      5  C   UNL     1      45.697   6.285  12.311  0.00  0.00    +0.000 A 
ATOM      6  C   UNL     1      46.882   6.521  13.019  0.00  0.00    +0.000 A 
ATOM      7  N   UNL     1      47.434   5.540  13.782  0.00  0.00    +0.000 NA
ATOM      8  C   UNL     1      46.807   4.345  13.844  0.00  0.00    +0.000 A 
ATOM      9 CL   UNL     1      47.558   3.210  14.892  0.00  0.00    +0.000 Cl
ATOM     10  C   UNL     1      45.665   3.987  13.138  0.00  0.00    +0.000 A 
ATOM     11  C   UNL     1      45.144   5.005  12.337  0.00  0.00    +0.000 A 
ENDBRANCH   1   2
BRANCH   1  15
ATOM     12  C   UNL     1      46.483   2.534   7.539  0.00  0.00    +0.000 A 
ATOM     13  C   UNL     1      46.294   3.908   7.657  0.00  0.00    +0.000 A 
ATOM     14  C   UNL     1      45.471   4.392   8.671  0.00  0.00    +0.000 A 
ATOM     15  C   UNL     1      44.854   3.498   9.552  0.00  0.00    +0.000 A 
ATOM     16  C   UNL     1      45.146   2.146   9.388  0.00  0.00    +0.000 A 
ATOM     17  N   UNL     1      45.943   1.650   8.413  0.00  0.00    +0.000 NA
BRANCH  12  18
ATOM     18  C   UNL     1      47.288   1.968   6.385  0.00  0.00    +0.000 C 
BRANCH  18  19
ATOM     19  N   UNL     1      48.657   2.487   6.331  0.00  0.00    +0.000 NA
ATOM     20  H   UNL     1      48.743   3.083   5.510  0.00  0.00    +0.000 HD
ATOM     21  H   UNL     1      49.282   1.697   6.168  0.00  0.00    +0.000 HD
ENDBRANCH  18  19
ENDBRANCH  12  18
ENDBRANCH   1  15
TORSDOF 4
ENDMDL
MODEL 2
REMARK VINA RESULT:    -7.189      1.929      2.102
REMARK INTER + INTRA:          -9.089
REMARK INTER:                  -8.741
REMARK INTRA:                  -0.348
REMARK UNBOUND:                -0.429
REMARK  Name = 
REMARK  4 active torsions:
REMARK  status: ('A' for Active; 'I' for Inactive)
REMARK    1  A    between atoms: N_1  and  C_2
REMARK    2  A    between atoms: C_2  and  C_3
REMARK    3  A    between atoms: C_6  and  C_7
REMARK    4  A    between atoms: C_7  and  N_8
REMARK                            x       y       z     vdW  Elec       q    Type
REMARK                         _______ _______ _______ _____ _____    ______ ____
ROOT
ATOM      1  C   UNL     1      43.920   4.353   9.609  0.00  0.00    +0.000 C 
ENDROOT
BRANCH   1   2
ATOM      2  N   UNL     1      44.128   4.661  11.017  0.00  0.00    +0.000 N 
ATOM      3  C   UNL     1      43.138   4.592  11.964  0.00  0.00    +0.000 A 
ATOM      4  N   UNL     1      43.280   5.522  12.881  0.00  0.00    +0.000 NA
ATOM      5  C   UNL     1      44.459   6.157  12.578  0.00  0.00    +0.000 A 
ATOM      6  C   UNL     1      45.072   7.270  13.166  0.00  0.00    +0.000 A 
ATOM      7  N   UNL     1      46.287   7.696  12.729  0.00  0.00    +0.000 NA
ATOM      8  C   UNL     1      46.884   7.015  11.727  0.00  0.00    +0.000 A 
ATOM      9 CL   UNL     1      48.443   7.602  11.308  0.00  0.00    +0.000 Cl
ATOM     10  C   UNL     1      46.340   5.939  11.036  0.00  0.00    +0.000 A 
ATOM     11  C   UNL     1      45.077   5.549  11.486  0.00  0.00    +0.000 A 
ENDBRANCH   1   2
BRANCH   1  15
ATOM     12  C   UNL     1      46.736   2.011   7.458  0.00  0.00    +0.000 A 
ATOM     13  C   UNL     1      46.665   3.373   7.179  0.00  0.00    +0.000 A 
ATOM     14  C   UNL     1      45.798   4.170   7.923  0.00  0.00    +0.000 A 
ATOM     15  C   UNL     1      45.020   3.596   8.934  0.00  0.00    +0.000 A 
ATOM     16  C   UNL     1      45.200   2.236   9.175  0.00  0.00    +0.000 A 
ATOM     17  N   UNL     1      46.037   1.440   8.469  0.00  0.00    +0.000 NA
BRANCH  12  18
ATOM     18  C   UNL     1      47.590   1.098   6.600  0.00  0.00    +0.000 C 
BRANCH  18  19
ATOM     19  N   UNL     1      48.482   1.829   5.695  0.00  0.00    +0.000 NA
ATOM     20  H   UNL     1      48.183   1.653   4.738  0.00  0.00    +0.000 HD
ATOM     21  H   UNL     1      49.411   1.416   5.777  0.00  0.00    +0.000 HD
ENDBRANCH  18  19
ENDBRANCH  12  18
ENDBRANCH   1  15
TORSDOF 4
ENDMDL
MODEL 3
REMARK VINA RESULT:    -6.749      2.422      5.899
REMARK INTER + INTRA:          -8.559
REMARK INTER:                  -8.187
REMARK INTRA:                  -0.371
REMARK UNBOUND:                -0.429
REMARK  Name = 
REMARK  4 active torsions:
REMARK  status: ('A' for Active; 'I' for Inactive)
REMARK    1  A    between atoms: N_1  and  C_2
REMARK    2  A    between atoms: C_2  and  C_3
REMARK    3  A    between atoms: C_6  and  C_7
REMARK    4  A    between atoms: C_7  and  N_8
REMARK                            x       y       z     vdW  Elec       q    Type
REMARK                         _______ _______ _______ _____ _____    ______ ____
ROOT
ATOM      1  C   UNL     1      44.267   6.088  11.191  0.00  0.00    +0.000 C 
ENDROOT
BRANCH   1   2
ATOM      2  N   UNL     1      43.798   4.811  10.669  0.00  0.00    +0.000 N 
ATOM      3  C   UNL     1      43.077   3.908  11.409  0.00  0.00    +0.000 A 
ATOM      4  N   UNL     1      43.377   2.670  11.088  0.00  0.00    +0.000 NA
ATOM      5  C   UNL     1      44.251   2.768  10.033  0.00  0.00    +0.000 A 
ATOM      6  C   UNL     1      44.953   1.777   9.337  0.00  0.00    +0.000 A 
ATOM      7  N   UNL     1      45.733   2.107   8.272  0.00  0.00    +0.000 NA
ATOM      8  C   UNL     1      45.800   3.404   7.903  0.00  0.00    +0.000 A 
ATOM      9 CL   UNL     1      46.757   3.690   6.506  0.00  0.00    +0.000 Cl
ATOM     10  C   UNL     1      45.194   4.470   8.558  0.00  0.00    +0.000 A 
ATOM     11  C   UNL     1      44.431   4.102   9.667  0.00  0.00    +0.000 A 
ENDBRANCH   1   2
BRANCH   1  15
ATOM     12  C   UNL     1      47.706   6.326  13.674  0.00  0.00    +0.000 A 
ATOM     13  C   UNL     1      46.747   5.361  13.969  0.00  0.00    +0.000 A 
ATOM     14  C   UNL     1      45.648   5.221  13.126  0.00  0.00    +0.000 A 
ATOM     15  C   UNL     1      45.525   6.042  12.001  0.00  0.00    +0.000 A 
ATOM     16  C   UNL     1      46.561   6.940  11.757  0.00  0.00    +0.000 A 
ATOM     17  N   UNL     1      47.641   7.095  12.560  0.00  0.00    +0.000 NA
BRANCH  12  18
ATOM     18  C   UNL     1      48.860   6.576  14.625  0.00  0.00    +0.000 C 
BRANCH  18  19
ATOM     19  N   UNL     1      50.035   7.151  13.964  0.00  0.00    +0.000 NA
ATOM     20  H   UNL     1      49.911   8.160  13.910  0.00  0.00    +0.000 HD
ATOM     21  H   UNL     1      50.041   6.819  13.000  0.00  0.00    +0.000 HD
ENDBRANCH  18  19
ENDBRANCH  12  18
ENDBRANCH   1  15
TORSDOF 4
ENDMDL
MODEL 4
REMARK VINA RESULT:    -6.280      2.202      3.079
REMARK INTER + INTRA:          -7.994
REMARK INTER:                  -7.595
REMARK INTRA:                  -0.399
REMARK UNBOUND:                -0.429
REMARK  Name = 
REMARK  4 active torsions:
REMARK  status: ('A' for Active; 'I' for Inactive)
REMARK    1  A    between atoms: N_1  and  C_2
REMARK    2  A    between atoms: C_2  and  C_3
REMARK    3  A    between atoms: C_6  and  C_7
REMARK    4  A    between atoms: C_7  and  N_8
REMARK                            x       y       z     vdW  Elec       q    Type
REMARK                         _______ _______ _______ _____ _____    ______ ____
ROOT
ATOM      1  C   UNL     1      44.972   4.989  11.613  0.00  0.00    +0.000 C 
ENDROOT
BRANCH   1   2
ATOM      2  N   UNL     1      46.155   4.942  12.461  0.00  0.00    +0.000 N 
ATOM      3  C   UNL     1      46.249   4.168  13.591  0.00  0.00    +0.000 A 
ATOM      4  N   UNL     1      46.962   4.758  14.523  0.00  0.00    +0.000 NA
ATOM      5  C   UNL     1      47.434   5.912  13.947  0.00  0.00    +0.000 A 
ATOM      6  C   UNL     1      48.183   6.961  14.492  0.00  0.00    +0.000 A 
ATOM      7  N   UNL     1      48.592   7.993  13.706  0.00  0.00    +0.000 NA
ATOM      8  C   UNL     1      48.266   7.971  12.395  0.00  0.00    +0.000 A 
ATOM      9 CL   UNL     1      48.896   9.289  11.491  0.00  0.00    +0.000 Cl
ATOM     10  C   UNL     1      47.480   7.012  11.768  0.00  0.00    +0.000 A 
ATOM     11  C   UNL     1      47.047   5.986  12.609  0.00  0.00    +0.000 A 
ENDBRANCH   1   2
BRANCH   1  15
ATOM     12  C   UNL     1      45.856   3.397   7.774  0.00  0.00    +0.000 A 
ATOM     13  C   UNL     1      45.226   2.570   8.700  0.00  0.00    +0.000 A 
ATOM     14  C   UNL     1      44.865   3.095   9.939  0.00  0.00    +0.000 A 
ATOM     15  C   UNL     1      45.134   4.435  10.232  0.00  0.00    +0.000 A 
ATOM     16  C   UNL     1      45.717   5.198   9.223  0.00  0.00    +0.000 A 
ATOM     17  N   UNL     1      46.076   4.713   8.011  0.00  0.00    +0.000 NA
BRANCH  12  18
ATOM     18  C   UNL     1      46.356   2.833   6.459  0.00  0.00    +0.000 C 
BRANCH  18  19
ATOM     19  N   UNL     1      47.803   2.983   6.283  0.00  0.00    +0.000 NA
ATOM     20  H   UNL     1      48.125   2.258   5.644  0.00  0.00    +0.000 HD
ATOM     21  H   UNL     1      48.246   2.780   7.179  0.00  0.00    +0.000 HD
ENDBRANCH  18  19
ENDBRANCH  12  18
ENDBRANCH   1  15
TORSDOF 4
ENDMDL
MODEL 5
REMARK VINA RESULT:    -6.152      3.197      6.229
REMARK INTER + INTRA:          -7.840
REMARK INTER:                  -7.418
REMARK INTRA:                  -0.422
REMARK UNBOUND:                -0.429
REMARK  Name = 
REMARK  4 active torsions:
REMARK  status: ('A' for Active; 'I' for Inactive)
REMARK    1  A    between atoms: N_1  and  C_2
REMARK    2  A    between atoms: C_2  and  C_3
REMARK    3  A    between atoms: C_6  and  C_7
REMARK    4  A    between atoms: C_7  and  N_8
REMARK                            x       y       z     vdW  Elec       q    Type
REMARK                         _______ _______ _______ _____ _____    ______ ____
ROOT
ATOM      1  C   UNL     1      47.624   6.462  12.356  0.00  0.00    +0.000 C 
ENDROOT
BRANCH   1   2
ATOM      2  N   UNL     1      46.370   6.922  11.776  0.00  0.00    +0.000 N 
ATOM      3  C   UNL     1      45.667   8.002  12.248  0.00  0.00    +0.000 A 
ATOM      4  N   UNL     1      44.370   7.821  12.137  0.00  0.00    +0.000 NA
ATOM      5  C   UNL     1      44.223   6.625  11.480  0.00  0.00    +0.000 A 
ATOM      6  C   UNL     1      43.071   5.898  11.157  0.00  0.00    +0.000 A 
ATOM      7  N   UNL     1      43.164   4.746  10.440  0.00  0.00    +0.000 NA
ATOM      8  C   UNL     1      44.387   4.332  10.045  0.00  0.00    +0.000 A 
ATOM      9 CL   UNL     1      44.372   2.905   9.089  0.00  0.00    +0.000 Cl
ATOM     10  C   UNL     1      45.595   4.942  10.361  0.00  0.00    +0.000 A 
ATOM     11  C   UNL     1      45.467   6.102  11.127  0.00  0.00    +0.000 A 
ENDBRANCH   1   2
BRANCH   1  15
ATOM     12  C   UNL     1      47.638   4.411  16.076  0.00  0.00    +0.000 A 
ATOM     13  C   UNL     1      48.276   5.646  16.004  0.00  0.00    +0.000 A 
ATOM     14  C   UNL     1      48.222   6.366  14.812  0.00  0.00    +0.000 A 
ATOM     15  C   UNL     1      47.530   5.844  13.715  0.00  0.00    +0.000 A 
ATOM     16  C   UNL     1      46.877   4.628  13.900  0.00  0.00    +0.000 A 
ATOM     17  N   UNL     1      46.912   3.909  15.047  0.00  0.00    +0.000 NA
BRANCH  12  18
ATOM     18  C   UNL     1      47.764   3.555  17.321  0.00  0.00    +0.000 C 
BRANCH  18  19
ATOM     19  N   UNL     1      46.515   2.880  17.683  0.00  0.00    +0.000 NA
ATOM     20  H   UNL     1      46.706   1.885  17.786  0.00  0.00    +0.000 HD
ATOM     21  H   UNL     1      45.879   2.959  16.890  0.00  0.00    +0.000 HD
ENDBRANCH  18  19
ENDBRANCH  12  18
ENDBRANCH   1  15
TORSDOF 4
ENDMDL
MODEL 6
REMARK VINA RESULT:    -6.094      3.796      7.111
REMARK INTER + INTRA:          -7.770
REMARK INTER:                  -7.390
REMARK INTRA:                  -0.380
REMARK UNBOUND:                -0.429
REMARK  Name = 
REMARK  4 active torsions:
REMARK  status: ('A' for Active; 'I' for Inactive)
REMARK    1  A    between atoms: N_1  and  C_2
REMARK    2  A    between atoms: C_2  and  C_3
REMARK    3  A    between atoms: C_6  and  C_7
REMARK    4  A    between atoms: C_7  and  N_8
REMARK                            x       y       z     vdW  Elec       q    Type
REMARK                         _______ _______ _______ _____ _____    ______ ____
ROOT
ATOM      1  C   UNL     1      47.157   4.579  16.015  0.00  0.00    +0.000 C 
ENDROOT
BRANCH   1   2
ATOM      2  N   UNL     1      47.368   5.129  14.683  0.00  0.00    +0.000 N 
ATOM      3  C   UNL     1      48.084   6.274  14.439  0.00  0.00    +0.000 A 
ATOM      4  N   UNL     1      47.582   6.955  13.434  0.00  0.00    +0.000 NA
ATOM      5  C   UNL     1      46.562   6.178  12.940  0.00  0.00    +0.000 A 
ATOM      6  C   UNL     1      45.634   6.432  11.924  0.00  0.00    +0.000 A 
ATOM      7  N   UNL     1      44.735   5.478  11.561  0.00  0.00    +0.000 NA
ATOM      8  C   UNL     1      44.770   4.287  12.198  0.00  0.00    +0.000 A 
ATOM      9 CL   UNL     1      43.635   3.140  11.608  0.00  0.00    +0.000 Cl
ATOM     10  C   UNL     1      45.606   3.954  13.256  0.00  0.00    +0.000 A 
ATOM     11  C   UNL     1      46.492   4.966  13.627  0.00  0.00    +0.000 A 
ENDBRANCH   1   2
BRANCH   1  15
ATOM     12  C   UNL     1      50.494   2.213  17.162  0.00  0.00    +0.000 A 
ATOM     13  C   UNL     1      50.332   3.458  17.765  0.00  0.00    +0.000 A 
ATOM     14  C   UNL     1      49.206   4.217  17.454  0.00  0.00    +0.000 A 
ATOM     15  C   UNL     1      48.261   3.722  16.551  0.00  0.00    +0.000 A 
ATOM     16  C   UNL     1      48.481   2.445  16.042  0.00  0.00    +0.000 A 
ATOM     17  N   UNL     1      49.565   1.685  16.329  0.00  0.00    +0.000 NA
BRANCH  12  18
ATOM     18  C   UNL     1      51.756   1.407  17.398  0.00  0.00    +0.000 C 
BRANCH  18  19
ATOM     19  N   UNL     1      51.520   0.182  18.167  0.00  0.00    +0.000 NA
ATOM     20  H   UNL     1      52.413  -0.145  18.532  0.00  0.00    +0.000 HD
ATOM     21  H   UNL     1      51.206  -0.537  17.516  0.00  0.00    +0.000 HD
ENDBRANCH  18  19
ENDBRANCH  12  18
ENDBRANCH   1  15
TORSDOF 4
ENDMDL
MODEL 7
REMARK VINA RESULT:    -5.736      2.673      6.273
REMARK INTER + INTRA:          -7.339
REMARK INTER:                  -7.075
REMARK INTRA:                  -0.263
REMARK UNBOUND:                -0.429
REMARK  Name = 
REMARK  4 active torsions:
REMARK  status: ('A' for Active; 'I' for Inactive)
REMARK    1  A    between atoms: N_1  and  C_2
REMARK    2  A    between atoms: C_2  and  C_3
REMARK    3  A    between atoms: C_6  and  C_7
REMARK    4  A    between atoms: C_7  and  N_8
REMARK                            x       y       z     vdW  Elec       q    Type
REMARK                         _______ _______ _______ _____ _____    ______ ____
ROOT
ATOM      1  C   UNL     1      46.084   7.102  11.615  0.00  0.00    +0.000 C 
ENDROOT
BRANCH   1   2
ATOM      2  N   UNL     1      44.949   6.194  11.521  0.00  0.00    +0.000 N 
ATOM      3  C   UNL     1      44.146   5.870  12.586  0.00  0.00    +0.000 A 
ATOM      4  N   UNL     1      43.732   4.625  12.518  0.00  0.00    +0.000 NA
ATOM      5  C   UNL     1      44.198   4.149  11.318  0.00  0.00    +0.000 A 
ATOM      6  C   UNL     1      44.125   2.870  10.754  0.00  0.00    +0.000 A 
ATOM      7  N   UNL     1      44.616   2.639   9.507  0.00  0.00    +0.000 NA
ATOM      8  C   UNL     1      45.163   3.673   8.831  0.00  0.00    +0.000 A 
ATOM      9 CL   UNL     1      45.685   3.277   7.243  0.00  0.00    +0.000 Cl
ATOM     10  C   UNL     1      45.340   4.962   9.318  0.00  0.00    +0.000 A 
ATOM     11  C   UNL     1      44.857   5.157  10.613  0.00  0.00    +0.000 A 
ENDBRANCH   1   2
BRANCH   1  15
ATOM     12  C   UNL     1      48.659   6.869  14.986  0.00  0.00    +0.000 A 
ATOM     13  C   UNL     1      48.137   8.113  14.642  0.00  0.00    +0.000 A 
ATOM     14  C   UNL     1      47.235   8.198  13.583  0.00  0.00    +0.000 A 
ATOM     15  C   UNL     1      46.868   7.041  12.889  0.00  0.00    +0.000 A 
ATOM     16  C   UNL     1      47.400   5.836  13.340  0.00  0.00    +0.000 A 
ATOM     17  N   UNL     1      48.276   5.726  14.367  0.00  0.00    +0.000 NA
BRANCH  12  18
ATOM     18  C   UNL     1      49.720   6.756  16.063  0.00  0.00    +0.000 C 
BRANCH  18  19
ATOM     19  N   UNL     1      51.079   6.660  15.523  0.00  0.00    +0.000 NA
ATOM     20  H   UNL     1      51.219   7.429  14.870  0.00  0.00    +0.000 HD
ATOM     21  H   UNL     1      51.131   5.809  14.964  0.00  0.00    +0.000 HD
ENDBRANCH  18  19
ENDBRANCH  12  18
ENDBRANCH   1  15
TORSDOF 4
ENDMDL
MODEL 8
REMARK VINA RESULT:    -5.479      2.759      4.334
REMARK INTER + INTRA:          -7.029
REMARK INTER:                  -6.639
REMARK INTRA:                  -0.389
REMARK UNBOUND:                -0.429
REMARK  Name = 
REMARK  4 active torsions:
REMARK  status: ('A' for Active; 'I' for Inactive)
REMARK    1  A    between atoms: N_1  and  C_2
REMARK    2  A    between atoms: C_2  and  C_3
REMARK    3  A    between atoms: C_6  and  C_7
REMARK    4  A    between atoms: C_7  and  N_8
REMARK                            x       y       z     vdW  Elec       q    Type
REMARK                         _______ _______ _______ _____ _____    ______ ____
ROOT
ATOM      1  C   UNL     1      45.629   6.338  12.735  0.00  0.00    +0.000 C 
ENDROOT
BRANCH   1   2
ATOM      2  N   UNL     1      47.010   6.181  13.172  0.00  0.00    +0.000 N 
ATOM      3  C   UNL     1      47.382   5.426  14.255  0.00  0.00    +0.000 A 
ATOM      4  N   UNL     1      48.407   5.954  14.884  0.00  0.00    +0.000 NA
ATOM      5  C   UNL     1      48.780   7.038  14.129  0.00  0.00    +0.000 A 
ATOM      6  C   UNL     1      49.760   8.012  14.354  0.00  0.00    +0.000 A 
ATOM      7  N   UNL     1      49.996   8.978  13.425  0.00  0.00    +0.000 NA
ATOM      8  C   UNL     1      49.271   8.963  12.286  0.00  0.00    +0.000 A 
ATOM      9 CL   UNL     1      49.705  10.186  11.160  0.00  0.00    +0.000 Cl
ATOM     10  C   UNL     1      48.239   8.082  11.989  0.00  0.00    +0.000 A 
ATOM     11  C   UNL     1      47.998   7.127  12.977  0.00  0.00    +0.000 A 
ENDBRANCH   1   2
BRANCH   1  15
ATOM     12  C   UNL     1      44.588   3.234  10.028  0.00  0.00    +0.000 A 
ATOM     13  C   UNL     1      44.167   3.122  11.351  0.00  0.00    +0.000 A 
ATOM     14  C   UNL     1      44.437   4.163  12.236  0.00  0.00    +0.000 A 
ATOM     15  C   UNL     1      45.120   5.298  11.787  0.00  0.00    +0.000 A 
ATOM     16  C   UNL     1      45.453   5.342  10.436  0.00  0.00    +0.000 A 
ATOM     17  N   UNL     1      45.200   4.346   9.555  0.00  0.00    +0.000 NA
BRANCH  12  18
ATOM     18  C   UNL     1      44.403   2.077   9.065  0.00  0.00    +0.000 C 
BRANCH  18  19
ATOM     19  N   UNL     1      45.646   1.347   8.799  0.00  0.00    +0.000 NA
ATOM     20  H   UNL     1      46.420   1.878   9.193  0.00  0.00    +0.000 HD
ATOM     21  H   UNL     1      45.794   1.346   7.790  0.00  0.00    +0.000 HD
ENDBRANCH  18  19
ENDBRANCH  12  18
ENDBRANCH   1  15
TORSDOF 4
ENDMDL
MODEL 9
REMARK VINA RESULT:    -5.412      3.507      5.397
REMARK INTER + INTRA:          -6.949
REMARK INTER:                  -6.571
REMARK INTRA:                  -0.377
REMARK UNBOUND:                -0.429
REMARK  Name = 
REMARK  4 active torsions:
REMARK  status: ('A' for Active; 'I' for Inactive)
REMARK    1  A    between atoms: N_1  and  C_2
REMARK    2  A    between atoms: C_2  and  C_3
REMARK    3  A    between atoms: C_6  and  C_7
REMARK    4  A    between atoms: C_7  and  N_8
REMARK                            x       y       z     vdW  Elec       q    Type
REMARK                         _______ _______ _______ _____ _____    ______ ____
ROOT
ATOM      1  C   UNL     1      46.941   7.057  13.066  0.00  0.00    +0.000 C 
ENDROOT
BRANCH   1   2
ATOM      2  N   UNL     1      48.247   6.810  13.661  0.00  0.00    +0.000 N 
ATOM      3  C   UNL     1      48.435   6.536  14.993  0.00  0.00    +0.000 A 
ATOM      4  N   UNL     1      49.559   7.049  15.439  0.00  0.00    +0.000 NA
ATOM      5  C   UNL     1      50.174   7.593  14.338  0.00  0.00    +0.000 A 
ATOM      6  C   UNL     1      51.358   8.333  14.229  0.00  0.00    +0.000 A 
ATOM      7  N   UNL     1      51.811   8.727  13.009  0.00  0.00    +0.000 NA
ATOM      8  C   UNL     1      51.099   8.379  11.916  0.00  0.00    +0.000 A 
ATOM      9 CL   UNL     1      51.804   8.871  10.429  0.00  0.00    +0.000 Cl
ATOM     10  C   UNL     1      49.886   7.701  11.916  0.00  0.00    +0.000 A 
ATOM     11  C   UNL     1      49.430   7.342  13.186  0.00  0.00    +0.000 A 
ENDBRANCH   1   2
BRANCH   1  15
ATOM     12  C   UNL     1      44.828   3.882  11.193  0.00  0.00    +0.000 A 
ATOM     13  C   UNL     1      45.173   4.989  10.421  0.00  0.00    +0.000 A 
ATOM     14  C   UNL     1      45.926   6.008  10.999  0.00  0.00    +0.000 A 
ATOM     15  C   UNL     1      46.327   5.904  12.335  0.00  0.00    +0.000 A 
ATOM     16  C   UNL     1      45.982   4.736  13.010  0.00  0.00    +0.000 A 
ATOM     17  N   UNL     1      45.252   3.731  12.471  0.00  0.00    +0.000 NA
BRANCH  12  18
ATOM     18  C   UNL     1      43.922   2.806  10.627  0.00  0.00    +0.000 C 
BRANCH  18  19
ATOM     19  N   UNL     1      43.045   2.206  11.636  0.00  0.00    +0.000 NA
ATOM     20  H   UNL     1      42.103   2.152  11.252  0.00  0.00    +0.000 HD
ATOM     21  H   UNL     1      42.988   2.853  12.422  0.00  0.00    +0.000 HD
ENDBRANCH  18  19
ENDBRANCH  12  18
ENDBRANCH   1  15
TORSDOF 4
ENDMDL
