MODEL 1
REMARK VINA RESULT:    -8.119      0.000      0.000
REMARK INTER + INTRA:         -10.962
REMARK INTER:                 -10.255
REMARK INTRA:                  -0.707
REMARK UNBOUND:                -0.707
REMARK  Name = 
REMARK  6 active torsions:
REMARK  status: ('A' for Active; 'I' for Inactive)
REMARK    1  A    between atoms: C_1  and  C_2
REMARK    2  A    between atoms: C_2  and  O_3
REMARK    3  A    between atoms: C_2  and  C_13
REMARK    4  A    between atoms: O_3  and  C_4
REMARK    5  A    between atoms: C_7  and  C_8
REMARK    6  A    between atoms: C_8  and  O_10
REMARK                            x       y       z     vdW  Elec       q    Type
REMARK                         _______ _______ _______ _____ _____    ______ ____
ROOT
ATOM      1  C   UNL     1      44.552   3.821   9.077  0.00  0.00    +0.000 A 
ATOM      2  C   UNL     1      44.412   2.459   9.366  0.00  0.00    +0.000 A 
ATOM      3  C   UNL     1      45.268   1.514   8.791  0.00  0.00    +0.000 A 
ATOM      4  C   UNL     1      46.278   1.936   7.918  0.00  0.00    +0.000 A 
ATOM      5  C   UNL     1      46.372   3.288   7.572  0.00  0.00    +0.000 A 
ATOM      6  C   UNL     1      45.507   4.226   8.146  0.00  0.00    +0.000 A 
ENDROOT
BRANCH   4   7
ATOM      7  C   UNL     1      47.249   0.992   7.310  0.00  0.00    +0.000 C 
ATOM      8  O   UNL     1      48.160   1.352   6.586  0.00  0.00    +0.000 OA
BRANCH   7   9
ATOM      9  O   UNL     1      47.069  -0.292   7.688  0.00  0.00    +0.000 OA
ATOM     10  H   UNL     1      47.650  -0.937   7.247  0.00  0.00    +0.000 HD
ENDBRANCH   7   9
ENDBRANCH   4   7
BRANCH   1  11
ATOM     11  O   UNL     1      43.699   4.650   9.751  0.00  0.00    +0.000 OA
BRANCH  11  13
ATOM     12  C   UNL     1      42.667   5.588  11.757  0.00  0.00    +0.000 C 
ATOM     13  C   UNL     1      43.715   4.620  11.190  0.00  0.00    +0.000 C 
BRANCH  13  14
ATOM     14  C   UNL     1      45.142   4.990  11.686  0.00  0.00    +0.000 C 
ATOM     15  C   UNL     1      45.328   4.774  13.200  0.00  0.00    +0.000 C 
ATOM     16  C   UNL     1      46.710   5.211  13.682  0.00  0.00    +0.000 C 
ATOM     17  C   UNL     1      46.999   6.657  13.305  0.00  0.00    +0.000 C 
ATOM     18  C   UNL     1      46.871   6.862  11.801  0.00  0.00    +0.000 C 
ATOM     19  C   UNL     1      45.494   6.440  11.295  0.00  0.00    +0.000 C 
ENDBRANCH  13  14
ENDBRANCH  11  13
ENDBRANCH   1  11
TORSDOF 5
ENDMDL
MODEL 2
REMARK VINA RESULT:    -6.913      1.055      2.053
REMARK INTER + INTRA:          -9.438
REMARK INTER:                  -8.675
REMARK INTRA:                  -0.763
REMARK UNBOUND:                -0.707
REMARK  Name = 
REMARK  6 active torsions:
REMARK  status: ('A' for Active; 'I' for Inactive)
REMARK    1  A    between atoms: C_1  and  C_2
REMARK    2  A    between atoms: C_2  and  O_3
REMARK    3  A    between atoms: C_2  and  C_13
REMARK    4  A    between atoms: O_3  and  C_4
REMARK    5  A    between atoms: C_7  and  C_8
REMARK    6  A    between atoms: C_8  and  O_10
REMARK                            x       y       z     vdW  Elec       q    Type
REMARK                         _______ _______ _______ _____ _____    ______ ____
ROOT
ATOM      1  C   UNL     1      44.929   3.915   9.560  0.00  0.00    +0.000 A 
ATOM      2  C   UNL     1      45.703   4.643   8.650  0.00  0.00    +0.000 A 
ATOM      3  C   UNL     1      46.499   3.989   7.704  0.00  0.00    +0.000 A 
ATOM      4  C   UNL     1      46.520   2.590   7.666  0.00  0.00    +0.000 A 
ATOM      5  C   UNL     1      45.803   1.862   8.621  0.00  0.00    +0.000 A 
ATOM      6  C   UNL     1      45.015   2.524   9.569  0.00  0.00    +0.000 A 
ENDROOT
BRANCH   4   7
ATOM      7  C   UNL     1      47.305   1.834   6.658  0.00  0.00    +0.000 C 
ATOM      8  O   UNL     1      47.108   0.657   6.411  0.00  0.00    +0.000 OA
BRANCH   7   9
ATOM      9  O   UNL     1      48.209   2.587   5.996  0.00  0.00    +0.000 OA
ATOM     10  H   UNL     1      48.071   2.647   5.034  0.00  0.00    +0.000 HD
ENDBRANCH   7   9
ENDBRANCH   4   7
BRANCH   1  11
ATOM     11  O   UNL     1      44.145   4.667  10.390  0.00  0.00    +0.000 OA
BRANCH  11  13
ATOM     12  C   UNL     1      42.985   4.307  12.510  0.00  0.00    +0.000 C 
ATOM     13  C   UNL     1      44.333   4.532  11.811  0.00  0.00    +0.000 C 
BRANCH  13  14
ATOM     14  C   UNL     1      45.033   5.813  12.350  0.00  0.00    +0.000 C 
ATOM     15  C   UNL     1      44.783   7.052  11.468  0.00  0.00    +0.000 C 
ATOM     16  C   UNL     1      45.537   8.282  11.971  0.00  0.00    +0.000 C 
ATOM     17  C   UNL     1      47.027   8.006  12.104  0.00  0.00    +0.000 C 
ATOM     18  C   UNL     1      47.280   6.816  13.021  0.00  0.00    +0.000 C 
ATOM     19  C   UNL     1      46.545   5.570  12.534  0.00  0.00    +0.000 C 
ENDBRANCH  13  14
ENDBRANCH  11  13
ENDBRANCH   1  11
TORSDOF 5
ENDMDL
MODEL 3
REMARK VINA RESULT:    -6.296      3.010      6.227
REMARK INTER + INTRA:          -8.659
REMARK INTER:                  -7.962
REMARK INTRA:                  -0.696
REMARK UNBOUND:                -0.707
REMARK  Name = 
REMARK  6 active torsions:
REMARK  status: ('A' for Active; 'I' for Inactive)
REMARK    1  A    between atoms: C_1  and  C_2
REMARK    2  A    between atoms: C_2  and  O_3
REMARK    3  A    between atoms: C_2  and  C_13
REMARK    4  A    between atoms: O_3  and  C_4
REMARK    5  A    between atoms: C_7  and  C_8
REMARK    6  A    between atoms: C_8  and  O_10
REMARK                            x       y       z     vdW  Elec       q    Type
REMARK                         _______ _______ _______ _____ _____    ______ ____
ROOT
ATOM      1  C   UNL     1      46.182   5.378  12.367  0.00  0.00    +0.000 A 
ATOM      2  C   UNL     1      46.625   6.429  11.557  0.00  0.00    +0.000 A 
ATOM      3  C   UNL     1      47.694   7.237  11.955  0.00  0.00    +0.000 A 
ATOM      4  C   UNL     1      48.330   6.992  13.178  0.00  0.00    +0.000 A 
ATOM      5  C   UNL     1      47.841   5.988  14.021  0.00  0.00    +0.000 A 
ATOM      6  C   UNL     1      46.766   5.189  13.619  0.00  0.00    +0.000 A 
ENDROOT
BRANCH   4   7
ATOM      7  C   UNL     1      49.500   7.781  13.639  0.00  0.00    +0.000 C 
ATOM      8  O   UNL     1      49.631   8.970  13.407  0.00  0.00    +0.000 OA
BRANCH   7   9
ATOM      9  O   UNL     1      50.369   7.075  14.392  0.00  0.00    +0.000 OA
ATOM     10  H   UNL     1      50.624   6.209  14.026  0.00  0.00    +0.000 HD
ENDBRANCH   7   9
ENDBRANCH   4   7
BRANCH   1  11
ATOM     11  O   UNL     1      45.173   4.620  11.840  0.00  0.00    +0.000 OA
BRANCH  11  13
ATOM     12  C   UNL     1      42.987   5.361  11.038  0.00  0.00    +0.000 C 
ATOM     13  C   UNL     1      44.466   5.130  10.695  0.00  0.00    +0.000 C 
BRANCH  13  14
ATOM     14  C   UNL     1      44.614   4.121   9.520  0.00  0.00    +0.000 C 
ATOM     15  C   UNL     1      44.839   2.673   9.995  0.00  0.00    +0.000 C 
ATOM     16  C   UNL     1      45.056   1.708   8.831  0.00  0.00    +0.000 C 
ATOM     17  C   UNL     1      46.198   2.164   7.935  0.00  0.00    +0.000 C 
ATOM     18  C   UNL     1      45.951   3.576   7.417  0.00  0.00    +0.000 C 
ATOM     19  C   UNL     1      45.741   4.562   8.563  0.00  0.00    +0.000 C 
ENDBRANCH  13  14
ENDBRANCH  11  13
ENDBRANCH   1  11
TORSDOF 5
ENDMDL
MODEL 4
REMARK VINA RESULT:    -5.808      1.696      2.434
REMARK INTER + INTRA:          -8.043
REMARK INTER:                  -7.549
REMARK INTRA:                  -0.494
REMARK UNBOUND:                -0.707
REMARK  Name = 
REMARK  6 active torsions:
REMARK  status: ('A' for Active; 'I' for Inactive)
REMARK    1  A    between atoms: C_1  and  C_2
REMARK    2  A    between atoms: C_2  and  O_3
REMARK    3  A    between atoms: C_2  and  C_13
REMARK    4  A    between atoms: O_3  and  C_4
REMARK    5  A    between atoms: C_7  and  C_8
REMARK    6  A    between atoms: C_8  and  O_10
REMARK                            x       y       z     vdW  Elec       q    Type
REMARK                         _______ _______ _______ _____ _____    ______ ____
ROOT
ATOM      1  C   UNL     1      45.156   4.716   9.951  0.00  0.00    +0.000 A 
ATOM      2  C   UNL     1      44.785   3.390  10.194  0.00  0.00    +0.000 A 
ATOM      3  C   UNL     1      45.206   2.362   9.344  0.00  0.00    +0.000 A 
ATOM      4  C   UNL     1      46.010   2.663   8.239  0.00  0.00    +0.000 A 
ATOM      5  C   UNL     1      46.322   3.997   7.955  0.00  0.00    +0.000 A 
ATOM      6  C   UNL     1      45.890   5.020   8.805  0.00  0.00    +0.000 A 
ENDROOT
BRANCH   4   7
ATOM      7  C   UNL     1      46.530   1.616   7.325  0.00  0.00    +0.000 C 
ATOM      8  O   UNL     1      46.896   1.851   6.187  0.00  0.00    +0.000 OA
BRANCH   7   9
ATOM      9  O   UNL     1      46.620   0.394   7.893  0.00  0.00    +0.000 OA
ATOM     10  H   UNL     1      46.395   0.362   8.840  0.00  0.00    +0.000 HD
ENDBRANCH   7   9
ENDBRANCH   4   7
BRANCH   1  11
ATOM     11  O   UNL     1      44.738   5.620  10.888  0.00  0.00    +0.000 OA
BRANCH  11  13
ATOM     12  C   UNL     1      45.088   5.034  13.234  0.00  0.00    +0.000 C 
ATOM     13  C   UNL     1      45.579   5.853  12.032  0.00  0.00    +0.000 C 
BRANCH  13  14
ATOM     14  C   UNL     1      45.577   7.375  12.358  0.00  0.00    +0.000 C 
ATOM     15  C   UNL     1      44.665   8.189  11.421  0.00  0.00    +0.000 C 
ATOM     16  C   UNL     1      44.731   9.689  11.707  0.00  0.00    +0.000 C 
ATOM     17  C   UNL     1      46.162  10.204  11.648  0.00  0.00    +0.000 C 
ATOM     18  C   UNL     1      47.056   9.438  12.616  0.00  0.00    +0.000 C 
ATOM     19  C   UNL     1      47.014   7.936  12.344  0.00  0.00    +0.000 C 
ENDBRANCH  13  14
ENDBRANCH  11  13
ENDBRANCH   1  11
TORSDOF 5
ENDMDL
MODEL 5
REMARK VINA RESULT:    -5.352      2.921      5.203
REMARK INTER + INTRA:          -7.467
REMARK INTER:                  -6.846
REMARK INTRA:                  -0.621
REMARK UNBOUND:                -0.707
REMARK  Name = 
REMARK  6 active torsions:
REMARK  status: ('A' for Active; 'I' for Inactive)
REMARK    1  A    between atoms: C_1  and  C_2
REMARK    2  A    between atoms: C_2  and  O_3
REMARK    3  A    between atoms: C_2  and  C_13
REMARK    4  A    between atoms: O_3  and  C_4
REMARK    5  A    between atoms: C_7  and  C_8
REMARK    6  A    between atoms: C_8  and  O_10
REMARK                            x       y       z     vdW  Elec       q    Type
REMARK                         _______ _______ _______ _____ _____    ______ ____
ROOT
ATOM      1  C   UNL     1      46.432   5.880  12.491  0.00  0.00    +0.000 A 
ATOM      2  C   UNL     1      45.992   6.062  11.176  0.00  0.00    +0.000 A 
ATOM      3  C   UNL     1      45.237   5.076  10.532  0.00  0.00    +0.000 A 
ATOM      4  C   UNL     1      44.916   3.895  11.211  0.00  0.00    +0.000 A 
ATOM      5  C   UNL     1      45.417   3.682  12.500  0.00  0.00    +0.000 A 
ATOM      6  C   UNL     1      46.178   4.669  13.135  0.00  0.00    +0.000 A 
ENDROOT
BRANCH   4   7
ATOM      7  C   UNL     1      44.079   2.830  10.604  0.00  0.00    +0.000 C 
ATOM      8  O   UNL     1      44.253   2.415   9.472  0.00  0.00    +0.000 OA
BRANCH   7   9
ATOM      9  O   UNL     1      43.153   2.321  11.445  0.00  0.00    +0.000 OA
ATOM     10  H   UNL     1      43.276   1.382  11.674  0.00  0.00    +0.000 HD
ENDBRANCH   7   9
ENDBRANCH   4   7
BRANCH   1  11
ATOM     11  O   UNL     1      47.105   6.940  13.033  0.00  0.00    +0.000 OA
BRANCH  11  13
ATOM     12  C   UNL     1      49.143   7.213  14.351  0.00  0.00    +0.000 C 
ATOM     13  C   UNL     1      48.542   6.941  12.965  0.00  0.00    +0.000 C 
BRANCH  13  14
ATOM     14  C   UNL     1      48.998   8.018  11.939  0.00  0.00    +0.000 C 
ATOM     15  C   UNL     1      50.511   8.304  11.999  0.00  0.00    +0.000 C 
ATOM     16  C   UNL     1      50.929   9.416  11.038  0.00  0.00    +0.000 C 
ATOM     17  C   UNL     1      50.130  10.689  11.279  0.00  0.00    +0.000 C 
ATOM     18  C   UNL     1      48.635  10.421  11.164  0.00  0.00    +0.000 C 
ATOM     19  C   UNL     1      48.190   9.320  12.122  0.00  0.00    +0.000 C 
ENDBRANCH  13  14
ENDBRANCH  11  13
ENDBRANCH   1  11
TORSDOF 5
ENDMDL
MODEL 6
REMARK VINA RESULT:    -5.341      3.889      6.331
REMARK INTER + INTRA:          -7.453
REMARK INTER:                  -6.834
REMARK INTRA:                  -0.619
REMARK UNBOUND:                -0.707
REMARK  Name = 
REMARK  6 active torsions:
REMARK  status: ('A' for Active; 'I' for Inactive)
REMARK    1  A    between atoms: C_1  and  C_2
REMARK    2  A    between atoms: C_2  and  O_3
REMARK    3  A    between atoms: C_2  and  C_13
REMARK    4  A    between atoms: O_3  and  C_4
REMARK    5  A    between atoms: C_7  and  C_8
REMARK    6  A    between atoms: C_8  and  O_10
REMARK                            x       y       z     vdW  Elec       q    Type
REMARK                         _______ _______ _______ _____ _____    ______ ____
ROOT
ATOM      1  C   UNL     1      46.922   5.659  13.356  0.00  0.00    +0.000 A 
ATOM      2  C   UNL     1      46.236   4.443  13.277  0.00  0.00    +0.000 A 
ATOM      3  C   UNL     1      45.005   4.358  12.617  0.00  0.00    +0.000 A 
ATOM      4  C   UNL     1      44.455   5.502  12.027  0.00  0.00    +0.000 A 
ATOM      5  C   UNL     1      45.106   6.732  12.168  0.00  0.00    +0.000 A 
ATOM      6  C   UNL     1      46.333   6.810  12.836  0.00  0.00    +0.000 A 
ENDROOT
BRANCH   4   7
ATOM      7  C   UNL     1      43.178   5.472  11.272  0.00  0.00    +0.000 C 
ATOM      8  O   UNL     1      42.096   5.682  11.790  0.00  0.00    +0.000 OA
BRANCH   7   9
ATOM      9  O   UNL     1      43.334   5.255   9.948  0.00  0.00    +0.000 OA
ATOM     10  H   UNL     1      44.043   4.630   9.713  0.00  0.00    +0.000 HD
ENDBRANCH   7   9
ENDBRANCH   4   7
BRANCH   1  11
ATOM     11  O   UNL     1      48.143   5.600  13.969  0.00  0.00    +0.000 OA
BRANCH  11  13
ATOM     12  C   UNL     1      49.341   7.249  15.316  0.00  0.00    +0.000 C 
ATOM     13  C   UNL     1      48.267   6.151  15.292  0.00  0.00    +0.000 C 
BRANCH  13  14
ATOM     14  C   UNL     1      48.621   5.006  16.284  0.00  0.00    +0.000 C 
ATOM     15  C   UNL     1      47.386   4.212  16.752  0.00  0.00    +0.000 C 
ATOM     16  C   UNL     1      47.741   3.140  17.781  0.00  0.00    +0.000 C 
ATOM     17  C   UNL     1      48.481   3.735  18.970  0.00  0.00    +0.000 C 
ATOM     18  C   UNL     1      49.735   4.473  18.517  0.00  0.00    +0.000 C 
ATOM     19  C   UNL     1      49.404   5.557  17.494  0.00  0.00    +0.000 C 
ENDBRANCH  13  14
ENDBRANCH  11  13
ENDBRANCH   1  11
TORSDOF 5
ENDMDL
MODEL 7
REMARK VINA RESULT:    -5.152      3.942      5.950
REMARK INTER + INTRA:          -7.214
REMARK INTER:                  -6.623
REMARK INTRA:                  -0.591
REMARK UNBOUND:                -0.707
REMARK  Name = 
REMARK  6 active torsions:
REMARK  status: ('A' for Active; 'I' for Inactive)
REMARK    1  A    between atoms: C_1  and  C_2
REMARK    2  A    between atoms: C_2  and  O_3
REMARK    3  A    between atoms: C_2  and  C_13
REMARK    4  A    between atoms: O_3  and  C_4
REMARK    5  A    between atoms: C_7  and  C_8
REMARK    6  A    between atoms: C_8  and  O_10
REMARK                            x       y       z     vdW  Elec       q    Type
REMARK                         _______ _______ _______ _____ _____    ______ ____
ROOT
ATOM      1  C   UNL     1      46.999   5.578  12.904  0.00  0.00    +0.000 A 
ATOM      2  C   UNL     1      46.457   6.265  11.813  0.00  0.00    +0.000 A 
ATOM      3  C   UNL     1      45.139   6.035  11.406  0.00  0.00    +0.000 A 
ATOM      4  C   UNL     1      44.352   5.108  12.099  0.00  0.00    +0.000 A 
ATOM      5  C   UNL     1      44.915   4.369  13.144  0.00  0.00    +0.000 A 
ATOM      6  C   UNL     1      46.237   4.599  13.541  0.00  0.00    +0.000 A 
ENDROOT
BRANCH   4   7
ATOM      7  C   UNL     1      42.932   4.851  11.750  0.00  0.00    +0.000 C 
ATOM      8  O   UNL     1      42.082   5.724  11.743  0.00  0.00    +0.000 OA
BRANCH   7   9
ATOM      9  O   UNL     1      42.686   3.577  11.377  0.00  0.00    +0.000 OA
ATOM     10  H   UNL     1      43.440   2.966  11.472  0.00  0.00    +0.000 HD
ENDBRANCH   7   9
ENDBRANCH   4   7
BRANCH   1  11
ATOM     11  O   UNL     1      48.274   5.937  13.245  0.00  0.00    +0.000 OA
BRANCH  11  13
ATOM     12  C   UNL     1      49.777   7.543  12.182  0.00  0.00    +0.000 C 
ATOM     13  C   UNL     1      48.629   7.330  13.178  0.00  0.00    +0.000 C 
BRANCH  13  14
ATOM     14  C   UNL     1      49.029   7.816  14.601  0.00  0.00    +0.000 C 
ATOM     15  C   UNL     1      49.045   6.682  15.643  0.00  0.00    +0.000 C 
ATOM     16  C   UNL     1      49.368   7.188  17.048  0.00  0.00    +0.000 C 
ATOM     17  C   UNL     1      48.415   8.296  17.472  0.00  0.00    +0.000 C 
ATOM     18  C   UNL     1      48.439   9.446  16.473  0.00  0.00    +0.000 C 
ATOM     19  C   UNL     1      48.110   8.967  15.062  0.00  0.00    +0.000 C 
ENDBRANCH  13  14
ENDBRANCH  11  13
ENDBRANCH   1  11
TORSDOF 5
ENDMDL
