MODEL 1
REMARK VINA RESULT:    -7.621      0.000      0.000
REMARK INTER + INTRA:         -12.249
REMARK INTER:                 -10.963
REMARK INTRA:                  -1.286
REMARK UNBOUND:                -1.286
REMARK  Name = 
REMARK  8 active torsions:
REMARK  status: ('A' for Active; 'I' for Inactive)
REMARK    1  A    between atoms: N_1  and  C_2
REMARK    2  A    between atoms: C_2  and  C_3
REMARK    3  A    between atoms: C_3  and  N_4
REMARK    4  A    between atoms: C_3  and  C_17
REMARK    5  A    between atoms: C_5  and  C_7
REMARK    6  A    between atoms: C_20  and  O_21
REMARK    7  A    between atoms: O_21  and  C_22
REMARK    8  A    between atoms: C_22  and  C_23
REMARK                            x       y       z     vdW  Elec       q    Type
REMARK                         _______ _______ _______ _____ _____    ______ ____
ROOT
ATOM      1  C   UNL     1      46.994   7.208  13.489  0.00  0.00    +0.000 C 
ENDROOT
BRANCH   1   2
ATOM      2  C   UNL     1      46.325   6.073  12.739  0.00  0.00    +0.000 A 
ATOM      3  C   UNL     1      45.791   6.282  11.457  0.00  0.00    +0.000 A 
ATOM      4  C   UNL     1      45.206   5.223  10.752  0.00  0.00    +0.000 A 
ATOM      5  C   UNL     1      45.148   3.954  11.329  0.00  0.00    +0.000 A 
ATOM      6  C   UNL     1      45.589   3.768  12.637  0.00  0.00    +0.000 A 
ATOM      7  C   UNL     1      46.183   4.813  13.329  0.00  0.00    +0.000 A 
BRANCH   5   8
ATOM      8  O   UNL     1      44.661   2.947  10.543  0.00  0.00    +0.000 OA
BRANCH   8   9
ATOM      9  C   UNL     1      44.471   3.338   9.177  0.00  0.00    +0.000 C 
BRANCH   9  10
ATOM     10  C   UNL     1      45.525   2.716   8.305  0.00  0.00    +0.000 A 
ATOM     11  C   UNL     1      46.192   3.498   7.364  0.00  0.00    +0.000 A 
ATOM     12  C   UNL     1      47.187   2.911   6.594  0.00  0.00    +0.000 A 
ATOM     13  C   UNL     1      47.491   1.568   6.793  0.00  0.00    +0.000 A 
ATOM     14  C   UNL     1      46.791   0.867   7.765  0.00  0.00    +0.000 A 
ATOM     15  N   UNL     1      45.823   1.411   8.525  0.00  0.00    +0.000 NA
ENDBRANCH   9  10
ENDBRANCH   8   9
ENDBRANCH   5   8
ENDBRANCH   1   2
BRANCH   1  16
ATOM     16  N   UNL     1      48.029   6.631  14.329  0.00  0.00    +0.000 N 
ATOM     17  C   UNL     1      48.558   7.331  15.384  0.00  0.00    +0.000 C 
ATOM     18  O   UNL     1      48.164   8.445  15.708  0.00  0.00    +0.000 OA
ATOM     19  H   UNL     1      48.468   5.776  14.019  0.00  0.00    +0.000 HD
BRANCH  17  20
ATOM     20  C   UNL     1      49.607   6.629  16.113  0.00  0.00    +0.000 A 
ATOM     21  C   UNL     1      50.902   7.103  16.264  0.00  0.00    +0.000 A 
ATOM     22  S   UNL     1      51.936   5.975  17.029  0.00  0.00    +0.000 S 
ATOM     23  C   UNL     1      50.679   4.833  17.173  0.00  0.00    +0.000 A 
ATOM     24  N   UNL     1      50.896   3.599  17.703  0.00  0.00    +0.000 NA
ATOM     25  C   UNL     1      49.852   2.841  17.720  0.00  0.00    +0.000 A 
ATOM     26  N   UNL     1      48.602   3.213  17.285  0.00  0.00    +0.000 N 
ATOM     27  C   UNL     1      48.310   4.487  16.857  0.00  0.00    +0.000 A 
ATOM     28  O   UNL     1      47.150   4.857  16.714  0.00  0.00    +0.000 OA
ATOM     29  C   UNL     1      49.480   5.328  16.704  0.00  0.00    +0.000 A 
ATOM     30  H   UNL     1      47.811   2.598  17.399  0.00  0.00    +0.000 HD
ENDBRANCH  17  20
ENDBRANCH   1  16
BRANCH   1  31
ATOM     31  C   UNL     1      47.597   8.325  12.580  0.00  0.00    +0.000 C 
BRANCH  31  32
ATOM     32  N   UNL     1      47.205   9.689  12.948  0.00  0.00    +0.000 NA
ATOM     33  H   UNL     1      47.745  10.358  12.402  0.00  0.00    +0.000 HD
ATOM     34  H   UNL     1      47.450   9.854  13.925  0.00  0.00    +0.000 HD
ENDBRANCH  31  32
ENDBRANCH   1  31
TORSDOF 8
ENDMDL
MODEL 2
REMARK VINA RESULT:    -7.611      2.729      3.539
REMARK INTER + INTRA:         -12.234
REMARK INTER:                 -10.739
REMARK INTRA:                  -1.495
REMARK UNBOUND:                -1.286
REMARK  Name = 
REMARK  8 active torsions:
REMARK  status: ('A' for Active; 'I' for Inactive)
REMARK    1  A    between atoms: N_1  and  C_2
REMARK    2  A    between atoms: C_2  and  C_3
REMARK    3  A    between atoms: C_3  and  N_4
REMARK    4  A    between atoms: C_3  and  C_17
REMARK    5  A    between atoms: C_5  and  C_7
REMARK    6  A    between atoms: C_20  and  O_21
REMARK    7  A    between atoms: O_21  and  C_22
REMARK    8  A    between atoms: C_22  and  C_23
REMARK                            x       y       z     vdW  Elec       q    Type
REMARK                         _______ _______ _______ _____ _____    ______ ____
ROOT
ATOM      1  C   UNL     1      47.867   4.616  15.025  0.00  0.00    +0.000 C 
ENDROOT
BRANCH   1   2
ATOM      2  C   UNL     1      46.961   4.752  13.817  0.00  0.00    +0.000 A 
ATOM      3  C   UNL     1      46.859   5.976  13.135  0.00  0.00    +0.000 A 
ATOM      4  C   UNL     1      46.049   6.087  11.999  0.00  0.00    +0.000 A 
ATOM      5  C   UNL     1      45.333   4.979  11.545  0.00  0.00    +0.000 A 
ATOM      6  C   UNL     1      45.357   3.794  12.276  0.00  0.00    +0.000 A 
ATOM      7  C   UNL     1      46.172   3.678  13.392  0.00  0.00    +0.000 A 
BRANCH   5   8
ATOM      8  O   UNL     1      44.649   5.133  10.373  0.00  0.00    +0.000 OA
BRANCH   8   9
ATOM      9  C   UNL     1      44.189   3.892   9.819  0.00  0.00    +0.000 C 
BRANCH   9  10
ATOM     10  C   UNL     1      45.196   3.350   8.846  0.00  0.00    +0.000 A 
ATOM     11  C   UNL     1      45.494   1.988   8.848  0.00  0.00    +0.000 A 
ATOM     12  C   UNL     1      46.401   1.502   7.917  0.00  0.00    +0.000 A 
ATOM     13  C   UNL     1      46.974   2.387   7.008  0.00  0.00    +0.000 A 
ATOM     14  C   UNL     1      46.607   3.724   7.063  0.00  0.00    +0.000 A 
ATOM     15  N   UNL     1      45.731   4.221   7.955  0.00  0.00    +0.000 NA
ENDBRANCH   9  10
ENDBRANCH   8   9
ENDBRANCH   5   8
ENDBRANCH   1   2
BRANCH   1  16
ATOM     16  N   UNL     1      47.740   5.830  15.811  0.00  0.00    +0.000 N 
ATOM     17  C   UNL     1      48.839   6.433  16.367  0.00  0.00    +0.000 C 
ATOM     18  O   UNL     1      49.980   6.022  16.198  0.00  0.00    +0.000 OA
ATOM     19  H   UNL     1      46.812   6.124  16.080  0.00  0.00    +0.000 HD
BRANCH  17  20
ATOM     20  C   UNL     1      48.546   7.627  17.151  0.00  0.00    +0.000 A 
ATOM     21  C   UNL     1      48.740   8.923  16.698  0.00  0.00    +0.000 A 
ATOM     22  S   UNL     1      48.457  10.098  17.910  0.00  0.00    +0.000 S 
ATOM     23  C   UNL     1      48.070   8.902  19.061  0.00  0.00    +0.000 A 
ATOM     24  N   UNL     1      47.775   9.223  20.349  0.00  0.00    +0.000 NA
ATOM     25  C   UNL     1      47.528   8.205  21.104  0.00  0.00    +0.000 A 
ATOM     26  N   UNL     1      47.521   6.897  20.683  0.00  0.00    +0.000 N 
ATOM     27  C   UNL     1      47.693   6.536  19.367  0.00  0.00    +0.000 A 
ATOM     28  O   UNL     1      47.436   5.401  18.982  0.00  0.00    +0.000 OA
ATOM     29  C   UNL     1      48.096   7.636  18.513  0.00  0.00    +0.000 A 
ATOM     30  H   UNL     1      47.244   6.155  21.307  0.00  0.00    +0.000 HD
ENDBRANCH  17  20
ENDBRANCH   1  16
BRANCH   1  31
ATOM     31  C   UNL     1      47.582   3.364  15.915  0.00  0.00    +0.000 C 
BRANCH  31  32
ATOM     32  N   UNL     1      46.626   3.594  17.003  0.00  0.00    +0.000 NA
ATOM     33  H   UNL     1      46.694   2.837  17.681  0.00  0.00    +0.000 HD
ATOM     34  H   UNL     1      45.678   3.556  16.626  0.00  0.00    +0.000 HD
ENDBRANCH  31  32
ENDBRANCH   1  31
TORSDOF 8
ENDMDL
MODEL 3
REMARK VINA RESULT:    -7.426      1.600      2.126
REMARK INTER + INTRA:         -11.968
REMARK INTER:                 -11.105
REMARK INTRA:                  -0.864
REMARK UNBOUND:                -1.286
REMARK  Name = 
REMARK  8 active torsions:
REMARK  status: ('A' for Active; 'I' for Inactive)
REMARK    1  A    between atoms: N_1  and  C_2
REMARK    2  A    between atoms: C_2  and  C_3
REMARK    3  A    between atoms: C_3  and  N_4
REMARK    4  A    between atoms: C_3  and  C_17
REMARK    5  A    between atoms: C_5  and  C_7
REMARK    6  A    between atoms: C_20  and  O_21
REMARK    7  A    between atoms: O_21  and  C_22
REMARK    8  A    between atoms: C_22  and  C_23
REMARK                            x       y       z     vdW  Elec       q    Type
REMARK                         _______ _______ _______ _____ _____    ______ ____
ROOT
ATOM      1  C   UNL     1      47.520   6.807  13.335  0.00  0.00    +0.000 C 
ENDROOT
BRANCH   1   2
ATOM      2  C   UNL     1      46.581   6.002  12.458  0.00  0.00    +0.000 A 
ATOM      3  C   UNL     1      46.271   6.436  11.159  0.00  0.00    +0.000 A 
ATOM      4  C   UNL     1      45.432   5.671  10.339  0.00  0.00    +0.000 A 
ATOM      5  C   UNL     1      44.896   4.475  10.817  0.00  0.00    +0.000 A 
ATOM      6  C   UNL     1      45.125   4.094  12.137  0.00  0.00    +0.000 A 
ATOM      7  C   UNL     1      45.969   4.843  12.944  0.00  0.00    +0.000 A 
BRANCH   5   8
ATOM      8  O   UNL     1      44.174   3.731   9.927  0.00  0.00    +0.000 OA
BRANCH   8   9
ATOM      9  C   UNL     1      44.677   2.398   9.766  0.00  0.00    +0.000 C 
BRANCH   9  10
ATOM     10  C   UNL     1      45.529   2.308   8.531  0.00  0.00    +0.000 A 
ATOM     11  C   UNL     1      45.570   3.380   7.642  0.00  0.00    +0.000 A 
ATOM     12  C   UNL     1      46.391   3.290   6.526  0.00  0.00    +0.000 A 
ATOM     13  C   UNL     1      47.149   2.139   6.338  0.00  0.00    +0.000 A 
ATOM     14  C   UNL     1      47.062   1.126   7.282  0.00  0.00    +0.000 A 
ATOM     15  N   UNL     1      46.276   1.187   8.372  0.00  0.00    +0.000 NA
ENDBRANCH   9  10
ENDBRANCH   8   9
ENDBRANCH   5   8
ENDBRANCH   1   2
BRANCH   1  16
ATOM     16  N   UNL     1      47.933   5.955  14.436  0.00  0.00    +0.000 N 
ATOM     17  C   UNL     1      48.363   6.490  15.624  0.00  0.00    +0.000 C 
ATOM     18  O   UNL     1      48.378   7.695  15.844  0.00  0.00    +0.000 OA
ATOM     19  H   UNL     1      48.057   4.970  14.251  0.00  0.00    +0.000 HD
BRANCH  17  20
ATOM     20  C   UNL     1      48.770   5.507  16.621  0.00  0.00    +0.000 A 
ATOM     21  C   UNL     1      47.912   4.585  17.201  0.00  0.00    +0.000 A 
ATOM     22  S   UNL     1      48.656   3.683  18.451  0.00  0.00    +0.000 S 
ATOM     23  C   UNL     1      50.135   4.503  18.243  0.00  0.00    +0.000 A 
ATOM     24  N   UNL     1      51.207   4.251  19.041  0.00  0.00    +0.000 NA
ATOM     25  C   UNL     1      52.245   4.971  18.774  0.00  0.00    +0.000 A 
ATOM     26  N   UNL     1      52.319   5.899  17.763  0.00  0.00    +0.000 N 
ATOM     27  C   UNL     1      51.304   6.100  16.858  0.00  0.00    +0.000 A 
ATOM     28  O   UNL     1      51.488   6.743  15.830  0.00  0.00    +0.000 OA
ATOM     29  C   UNL     1      50.079   5.403  17.198  0.00  0.00    +0.000 A 
ATOM     30  H   UNL     1      53.186   6.373  17.559  0.00  0.00    +0.000 HD
ENDBRANCH  17  20
ENDBRANCH   1  16
BRANCH   1  31
ATOM     31  C   UNL     1      48.772   7.379  12.597  0.00  0.00    +0.000 C 
BRANCH  31  32
ATOM     32  N   UNL     1      50.055   7.050  13.227  0.00  0.00    +0.000 NA
ATOM     33  H   UNL     1      50.188   6.040  13.219  0.00  0.00    +0.000 HD
ATOM     34  H   UNL     1      50.025   7.327  14.208  0.00  0.00    +0.000 HD
ENDBRANCH  31  32
ENDBRANCH   1  31
TORSDOF 8
ENDMDL
MODEL 4
REMARK VINA RESULT:    -7.277      3.783      8.310
REMARK INTER + INTRA:         -11.753
REMARK INTER:                 -11.005
REMARK INTRA:                  -0.748
REMARK UNBOUND:                -1.286
REMARK  Name = 
REMARK  8 active torsions:
REMARK  status: ('A' for Active; 'I' for Inactive)
REMARK    1  A    between atoms: N_1  and  C_2
REMARK    2  A    between atoms: C_2  and  C_3
REMARK    3  A    between atoms: C_3  and  N_4
REMARK    4  A    between atoms: C_3  and  C_17
REMARK    5  A    between atoms: C_5  and  C_7
REMARK    6  A    between atoms: C_20  and  O_21
REMARK    7  A    between atoms: O_21  and  C_22
REMARK    8  A    between atoms: C_22  and  C_23
REMARK                            x       y       z     vdW  Elec       q    Type
REMARK                         _______ _______ _______ _____ _____    ______ ____
ROOT
ATOM      1  C   UNL     1      48.546   5.903  17.135  0.00  0.00    +0.000 C 
ENDROOT
BRANCH   1   2
ATOM      2  C   UNL     1      49.307   4.592  17.160  0.00  0.00    +0.000 A 
ATOM      3  C   UNL     1      50.693   4.576  17.389  0.00  0.00    +0.000 A 
ATOM      4  C   UNL     1      51.386   3.361  17.447  0.00  0.00    +0.000 A 
ATOM      5  C   UNL     1      50.698   2.160  17.272  0.00  0.00    +0.000 A 
ATOM      6  C   UNL     1      49.343   2.180  16.949  0.00  0.00    +0.000 A 
ATOM      7  C   UNL     1      48.653   3.382  16.907  0.00  0.00    +0.000 A 
BRANCH   5   8
ATOM      8  O   UNL     1      51.418   1.012  17.448  0.00  0.00    +0.000 OA
BRANCH   8   9
ATOM      9  C   UNL     1      52.744   1.246  17.941  0.00  0.00    +0.000 C 
BRANCH   9  10
ATOM     10  C   UNL     1      53.601   0.030  17.731  0.00  0.00    +0.000 A 
ATOM     11  C   UNL     1      54.279  -0.136  16.524  0.00  0.00    +0.000 A 
ATOM     12  C   UNL     1      55.093  -1.249  16.365  0.00  0.00    +0.000 A 
ATOM     13  C   UNL     1      55.212  -2.155  17.414  0.00  0.00    +0.000 A 
ATOM     14  C   UNL     1      54.515  -1.904  18.588  0.00  0.00    +0.000 A 
ATOM     15  N   UNL     1      53.720  -0.833  18.770  0.00  0.00    +0.000 NA
ENDBRANCH   9  10
ENDBRANCH   8   9
ENDBRANCH   5   8
ENDBRANCH   1   2
BRANCH   1  16
ATOM     16  N   UNL     1      47.739   5.921  15.928  0.00  0.00    +0.000 N 
ATOM     17  C   UNL     1      48.267   6.324  14.727  0.00  0.00    +0.000 C 
ATOM     18  O   UNL     1      49.441   6.641  14.590  0.00  0.00    +0.000 OA
ATOM     19  H   UNL     1      46.742   5.792  16.024  0.00  0.00    +0.000 HD
BRANCH  17  20
ATOM     20  C   UNL     1      47.324   6.313  13.615  0.00  0.00    +0.000 A 
ATOM     21  C   UNL     1      46.914   7.447  12.931  0.00  0.00    +0.000 A 
ATOM     22  S   UNL     1      45.680   7.122  11.789  0.00  0.00    +0.000 S 
ATOM     23  C   UNL     1      45.669   5.465  12.185  0.00  0.00    +0.000 A 
ATOM     24  N   UNL     1      44.795   4.601  11.605  0.00  0.00    +0.000 NA
ATOM     25  C   UNL     1      44.894   3.385  12.028  0.00  0.00    +0.000 A 
ATOM     26  N   UNL     1      45.808   2.948  12.957  0.00  0.00    +0.000 N 
ATOM     27  C   UNL     1      46.788   3.759  13.479  0.00  0.00    +0.000 A 
ATOM     28  O   UNL     1      47.732   3.291  14.105  0.00  0.00    +0.000 OA
ATOM     29  C   UNL     1      46.632   5.156  13.125  0.00  0.00    +0.000 A 
ATOM     30  H   UNL     1      45.883   1.969  13.187  0.00  0.00    +0.000 HD
ENDBRANCH  17  20
ENDBRANCH   1  16
BRANCH   1  31
ATOM     31  C   UNL     1      47.649   6.161  18.387  0.00  0.00    +0.000 C 
BRANCH  31  32
ATOM     32  N   UNL     1      46.469   5.294  18.481  0.00  0.00    +0.000 NA
ATOM     33  H   UNL     1      46.216   4.962  17.552  0.00  0.00    +0.000 HD
ATOM     34  H   UNL     1      45.677   5.846  18.813  0.00  0.00    +0.000 HD
ENDBRANCH  31  32
ENDBRANCH   1  31
TORSDOF 8
ENDMDL
MODEL 5
REMARK VINA RESULT:    -6.715      3.697      4.211
REMARK INTER + INTRA:         -10.946
REMARK INTER:                  -9.983
REMARK INTRA:                  -0.962
REMARK UNBOUND:                -1.286
REMARK  Name = 
REMARK  8 active torsions:
REMARK  status: ('A' for Active; 'I' for Inactive)
REMARK    1  A    between atoms: N_1  and  C_2
REMARK    2  A    between atoms: C_2  and  C_3
REMARK    3  A    between atoms: C_3  and  N_4
REMARK    4  A    between atoms: C_3  and  C_17
REMARK    5  A    between atoms: C_5  and  C_7
REMARK    6  A    between atoms: C_20  and  O_21
REMARK    7  A    between atoms: O_21  and  C_22
REMARK    8  A    between atoms: C_22  and  C_23
REMARK                            x       y       z     vdW  Elec       q    Type
REMARK                         _______ _______ _______ _____ _____    ______ ____
ROOT
ATOM      1  C   UNL     1      45.553   8.371  12.690  0.00  0.00    +0.000 C 
ENDROOT
BRANCH   1   2
ATOM      2  C   UNL     1      45.386   6.976  12.121  0.00  0.00    +0.000 A 
ATOM      3  C   UNL     1      45.791   6.686  10.808  0.00  0.00    +0.000 A 
ATOM      4  C   UNL     1      45.668   5.388  10.299  0.00  0.00    +0.000 A 
ATOM      5  C   UNL     1      45.133   4.377  11.098  0.00  0.00    +0.000 A 
ATOM      6  C   UNL     1      44.642   4.683  12.364  0.00  0.00    +0.000 A 
ATOM      7  C   UNL     1      44.779   5.966  12.875  0.00  0.00    +0.000 A 
BRANCH   5   8
ATOM      8  O   UNL     1      45.142   3.115  10.573  0.00  0.00    +0.000 OA
BRANCH   8   9
ATOM      9  C   UNL     1      44.531   3.036   9.278  0.00  0.00    +0.000 C 
BRANCH   9  10
ATOM     10  C   UNL     1      45.559   2.700   8.236  0.00  0.00    +0.000 A 
ATOM     11  C   UNL     1      46.201   1.464   8.274  0.00  0.00    +0.000 A 
ATOM     12  C   UNL     1      47.123   1.160   7.281  0.00  0.00    +0.000 A 
ATOM     13  C   UNL     1      47.366   2.093   6.278  0.00  0.00    +0.000 A 
ATOM     14  C   UNL     1      46.669   3.292   6.305  0.00  0.00    +0.000 A 
ATOM     15  N   UNL     1      45.771   3.612   7.255  0.00  0.00    +0.000 NA
ENDBRANCH   9  10
ENDBRANCH   8   9
ENDBRANCH   5   8
ENDBRANCH   1   2
BRANCH   1  16
ATOM     16  N   UNL     1      46.912   8.800  12.412  0.00  0.00    +0.000 N 
ATOM     17  C   UNL     1      47.763   9.163  13.426  0.00  0.00    +0.000 C 
ATOM     18  O   UNL     1      47.452   9.102  14.609  0.00  0.00    +0.000 OA
ATOM     19  H   UNL     1      47.162   8.986  11.452  0.00  0.00    +0.000 HD
BRANCH  17  20
ATOM     20  C   UNL     1      49.083   9.597  12.985  0.00  0.00    +0.000 A 
ATOM     21  C   UNL     1      49.566  10.889  13.128  0.00  0.00    +0.000 A 
ATOM     22  S   UNL     1      51.080  11.118  12.364  0.00  0.00    +0.000 S 
ATOM     23  C   UNL     1      51.121   9.501  11.829  0.00  0.00    +0.000 A 
ATOM     24  N   UNL     1      52.138   9.032  11.058  0.00  0.00    +0.000 NA
ATOM     25  C   UNL     1      52.012   7.794  10.713  0.00  0.00    +0.000 A 
ATOM     26  N   UNL     1      50.978   6.973  11.093  0.00  0.00    +0.000 N 
ATOM     27  C   UNL     1      49.995   7.369  11.969  0.00  0.00    +0.000 A 
ATOM     28  O   UNL     1      49.236   6.554  12.481  0.00  0.00    +0.000 OA
ATOM     29  C   UNL     1      50.030   8.785  12.278  0.00  0.00    +0.000 A 
ATOM     30  H   UNL     1      50.980   5.994  10.852  0.00  0.00    +0.000 HD
ENDBRANCH  17  20
ENDBRANCH   1  16
BRANCH   1  31
ATOM     31  C   UNL     1      44.534   9.422  12.148  0.00  0.00    +0.000 C 
BRANCH  31  32
ATOM     32  N   UNL     1      43.557   8.889  11.192  0.00  0.00    +0.000 NA
ATOM     33  H   UNL     1      43.016   9.655  10.796  0.00  0.00    +0.000 HD
ATOM     34  H   UNL     1      42.892   8.297  11.691  0.00  0.00    +0.000 HD
ENDBRANCH  31  32
ENDBRANCH   1  31
TORSDOF 8
ENDMDL
MODEL 6
REMARK VINA RESULT:    -6.632      1.491      2.019
REMARK INTER + INTRA:         -10.825
REMARK INTER:                  -9.505
REMARK INTRA:                  -1.320
REMARK UNBOUND:                -1.286
REMARK  Name = 
REMARK  8 active torsions:
REMARK  status: ('A' for Active; 'I' for Inactive)
REMARK    1  A    between atoms: N_1  and  C_2
REMARK    2  A    between atoms: C_2  and  C_3
REMARK    3  A    between atoms: C_3  and  N_4
REMARK    4  A    between atoms: C_3  and  C_17
REMARK    5  A    between atoms: C_5  and  C_7
REMARK    6  A    between atoms: C_20  and  O_21
REMARK    7  A    between atoms: O_21  and  C_22
REMARK    8  A    between atoms: C_22  and  C_23
REMARK                            x       y       z     vdW  Elec       q    Type
REMARK                         _______ _______ _______ _____ _____    ______ ____
ROOT
ATOM      1  C   UNL     1      48.181   8.284  14.467  0.00  0.00    +0.000 C 
ENDROOT
BRANCH   1   2
ATOM      2  C   UNL     1      47.205   7.624  13.513  0.00  0.00    +0.000 A 
ATOM      3  C   UNL     1      46.156   8.362  12.941  0.00  0.00    +0.000 A 
ATOM      4  C   UNL     1      45.279   7.758  12.033  0.00  0.00    +0.000 A 
ATOM      5  C   UNL     1      45.443   6.414  11.698  0.00  0.00    +0.000 A 
ATOM      6  C   UNL     1      46.421   5.657  12.337  0.00  0.00    +0.000 A 
ATOM      7  C   UNL     1      47.301   6.259  13.225  0.00  0.00    +0.000 A 
BRANCH   5   8
ATOM      8  O   UNL     1      44.617   5.921  10.727  0.00  0.00    +0.000 OA
BRANCH   8   9
ATOM      9  C   UNL     1      44.452   4.498  10.794  0.00  0.00    +0.000 C 
BRANCH   9  10
ATOM     10  C   UNL     1      45.137   3.838   9.631  0.00  0.00    +0.000 A 
ATOM     11  C   UNL     1      45.162   2.447   9.543  0.00  0.00    +0.000 A 
ATOM     12  C   UNL     1      45.769   1.859   8.443  0.00  0.00    +0.000 A 
ATOM     13  C   UNL     1      46.323   2.675   7.461  0.00  0.00    +0.000 A 
ATOM     14  C   UNL     1      46.238   4.051   7.618  0.00  0.00    +0.000 A 
ATOM     15  N   UNL     1      45.655   4.648   8.674  0.00  0.00    +0.000 NA
ENDBRANCH   9  10
ENDBRANCH   8   9
ENDBRANCH   5   8
ENDBRANCH   1   2
BRANCH   1  16
ATOM     16  N   UNL     1      48.908   7.230  15.153  0.00  0.00    +0.000 N 
ATOM     17  C   UNL     1      49.055   7.242  16.517  0.00  0.00    +0.000 C 
ATOM     18  O   UNL     1      48.551   8.099  17.233  0.00  0.00    +0.000 OA
ATOM     19  H   UNL     1      49.443   6.582  14.593  0.00  0.00    +0.000 HD
BRANCH  17  20
ATOM     20  C   UNL     1      49.833   6.133  17.054  0.00  0.00    +0.000 A 
ATOM     21  C   UNL     1      51.100   6.263  17.601  0.00  0.00    +0.000 A 
ATOM     22  S   UNL     1      51.812   4.756  17.991  0.00  0.00    +0.000 S 
ATOM     23  C   UNL     1      50.445   3.901  17.438  0.00  0.00    +0.000 A 
ATOM     24  N   UNL     1      50.408   2.542  17.437  0.00  0.00    +0.000 NA
ATOM     25  C   UNL     1      49.314   2.044  16.965  0.00  0.00    +0.000 A 
ATOM     26  N   UNL     1      48.242   2.780  16.521  0.00  0.00    +0.000 N 
ATOM     27  C   UNL     1      48.187   4.150  16.617  0.00  0.00    +0.000 A 
ATOM     28  O   UNL     1      47.135   4.756  16.449  0.00  0.00    +0.000 OA
ATOM     29  C   UNL     1      49.441   4.753  17.023  0.00  0.00    +0.000 A 
ATOM     30  H   UNL     1      47.387   2.327  16.236  0.00  0.00    +0.000 HD
ENDBRANCH  17  20
ENDBRANCH   1  16
BRANCH   1  31
ATOM     31  C   UNL     1      49.181   9.277  13.793  0.00  0.00    +0.000 C 
BRANCH  31  32
ATOM     32  N   UNL     1      50.241   8.637  13.008  0.00  0.00    +0.000 NA
ATOM     33  H   UNL     1      50.107   7.627  13.014  0.00  0.00    +0.000 HD
ATOM     34  H   UNL     1      51.140   8.809  13.461  0.00  0.00    +0.000 HD
ENDBRANCH  31  32
ENDBRANCH   1  31
TORSDOF 8
ENDMDL
MODEL 7
REMARK VINA RESULT:    -6.506      3.060      8.797
REMARK INTER + INTRA:         -10.645
REMARK INTER:                  -9.718
REMARK INTRA:                  -0.927
REMARK UNBOUND:                -1.286
REMARK  Name = 
REMARK  8 active torsions:
REMARK  status: ('A' for Active; 'I' for Inactive)
REMARK    1  A    between atoms: N_1  and  C_2
REMARK    2  A    between atoms: C_2  and  C_3
REMARK    3  A    between atoms: C_3  and  N_4
REMARK    4  A    between atoms: C_3  and  C_17
REMARK    5  A    between atoms: C_5  and  C_7
REMARK    6  A    between atoms: C_20  and  O_21
REMARK    7  A    between atoms: O_21  and  C_22
REMARK    8  A    between atoms: C_22  and  C_23
REMARK                            x       y       z     vdW  Elec       q    Type
REMARK                         _______ _______ _______ _____ _____    ______ ____
ROOT
ATOM      1  C   UNL     1      44.654   4.751  11.779  0.00  0.00    +0.000 C 
ENDROOT
BRANCH   1   2
ATOM      2  C   UNL     1      45.812   5.139  12.678  0.00  0.00    +0.000 A 
ATOM      3  C   UNL     1      46.663   6.200  12.329  0.00  0.00    +0.000 A 
ATOM      4  C   UNL     1      47.709   6.577  13.179  0.00  0.00    +0.000 A 
ATOM      5  C   UNL     1      47.912   5.892  14.377  0.00  0.00    +0.000 A 
ATOM      6  C   UNL     1      47.130   4.779  14.677  0.00  0.00    +0.000 A 
ATOM      7  C   UNL     1      46.084   4.415  13.843  0.00  0.00    +0.000 A 
BRANCH   5   8
ATOM      8  O   UNL     1      48.882   6.382  15.205  0.00  0.00    +0.000 OA
BRANCH   8   9
ATOM      9  C   UNL     1      48.668   6.054  16.584  0.00  0.00    +0.000 C 
BRANCH   9  10
ATOM     10  C   UNL     1      49.703   5.071  17.053  0.00  0.00    +0.000 A 
ATOM     11  C   UNL     1      49.325   3.765  17.360  0.00  0.00    +0.000 A 
ATOM     12  C   UNL     1      50.302   2.864  17.758  0.00  0.00    +0.000 A 
ATOM     13  C   UNL     1      51.625   3.290  17.828  0.00  0.00    +0.000 A 
ATOM     14  C   UNL     1      51.917   4.603  17.487  0.00  0.00    +0.000 A 
ATOM     15  N   UNL     1      50.989   5.497  17.098  0.00  0.00    +0.000 NA
ENDBRANCH   9  10
ENDBRANCH   8   9
ENDBRANCH   5   8
ENDBRANCH   1   2
BRANCH   1  16
ATOM     16  N   UNL     1      45.124   3.716  10.876  0.00  0.00    +0.000 N 
ATOM     17  C   UNL     1      44.672   3.644   9.583  0.00  0.00    +0.000 C 
ATOM     18  O   UNL     1      43.896   4.461   9.103  0.00  0.00    +0.000 OA
ATOM     19  H   UNL     1      45.660   2.954  11.267  0.00  0.00    +0.000 HD
BRANCH  17  20
ATOM     20  C   UNL     1      45.215   2.534   8.810  0.00  0.00    +0.000 A 
ATOM     21  C   UNL     1      44.797   1.218   8.938  0.00  0.00    +0.000 A 
ATOM     22  S   UNL     1      45.741   0.130   8.013  0.00  0.00    +0.000 S 
ATOM     23  C   UNL     1      46.723   1.391   7.425  0.00  0.00    +0.000 A 
ATOM     24  N   UNL     1      47.781   1.146   6.606  0.00  0.00    +0.000 NA
ATOM     25  C   UNL     1      48.443   2.202   6.267  0.00  0.00    +0.000 A 
ATOM     26  N   UNL     1      48.126   3.484   6.646  0.00  0.00    +0.000 N 
ATOM     27  C   UNL     1      46.998   3.790   7.371  0.00  0.00    +0.000 A 
ATOM     28  O   UNL     1      46.609   4.948   7.481  0.00  0.00    +0.000 OA
ATOM     29  C   UNL     1      46.300   2.624   7.876  0.00  0.00    +0.000 A 
ATOM     30  H   UNL     1      48.639   4.272   6.282  0.00  0.00    +0.000 HD
ENDBRANCH  17  20
ENDBRANCH   1  16
BRANCH   1  31
ATOM     31  C   UNL     1      43.376   4.268  12.535  0.00  0.00    +0.000 C 
BRANCH  31  32
ATOM     32  N   UNL     1      42.672   5.319  13.277  0.00  0.00    +0.000 NA
ATOM     33  H   UNL     1      42.783   6.209  12.794  0.00  0.00    +0.000 HD
ATOM     34  H   UNL     1      43.112   5.432  14.191  0.00  0.00    +0.000 HD
ENDBRANCH  31  32
ENDBRANCH   1  31
TORSDOF 8
ENDMDL
MODEL 8
REMARK VINA RESULT:    -6.278      3.743      8.540
REMARK INTER + INTRA:         -10.317
REMARK INTER:                  -8.876
REMARK INTRA:                  -1.440
REMARK UNBOUND:                -1.286
REMARK  Name = 
REMARK  8 active torsions:
REMARK  status: ('A' for Active; 'I' for Inactive)
REMARK    1  A    between atoms: N_1  and  C_2
REMARK    2  A    between atoms: C_2  and  C_3
REMARK    3  A    between atoms: C_3  and  N_4
REMARK    4  A    between atoms: C_3  and  C_17
REMARK    5  A    between atoms: C_5  and  C_7
REMARK    6  A    between atoms: C_20  and  O_21
REMARK    7  A    between atoms: O_21  and  C_22
REMARK    8  A    between atoms: C_22  and  C_23
REMARK                            x       y       z     vdW  Elec       q    Type
REMARK                         _______ _______ _______ _____ _____    ______ ____
ROOT
ATOM      1  C   UNL     1      48.966   7.185  15.464  0.00  0.00    +0.000 C 
ENDROOT
BRANCH   1   2
ATOM      2  C   UNL     1      49.702   6.220  16.372  0.00  0.00    +0.000 A 
ATOM      3  C   UNL     1      51.086   6.344  16.573  0.00  0.00    +0.000 A 
ATOM      4  C   UNL     1      51.756   5.473  17.440  0.00  0.00    +0.000 A 
ATOM      5  C   UNL     1      51.046   4.472  18.105  0.00  0.00    +0.000 A 
ATOM      6  C   UNL     1      49.693   4.288  17.832  0.00  0.00    +0.000 A 
ATOM      7  C   UNL     1      49.026   5.161  16.985  0.00  0.00    +0.000 A 
BRANCH   5   8
ATOM      8  O   UNL     1      51.744   3.730  19.015  0.00  0.00    +0.000 OA
BRANCH   8   9
ATOM      9  C   UNL     1      53.165   3.839  18.864  0.00  0.00    +0.000 C 
BRANCH   9  10
ATOM     10  C   UNL     1      53.713   2.620  18.179  0.00  0.00    +0.000 A 
ATOM     11  C   UNL     1      54.792   2.745  17.306  0.00  0.00    +0.000 A 
ATOM     12  C   UNL     1      55.305   1.601  16.711  0.00  0.00    +0.000 A 
ATOM     13  C   UNL     1      54.732   0.368  17.012  0.00  0.00    +0.000 A 
ATOM     14  C   UNL     1      53.672   0.332  17.907  0.00  0.00    +0.000 A 
ATOM     15  N   UNL     1      53.156   1.425  18.498  0.00  0.00    +0.000 NA
ENDBRANCH   9  10
ENDBRANCH   8   9
ENDBRANCH   5   8
ENDBRANCH   1   2
BRANCH   1  16
ATOM     16  N   UNL     1      47.829   6.480  14.900  0.00  0.00    +0.000 N 
ATOM     17  C   UNL     1      47.845   6.029  13.604  0.00  0.00    +0.000 C 
ATOM     18  O   UNL     1      48.819   6.147  12.871  0.00  0.00    +0.000 OA
ATOM     19  H   UNL     1      46.966   6.477  15.425  0.00  0.00    +0.000 HD
BRANCH  17  20
ATOM     20  C   UNL     1      46.619   5.365  13.176  0.00  0.00    +0.000 A 
ATOM     21  C   UNL     1      46.438   3.991  13.174  0.00  0.00    +0.000 A 
ATOM     22  S   UNL     1      44.955   3.519  12.463  0.00  0.00    +0.000 S 
ATOM     23  C   UNL     1      44.526   5.137  12.144  0.00  0.00    +0.000 A 
ATOM     24  N   UNL     1      43.376   5.453  11.491  0.00  0.00    +0.000 NA
ATOM     25  C   UNL     1      43.205   6.719  11.304  0.00  0.00    +0.000 A 
ATOM     26  N   UNL     1      44.065   7.701  11.735  0.00  0.00    +0.000 N 
ATOM     27  C   UNL     1      45.174   7.436  12.503  0.00  0.00    +0.000 A 
ATOM     28  O   UNL     1      45.777   8.335  13.079  0.00  0.00    +0.000 OA
ATOM     29  C   UNL     1      45.468   6.022  12.628  0.00  0.00    +0.000 A 
ATOM     30  H   UNL     1      43.833   8.676  11.624  0.00  0.00    +0.000 HD
ENDBRANCH  17  20
ENDBRANCH   1  16
BRANCH   1  31
ATOM     31  C   UNL     1      48.493   8.502  16.158  0.00  0.00    +0.000 C 
BRANCH  31  32
ATOM     32  N   UNL     1      47.464   9.245  15.422  0.00  0.00    +0.000 NA
ATOM     33  H   UNL     1      47.902   9.993  14.887  0.00  0.00    +0.000 HD
ATOM     34  H   UNL     1      46.840   9.698  16.090  0.00  0.00    +0.000 HD
ENDBRANCH  31  32
ENDBRANCH   1  31
TORSDOF 8
ENDMDL
MODEL 9
REMARK VINA RESULT:    -6.011      2.706      8.171
REMARK INTER + INTRA:          -9.932
REMARK INTER:                 -10.100
REMARK INTRA:                   0.168
REMARK UNBOUND:                -1.286
REMARK  Name = 
REMARK  8 active torsions:
REMARK  status: ('A' for Active; 'I' for Inactive)
REMARK    1  A    between atoms: N_1  and  C_2
REMARK    2  A    between atoms: C_2  and  C_3
REMARK    3  A    between atoms: C_3  and  N_4
REMARK    4  A    between atoms: C_3  and  C_17
REMARK    5  A    between atoms: C_5  and  C_7
REMARK    6  A    between atoms: C_20  and  O_21
REMARK    7  A    between atoms: O_21  and  C_22
REMARK    8  A    between atoms: C_22  and  C_23
REMARK                            x       y       z     vdW  Elec       q    Type
REMARK                         _______ _______ _______ _____ _____    ______ ____
ROOT
ATOM      1  C   UNL     1      47.779   7.365  12.195  0.00  0.00    +0.000 C 
ENDROOT
BRANCH   1   2
ATOM      2  C   UNL     1      48.498   7.113  13.506  0.00  0.00    +0.000 A 
ATOM      3  C   UNL     1      47.906   6.324  14.505  0.00  0.00    +0.000 A 
ATOM      4  C   UNL     1      48.588   6.064  15.699  0.00  0.00    +0.000 A 
ATOM      5  C   UNL     1      49.861   6.598  15.901  0.00  0.00    +0.000 A 
ATOM      6  C   UNL     1      50.409   7.459  14.953  0.00  0.00    +0.000 A 
ATOM      7  C   UNL     1      49.740   7.703  13.763  0.00  0.00    +0.000 A 
BRANCH   5   8
ATOM      8  O   UNL     1      50.510   6.216  17.042  0.00  0.00    +0.000 OA
BRANCH   8   9
ATOM      9  C   UNL     1      49.845   5.156  17.743  0.00  0.00    +0.000 C 
BRANCH   9  10
ATOM     10  C   UNL     1      50.650   3.890  17.659  0.00  0.00    +0.000 A 
ATOM     11  C   UNL     1      51.905   3.829  18.262  0.00  0.00    +0.000 A 
ATOM     12  C   UNL     1      52.616   2.639  18.203  0.00  0.00    +0.000 A 
ATOM     13  C   UNL     1      52.050   1.546  17.554  0.00  0.00    +0.000 A 
ATOM     14  C   UNL     1      50.787   1.687  16.997  0.00  0.00    +0.000 A 
ATOM     15  N   UNL     1      50.076   2.829  17.040  0.00  0.00    +0.000 NA
ENDBRANCH   9  10
ENDBRANCH   8   9
ENDBRANCH   5   8
ENDBRANCH   1   2
BRANCH   1  16
ATOM     16  N   UNL     1      46.910   6.230  11.943  0.00  0.00    +0.000 N 
ATOM     17  C   UNL     1      45.566   6.399  11.728  0.00  0.00    +0.000 C 
ATOM     18  O   UNL     1      45.032   7.501  11.687  0.00  0.00    +0.000 OA
ATOM     19  H   UNL     1      47.285   5.304  12.096  0.00  0.00    +0.000 HD
BRANCH  17  20
ATOM     20  C   UNL     1      44.823   5.162  11.518  0.00  0.00    +0.000 A 
ATOM     21  C   UNL     1      43.986   4.587  12.462  0.00  0.00    +0.000 A 
ATOM     22  S   UNL     1      43.392   3.057  11.975  0.00  0.00    +0.000 S 
ATOM     23  C   UNL     1      44.238   3.133  10.499  0.00  0.00    +0.000 A 
ATOM     24  N   UNL     1      44.210   2.105   9.609  0.00  0.00    +0.000 NA
ATOM     25  C   UNL     1      44.922   2.303   8.550  0.00  0.00    +0.000 A 
ATOM     26  N   UNL     1      45.636   3.447   8.285  0.00  0.00    +0.000 N 
ATOM     27  C   UNL     1      45.595   4.557   9.096  0.00  0.00    +0.000 A 
ATOM     28  O   UNL     1      46.033   5.637   8.716  0.00  0.00    +0.000 OA
ATOM     29  C   UNL     1      44.911   4.329  10.354  0.00  0.00    +0.000 A 
ATOM     30  H   UNL     1      46.109   3.568   7.402  0.00  0.00    +0.000 HD
ENDBRANCH  17  20
ENDBRANCH   1  16
BRANCH   1  31
ATOM     31  C   UNL     1      46.959   8.693  12.146  0.00  0.00    +0.000 C 
BRANCH  31  32
ATOM     32  N   UNL     1      46.708   9.304  13.457  0.00  0.00    +0.000 NA
ATOM     33  H   UNL     1      45.751   9.651  13.493  0.00  0.00    +0.000 HD
ATOM     34  H   UNL     1      47.313  10.119  13.564  0.00  0.00    +0.000 HD
ENDBRANCH  31  32
ENDBRANCH   1  31
TORSDOF 8
ENDMDL
