MODEL 1
REMARK VINA RESULT:    -6.514      0.000      0.000
REMARK INTER + INTRA:         -11.739
REMARK INTER:                 -10.131
REMARK INTRA:                  -1.608
REMARK UNBOUND:                -1.608
REMARK  Name = 
REMARK  10 active torsions:
REMARK  status: ('A' for Active; 'I' for Inactive)
REMARK    1  A    between atoms: N_1  and  C_2
REMARK    2  A    between atoms: C_2  and  C_3
REMARK    3  A    between atoms: C_3  and  N_4
REMARK    4  A    between atoms: N_4  and  C_5
REMARK    5  A    between atoms: C_5  and  C_6
REMARK    6  A    between atoms: C_9  and  C_10
REMARK    7  A    between atoms: C_10  and  N_11
REMARK    8  A    between atoms: N_11  and  C_12
REMARK    9  A    between atoms: C_12  and  C_13
REMARK   10  A    between atoms: C_20  and  C_22
REMARK                            x       y       z     vdW  Elec       q    Type
REMARK                         _______ _______ _______ _____ _____    ______ ____
ROOT
ATOM      1  N   UNL     1      48.847   7.089  13.742  0.00  0.00    +0.000 N 
ATOM      2  C   UNL     1      49.587   7.002  14.944  0.00  0.00    +0.000 C 
ATOM      3  O   UNL     1      50.792   7.254  14.960  0.00  0.00    +0.000 OA
ENDROOT
BRANCH   2   4
ATOM      4  C   UNL     1      48.912   6.605  16.202  0.00  0.00    +0.000 A 
ATOM      5  C   UNL     1      48.746   5.298  16.636  0.00  0.00    +0.000 A 
ATOM      6  S   UNL     1      47.975   5.159  18.153  0.00  0.00    +0.000 S 
ATOM      7  C   UNL     1      47.968   6.841  18.357  0.00  0.00    +0.000 A 
ATOM      8  N   UNL     1      47.534   7.399  19.520  0.00  0.00    +0.000 NA
ATOM      9  C   UNL     1      47.622   8.687  19.552  0.00  0.00    +0.000 A 
ATOM     10  N   UNL     1      48.072   9.471  18.522  0.00  0.00    +0.000 N 
ATOM     11  C   UNL     1      48.393   8.955  17.275  0.00  0.00    +0.000 A 
ATOM     12  O   UNL     1      48.532   9.694  16.310  0.00  0.00    +0.000 OA
ATOM     13  C   UNL     1      48.433   7.505  17.234  0.00  0.00    +0.000 A 
ATOM     14  H   UNL     1      48.042  10.477  18.583  0.00  0.00    +0.000 HD
ENDBRANCH   2   4
BRANCH   1  15
ATOM     15  C   UNL     1      49.573   7.510  12.529  0.00  0.00    +0.000 C 
BRANCH  15  16
ATOM     16  C   UNL     1      49.612   9.025  12.208  0.00  0.00    +0.000 C 
BRANCH  16  17
ATOM     17  N   UNL     1      49.600   9.922  13.371  0.00  0.00    +0.000 NA
ATOM     18  H   UNL     1      50.473   9.779  13.884  0.00  0.00    +0.000 HD
ATOM     19  H   UNL     1      48.870   9.625  14.019  0.00  0.00    +0.000 HD
ENDBRANCH  16  17
ENDBRANCH  15  16
ENDBRANCH   1  15
BRANCH   1  20
ATOM     20  C   UNL     1      47.393   6.968  13.734  0.00  0.00    +0.000 C 
BRANCH  20  21
ATOM     21  C   UNL     1      46.702   6.002  12.819  0.00  0.00    +0.000 A 
ATOM     22  C   UNL     1      46.200   6.389  11.576  0.00  0.00    +0.000 A 
ATOM     23  C   UNL     1      45.345   5.531  10.883  0.00  0.00    +0.000 A 
ATOM     24  C   UNL     1      45.020   4.299  11.451  0.00  0.00    +0.000 A 
ATOM     25  N   UNL     1      45.584   3.877  12.612  0.00  0.00    +0.000 NA
ATOM     26  C   UNL     1      46.397   4.725  13.267  0.00  0.00    +0.000 A 
BRANCH  24  27
ATOM     27  C   UNL     1      43.996   3.383  10.790  0.00  0.00    +0.000 C 
BRANCH  27  28
ATOM     28  N   UNL     1      44.635   2.282  10.057  0.00  0.00    +0.000 NA
ATOM     29  H   UNL     1      44.120   1.421  10.234  0.00  0.00    +0.000 HD
BRANCH  28  30
ATOM     30  C   UNL     1      44.803   2.536   8.634  0.00  0.00    +0.000 C 
BRANCH  30  31
ATOM     31  C   UNL     1      46.300   2.578   8.262  0.00  0.00    +0.000 C 
ATOM     32  C   UNL     1      46.637   3.544   7.128  0.00  0.00    +0.000 C 
ATOM     33  C   UNL     1      46.603   2.673   5.890  0.00  0.00    +0.000 C 
ATOM     34  N   UNL     1      47.180   1.399   6.328  0.00  0.00    +0.000 NA
ATOM     35  C   UNL     1      46.778   1.221   7.732  0.00  0.00    +0.000 C 
ATOM     36  H   UNL     1      48.197   1.480   6.291  0.00  0.00    +0.000 HD
ENDBRANCH  30  31
ENDBRANCH  28  30
ENDBRANCH  27  28
ENDBRANCH  24  27
ENDBRANCH  20  21
ENDBRANCH   1  20
TORSDOF 10
ENDMDL
MODEL 2
REMARK VINA RESULT:    -6.484      2.958      8.892
REMARK INTER + INTRA:         -11.692
REMARK INTER:                 -10.035
REMARK INTRA:                  -1.657
REMARK UNBOUND:                -1.608
REMARK  Name = 
REMARK  10 active torsions:
REMARK  status: ('A' for Active; 'I' for Inactive)
REMARK    1  A    between atoms: N_1  and  C_2
REMARK    2  A    between atoms: C_2  and  C_3
REMARK    3  A    between atoms: C_3  and  N_4
REMARK    4  A    between atoms: N_4  and  C_5
REMARK    5  A    between atoms: C_5  and  C_6
REMARK    6  A    between atoms: C_9  and  C_10
REMARK    7  A    between atoms: C_10  and  N_11
REMARK    8  A    between atoms: N_11  and  C_12
REMARK    9  A    between atoms: C_12  and  C_13
REMARK   10  A    between atoms: C_20  and  C_22
REMARK                            x       y       z     vdW  Elec       q    Type
REMARK                         _______ _______ _______ _____ _____    ______ ____
ROOT
ATOM      1  N   UNL     1      45.979   7.045  12.404  0.00  0.00    +0.000 N 
ATOM      2  C   UNL     1      44.773   6.672  11.765  0.00  0.00    +0.000 C 
ATOM      3  O   UNL     1      43.977   7.527  11.378  0.00  0.00    +0.000 OA
ENDROOT
BRANCH   2   4
ATOM      4  C   UNL     1      44.459   5.239  11.554  0.00  0.00    +0.000 A 
ATOM      5  C   UNL     1      43.700   4.458  12.414  0.00  0.00    +0.000 A 
ATOM      6  S   UNL     1      43.465   2.855  11.875  0.00  0.00    +0.000 S 
ATOM      7  C   UNL     1      44.240   3.184  10.405  0.00  0.00    +0.000 A 
ATOM      8  N   UNL     1      44.291   2.247   9.419  0.00  0.00    +0.000 NA
ATOM      9  C   UNL     1      44.876   2.647   8.340  0.00  0.00    +0.000 A 
ATOM     10  N   UNL     1      45.443   3.882   8.165  0.00  0.00    +0.000 N 
ATOM     11  C   UNL     1      45.536   4.815   9.187  0.00  0.00    +0.000 A 
ATOM     12  O   UNL     1      46.272   5.787   9.082  0.00  0.00    +0.000 OA
ATOM     13  C   UNL     1      44.780   4.460  10.374  0.00  0.00    +0.000 A 
ATOM     14  H   UNL     1      45.954   4.104   7.325  0.00  0.00    +0.000 HD
ENDBRANCH   2   4
BRANCH   1  15
ATOM     15  C   UNL     1      46.242   8.487  12.565  0.00  0.00    +0.000 C 
BRANCH  15  16
ATOM     16  C   UNL     1      47.610   9.022  12.073  0.00  0.00    +0.000 C 
BRANCH  16  17
ATOM     17  N   UNL     1      48.526   9.489  13.122  0.00  0.00    +0.000 NA
ATOM     18  H   UNL     1      48.493   8.813  13.889  0.00  0.00    +0.000 HD
ATOM     19  H   UNL     1      48.164  10.354  13.526  0.00  0.00    +0.000 HD
ENDBRANCH  16  17
ENDBRANCH  15  16
ENDBRANCH   1  15
BRANCH   1  20
ATOM     20  C   UNL     1      47.012   6.061  12.711  0.00  0.00    +0.000 C 
BRANCH  20  21
ATOM     21  C   UNL     1      47.286   5.641  14.123  0.00  0.00    +0.000 A 
ATOM     22  C   UNL     1      48.236   6.286  14.917  0.00  0.00    +0.000 A 
ATOM     23  C   UNL     1      48.638   5.701  16.119  0.00  0.00    +0.000 A 
ATOM     24  C   UNL     1      48.070   4.486  16.501  0.00  0.00    +0.000 A 
ATOM     25  N   UNL     1      47.075   3.905  15.783  0.00  0.00    +0.000 NA
ATOM     26  C   UNL     1      46.711   4.482  14.622  0.00  0.00    +0.000 A 
BRANCH  24  27
ATOM     27  C   UNL     1      48.566   3.751  17.742  0.00  0.00    +0.000 C 
BRANCH  27  28
ATOM     28  N   UNL     1      47.813   4.132  18.944  0.00  0.00    +0.000 NA
ATOM     29  H   UNL     1      47.314   3.317  19.297  0.00  0.00    +0.000 HD
BRANCH  28  30
ATOM     30  C   UNL     1      48.621   4.766  19.974  0.00  0.00    +0.000 C 
BRANCH  30  31
ATOM     31  C   UNL     1      47.950   6.065  20.469  0.00  0.00    +0.000 C 
ATOM     32  C   UNL     1      47.264   6.874  19.371  0.00  0.00    +0.000 C 
ATOM     33  C   UNL     1      48.320   7.870  18.942  0.00  0.00    +0.000 C 
ATOM     34  N   UNL     1      48.995   8.241  20.189  0.00  0.00    +0.000 NA
ATOM     35  C   UNL     1      48.987   7.041  21.040  0.00  0.00    +0.000 C 
ATOM     36  H   UNL     1      48.442   8.966  20.648  0.00  0.00    +0.000 HD
ENDBRANCH  30  31
ENDBRANCH  28  30
ENDBRANCH  27  28
ENDBRANCH  24  27
ENDBRANCH  20  21
ENDBRANCH   1  20
TORSDOF 10
ENDMDL
MODEL 3
REMARK VINA RESULT:    -6.394      3.428      8.604
REMARK INTER + INTRA:         -11.552
REMARK INTER:                 -10.023
REMARK INTRA:                  -1.529
REMARK UNBOUND:                -1.608
REMARK  Name = 
REMARK  10 active torsions:
REMARK  status: ('A' for Active; 'I' for Inactive)
REMARK    1  A    between atoms: N_1  and  C_2
REMARK    2  A    between atoms: C_2  and  C_3
REMARK    3  A    between atoms: C_3  and  N_4
REMARK    4  A    between atoms: N_4  and  C_5
REMARK    5  A    between atoms: C_5  and  C_6
REMARK    6  A    between atoms: C_9  and  C_10
REMARK    7  A    between atoms: C_10  and  N_11
REMARK    8  A    between atoms: N_11  and  C_12
REMARK    9  A    between atoms: C_12  and  C_13
REMARK   10  A    between atoms: C_20  and  C_22
REMARK                            x       y       z     vdW  Elec       q    Type
REMARK                         _______ _______ _______ _____ _____    ______ ____
ROOT
ATOM      1  N   UNL     1      45.921   7.147  12.267  0.00  0.00    +0.000 N 
ATOM      2  C   UNL     1      44.704   6.734  11.674  0.00  0.00    +0.000 C 
ATOM      3  O   UNL     1      43.869   7.563  11.313  0.00  0.00    +0.000 OA
ENDROOT
BRANCH   2   4
ATOM      4  C   UNL     1      44.426   5.292  11.482  0.00  0.00    +0.000 A 
ATOM      5  C   UNL     1      43.651   4.513  12.330  0.00  0.00    +0.000 A 
ATOM      6  S   UNL     1      43.467   2.895  11.817  0.00  0.00    +0.000 S 
ATOM      7  C   UNL     1      44.289   3.210  10.369  0.00  0.00    +0.000 A 
ATOM      8  N   UNL     1      44.394   2.254   9.405  0.00  0.00    +0.000 NA
ATOM      9  C   UNL     1      45.010   2.644   8.341  0.00  0.00    +0.000 A 
ATOM     10  N   UNL     1      45.560   3.886   8.160  0.00  0.00    +0.000 N 
ATOM     11  C   UNL     1      45.597   4.842   9.165  0.00  0.00    +0.000 A 
ATOM     12  O   UNL     1      46.317   5.825   9.066  0.00  0.00    +0.000 OA
ATOM     13  C   UNL     1      44.805   4.495  10.331  0.00  0.00    +0.000 A 
ATOM     14  H   UNL     1      46.097   4.102   7.334  0.00  0.00    +0.000 HD
ENDBRANCH   2   4
BRANCH   1  15
ATOM     15  C   UNL     1      46.147   8.597  12.411  0.00  0.00    +0.000 C 
BRANCH  15  16
ATOM     16  C   UNL     1      47.613   9.084  12.523  0.00  0.00    +0.000 C 
BRANCH  16  17
ATOM     17  N   UNL     1      47.941   9.843  13.737  0.00  0.00    +0.000 NA
ATOM     18  H   UNL     1      47.198  10.529  13.886  0.00  0.00    +0.000 HD
ATOM     19  H   UNL     1      48.778  10.404  13.568  0.00  0.00    +0.000 HD
ENDBRANCH  16  17
ENDBRANCH  15  16
ENDBRANCH   1  15
BRANCH   1  20
ATOM     20  C   UNL     1      46.994   6.196  12.541  0.00  0.00    +0.000 C 
BRANCH  20  21
ATOM     21  C   UNL     1      47.157   5.583  13.898  0.00  0.00    +0.000 A 
ATOM     22  C   UNL     1      47.941   6.176  14.889  0.00  0.00    +0.000 A 
ATOM     23  C   UNL     1      48.272   5.446  16.032  0.00  0.00    +0.000 A 
ATOM     24  C   UNL     1      47.800   4.140  16.158  0.00  0.00    +0.000 A 
ATOM     25  N   UNL     1      46.956   3.594  15.245  0.00  0.00    +0.000 NA
ATOM     26  C   UNL     1      46.660   4.313  14.146  0.00  0.00    +0.000 A 
BRANCH  24  27
ATOM     27  C   UNL     1      48.235   3.264  17.328  0.00  0.00    +0.000 C 
BRANCH  27  28
ATOM     28  N   UNL     1      49.485   3.741  17.936  0.00  0.00    +0.000 NA
ATOM     29  H   UNL     1      49.353   3.829  18.943  0.00  0.00    +0.000 HD
BRANCH  28  30
ATOM     30  C   UNL     1      50.650   2.936  17.606  0.00  0.00    +0.000 C 
BRANCH  30  31
ATOM     31  C   UNL     1      51.938   3.783  17.691  0.00  0.00    +0.000 C 
ATOM     32  C   UNL     1      52.803   3.487  18.915  0.00  0.00    +0.000 C 
ATOM     33  C   UNL     1      52.351   4.513  19.932  0.00  0.00    +0.000 C 
ATOM     34  N   UNL     1      52.110   5.724  19.142  0.00  0.00    +0.000 NA
ATOM     35  C   UNL     1      51.612   5.275  17.833  0.00  0.00    +0.000 C 
ATOM     36  H   UNL     1      53.003   6.198  19.003  0.00  0.00    +0.000 HD
ENDBRANCH  30  31
ENDBRANCH  28  30
ENDBRANCH  27  28
ENDBRANCH  24  27
ENDBRANCH  20  21
ENDBRANCH   1  20
TORSDOF 10
ENDMDL
MODEL 4
REMARK VINA RESULT:    -6.338      3.496      8.370
REMARK INTER + INTRA:         -11.465
REMARK INTER:                  -9.632
REMARK INTRA:                  -1.833
REMARK UNBOUND:                -1.608
REMARK  Name = 
REMARK  10 active torsions:
REMARK  status: ('A' for Active; 'I' for Inactive)
REMARK    1  A    between atoms: N_1  and  C_2
REMARK    2  A    between atoms: C_2  and  C_3
REMARK    3  A    between atoms: C_3  and  N_4
REMARK    4  A    between atoms: N_4  and  C_5
REMARK    5  A    between atoms: C_5  and  C_6
REMARK    6  A    between atoms: C_9  and  C_10
REMARK    7  A    between atoms: C_10  and  N_11
REMARK    8  A    between atoms: N_11  and  C_12
REMARK    9  A    between atoms: C_12  and  C_13
REMARK   10  A    between atoms: C_20  and  C_22
REMARK                            x       y       z     vdW  Elec       q    Type
REMARK                         _______ _______ _______ _____ _____    ______ ____
ROOT
ATOM      1  N   UNL     1      46.331   7.523  12.385  0.00  0.00    +0.000 N 
ATOM      2  C   UNL     1      45.203   7.351  11.549  0.00  0.00    +0.000 C 
ATOM      3  O   UNL     1      44.379   8.255  11.413  0.00  0.00    +0.000 OA
ENDROOT
BRANCH   2   4
ATOM      4  C   UNL     1      45.004   6.073  10.827  0.00  0.00    +0.000 A 
ATOM      5  C   UNL     1      45.551   5.768   9.589  0.00  0.00    +0.000 A 
ATOM      6  S   UNL     1      45.187   4.194   9.035  0.00  0.00    +0.000 S 
ATOM      7  C   UNL     1      44.413   3.808  10.492  0.00  0.00    +0.000 A 
ATOM      8  N   UNL     1      43.953   2.548  10.724  0.00  0.00    +0.000 NA
ATOM      9  C   UNL     1      43.422   2.387  11.889  0.00  0.00    +0.000 A 
ATOM     10  N   UNL     1      43.277   3.371  12.831  0.00  0.00    +0.000 N 
ATOM     11  C   UNL     1      43.604   4.697  12.584  0.00  0.00    +0.000 A 
ATOM     12  O   UNL     1      43.222   5.585  13.333  0.00  0.00    +0.000 OA
ATOM     13  C   UNL     1      44.323   4.900  11.340  0.00  0.00    +0.000 A 
ATOM     14  H   UNL     1      42.782   3.198  13.692  0.00  0.00    +0.000 HD
ENDBRANCH   2   4
BRANCH   1  15
ATOM     15  C   UNL     1      46.482   8.826  13.060  0.00  0.00    +0.000 C 
BRANCH  15  16
ATOM     16  C   UNL     1      46.672  10.077  12.165  0.00  0.00    +0.000 C 
BRANCH  16  17
ATOM     17  N   UNL     1      45.566  11.043  12.178  0.00  0.00    +0.000 NA
ATOM     18  H   UNL     1      45.966  11.976  12.053  0.00  0.00    +0.000 HD
ATOM     19  H   UNL     1      45.148  11.065  13.109  0.00  0.00    +0.000 HD
ENDBRANCH  16  17
ENDBRANCH  15  16
ENDBRANCH   1  15
BRANCH   1  20
ATOM     20  C   UNL     1      47.406   6.537  12.424  0.00  0.00    +0.000 C 
BRANCH  20  21
ATOM     21  C   UNL     1      47.611   5.662  13.622  0.00  0.00    +0.000 A 
ATOM     22  C   UNL     1      47.022   4.400  13.728  0.00  0.00    +0.000 A 
ATOM     23  C   UNL     1      47.026   3.741  14.958  0.00  0.00    +0.000 A 
ATOM     24  C   UNL     1      47.629   4.360  16.053  0.00  0.00    +0.000 A 
ATOM     25  N   UNL     1      48.290   5.540  15.932  0.00  0.00    +0.000 NA
ATOM     26  C   UNL     1      48.264   6.162  14.739  0.00  0.00    +0.000 A 
BRANCH  24  27
ATOM     27  C   UNL     1      47.551   3.734  17.441  0.00  0.00    +0.000 C 
BRANCH  27  28
ATOM     28  N   UNL     1      48.814   3.873  18.179  0.00  0.00    +0.000 NA
ATOM     29  H   UNL     1      49.334   4.664  17.802  0.00  0.00    +0.000 HD
BRANCH  28  30
ATOM     30  C   UNL     1      48.652   3.962  19.621  0.00  0.00    +0.000 C 
BRANCH  30  31
ATOM     31  C   UNL     1      48.977   5.386  20.118  0.00  0.00    +0.000 C 
ATOM     32  C   UNL     1      47.747   6.239  20.426  0.00  0.00    +0.000 C 
ATOM     33  C   UNL     1      47.506   7.003  19.142  0.00  0.00    +0.000 C 
ATOM     34  N   UNL     1      48.851   7.321  18.653  0.00  0.00    +0.000 NA
ATOM     35  C   UNL     1      49.713   6.194  19.042  0.00  0.00    +0.000 C 
ATOM     36  H   UNL     1      49.177   8.159  19.136  0.00  0.00    +0.000 HD
ENDBRANCH  30  31
ENDBRANCH  28  30
ENDBRANCH  27  28
ENDBRANCH  24  27
ENDBRANCH  20  21
ENDBRANCH   1  20
TORSDOF 10
ENDMDL
MODEL 5
REMARK VINA RESULT:    -6.053      2.628      4.472
REMARK INTER + INTRA:         -11.023
REMARK INTER:                  -9.418
REMARK INTRA:                  -1.604
REMARK UNBOUND:                -1.608
REMARK  Name = 
REMARK  10 active torsions:
REMARK  status: ('A' for Active; 'I' for Inactive)
REMARK    1  A    between atoms: N_1  and  C_2
REMARK    2  A    between atoms: C_2  and  C_3
REMARK    3  A    between atoms: C_3  and  N_4
REMARK    4  A    between atoms: N_4  and  C_5
REMARK    5  A    between atoms: C_5  and  C_6
REMARK    6  A    between atoms: C_9  and  C_10
REMARK    7  A    between atoms: C_10  and  N_11
REMARK    8  A    between atoms: N_11  and  C_12
REMARK    9  A    between atoms: C_12  and  C_13
REMARK   10  A    between atoms: C_20  and  C_22
REMARK                            x       y       z     vdW  Elec       q    Type
REMARK                         _______ _______ _______ _____ _____    ______ ____
ROOT
ATOM      1  N   UNL     1      49.371   7.420  16.420  0.00  0.00    +0.000 N 
ATOM      2  C   UNL     1      48.837   6.750  17.546  0.00  0.00    +0.000 C 
ATOM      3  O   UNL     1      48.546   7.372  18.567  0.00  0.00    +0.000 OA
ENDROOT
BRANCH   2   4
ATOM      4  C   UNL     1      48.623   5.285  17.502  0.00  0.00    +0.000 A 
ATOM      5  C   UNL     1      47.398   4.667  17.294  0.00  0.00    +0.000 A 
ATOM      6  S   UNL     1      47.476   2.962  17.243  0.00  0.00    +0.000 S 
ATOM      7  C   UNL     1      49.167   2.989  17.347  0.00  0.00    +0.000 A 
ATOM      8  N   UNL     1      49.889   1.839  17.247  0.00  0.00    +0.000 NA
ATOM      9  C   UNL     1      51.167   2.012  17.303  0.00  0.00    +0.000 A 
ATOM     10  N   UNL     1      51.790   3.219  17.482  0.00  0.00    +0.000 N 
ATOM     11  C   UNL     1      51.092   4.393  17.726  0.00  0.00    +0.000 A 
ATOM     12  O   UNL     1      51.669   5.389  18.141  0.00  0.00    +0.000 OA
ATOM     13  C   UNL     1      49.657   4.269  17.543  0.00  0.00    +0.000 A 
ATOM     14  H   UNL     1      52.790   3.276  17.595  0.00  0.00    +0.000 HD
ENDBRANCH   2   4
BRANCH   1  15
ATOM     15  C   UNL     1      49.541   8.882  16.519  0.00  0.00    +0.000 C 
BRANCH  15  16
ATOM     16  C   UNL     1      48.286   9.763  16.302  0.00  0.00    +0.000 C 
BRANCH  16  17
ATOM     17  N   UNL     1      47.617  10.231  17.524  0.00  0.00    +0.000 NA
ATOM     18  H   UNL     1      47.766  11.240  17.594  0.00  0.00    +0.000 HD
ATOM     19  H   UNL     1      48.094   9.843  18.339  0.00  0.00    +0.000 HD
ENDBRANCH  16  17
ENDBRANCH  15  16
ENDBRANCH   1  15
BRANCH   1  20
ATOM     20  C   UNL     1      49.558   6.734  15.145  0.00  0.00    +0.000 C 
BRANCH  20  21
ATOM     21  C   UNL     1      48.555   6.867  14.040  0.00  0.00    +0.000 A 
ATOM     22  C   UNL     1      48.575   7.939  13.146  0.00  0.00    +0.000 A 
ATOM     23  C   UNL     1      47.479   8.157  12.310  0.00  0.00    +0.000 A 
ATOM     24  C   UNL     1      46.391   7.287  12.383  0.00  0.00    +0.000 A 
ATOM     25  N   UNL     1      46.409   6.186  13.178  0.00  0.00    +0.000 NA
ATOM     26  C   UNL     1      47.472   6.003  13.984  0.00  0.00    +0.000 A 
BRANCH  24  27
ATOM     27  C   UNL     1      45.125   7.555  11.578  0.00  0.00    +0.000 C 
BRANCH  27  28
ATOM     28  N   UNL     1      44.605   6.334  10.947  0.00  0.00    +0.000 NA
ATOM     29  H   UNL     1      45.293   5.589  11.048  0.00  0.00    +0.000 HD
BRANCH  28  30
ATOM     30  C   UNL     1      43.292   5.933  11.424  0.00  0.00    +0.000 C 
BRANCH  30  31
ATOM     31  C   UNL     1      43.106   4.407  11.288  0.00  0.00    +0.000 C 
ATOM     32  C   UNL     1      43.498   3.614  12.533  0.00  0.00    +0.000 C 
ATOM     33  C   UNL     1      44.936   3.218  12.272  0.00  0.00    +0.000 C 
ATOM     34  N   UNL     1      44.973   2.918  10.838  0.00  0.00    +0.000 NA
ATOM     35  C   UNL     1      44.017   3.833  10.195  0.00  0.00    +0.000 C 
ATOM     36  H   UNL     1      44.644   1.961  10.703  0.00  0.00    +0.000 HD
ENDBRANCH  30  31
ENDBRANCH  28  30
ENDBRANCH  27  28
ENDBRANCH  24  27
ENDBRANCH  20  21
ENDBRANCH   1  20
TORSDOF 10
ENDMDL
MODEL 6
REMARK VINA RESULT:    -5.685      3.593      9.585
REMARK INTER + INTRA:         -10.450
REMARK INTER:                  -9.404
REMARK INTRA:                  -1.046
REMARK UNBOUND:                -1.608
REMARK  Name = 
REMARK  10 active torsions:
REMARK  status: ('A' for Active; 'I' for Inactive)
REMARK    1  A    between atoms: N_1  and  C_2
REMARK    2  A    between atoms: C_2  and  C_3
REMARK    3  A    between atoms: C_3  and  N_4
REMARK    4  A    between atoms: N_4  and  C_5
REMARK    5  A    between atoms: C_5  and  C_6
REMARK    6  A    between atoms: C_9  and  C_10
REMARK    7  A    between atoms: C_10  and  N_11
REMARK    8  A    between atoms: N_11  and  C_12
REMARK    9  A    between atoms: C_12  and  C_13
REMARK   10  A    between atoms: C_20  and  C_22
REMARK                            x       y       z     vdW  Elec       q    Type
REMARK                         _______ _______ _______ _____ _____    ______ ____
ROOT
ATOM      1  N   UNL     1      44.464   4.589  10.736  0.00  0.00    +0.000 N 
ATOM      2  C   UNL     1      44.263   4.131   9.412  0.00  0.00    +0.000 C 
ATOM      3  O   UNL     1      43.485   4.714   8.658  0.00  0.00    +0.000 OA
ENDROOT
BRANCH   2   4
ATOM      4  C   UNL     1      44.993   2.938   8.923  0.00  0.00    +0.000 A 
ATOM      5  C   UNL     1      44.611   1.624   9.153  0.00  0.00    +0.000 A 
ATOM      6  S   UNL     1      45.624   0.464   8.415  0.00  0.00    +0.000 S 
ATOM      7  C   UNL     1      46.522   1.672   7.638  0.00  0.00    +0.000 A 
ATOM      8  N   UNL     1      47.499   1.349   6.747  0.00  0.00    +0.000 NA
ATOM      9  C   UNL     1      48.073   2.368   6.201  0.00  0.00    +0.000 A 
ATOM     10  N   UNL     1      47.787   3.678   6.484  0.00  0.00    +0.000 N 
ATOM     11  C   UNL     1      46.898   4.051   7.483  0.00  0.00    +0.000 A 
ATOM     12  O   UNL     1      46.863   5.204   7.890  0.00  0.00    +0.000 OA
ATOM     13  C   UNL     1      46.136   2.943   8.031  0.00  0.00    +0.000 A 
ATOM     14  H   UNL     1      48.326   4.427   6.080  0.00  0.00    +0.000 HD
ENDBRANCH   2   4
BRANCH   1  15
ATOM     15  C   UNL     1      43.724   5.794  11.155  0.00  0.00    +0.000 C 
BRANCH  15  16
ATOM     16  C   UNL     1      42.443   5.587  12.001  0.00  0.00    +0.000 C 
BRANCH  16  17
ATOM     17  N   UNL     1      42.659   5.307  13.426  0.00  0.00    +0.000 NA
ATOM     18  H   UNL     1      42.284   6.095  13.959  0.00  0.00    +0.000 HD
ATOM     19  H   UNL     1      43.660   5.317  13.624  0.00  0.00    +0.000 HD
ENDBRANCH  16  17
ENDBRANCH  15  16
ENDBRANCH   1  15
BRANCH   1  20
ATOM     20  C   UNL     1      45.506   4.022  11.587  0.00  0.00    +0.000 C 
BRANCH  20  21
ATOM     21  C   UNL     1      46.224   4.865  12.596  0.00  0.00    +0.000 A 
ATOM     22  C   UNL     1      46.753   6.116  12.276  0.00  0.00    +0.000 A 
ATOM     23  C   UNL     1      47.630   6.740  13.164  0.00  0.00    +0.000 A 
ATOM     24  C   UNL     1      47.949   6.096  14.360  0.00  0.00    +0.000 A 
ATOM     25  N   UNL     1      47.361   4.927  14.721  0.00  0.00    +0.000 NA
ATOM     26  C   UNL     1      46.527   4.339  13.844  0.00  0.00    +0.000 A 
BRANCH  24  27
ATOM     27  C   UNL     1      48.995   6.681  15.303  0.00  0.00    +0.000 C 
BRANCH  27  28
ATOM     28  N   UNL     1      49.563   5.660  16.194  0.00  0.00    +0.000 NA
ATOM     29  H   UNL     1      50.266   5.127  15.684  0.00  0.00    +0.000 HD
BRANCH  28  30
ATOM     30  C   UNL     1      50.082   6.188  17.446  0.00  0.00    +0.000 C 
BRANCH  30  31
ATOM     31  C   UNL     1      49.496   5.416  18.646  0.00  0.00    +0.000 C 
ATOM     32  C   UNL     1      48.260   4.582  18.313  0.00  0.00    +0.000 C 
ATOM     33  C   UNL     1      47.104   5.499  18.650  0.00  0.00    +0.000 C 
ATOM     34  N   UNL     1      47.542   6.205  19.857  0.00  0.00    +0.000 NA
ATOM     35  C   UNL     1      48.998   6.375  19.734  0.00  0.00    +0.000 C 
ATOM     36  H   UNL     1      47.353   5.608  20.663  0.00  0.00    +0.000 HD
ENDBRANCH  30  31
ENDBRANCH  28  30
ENDBRANCH  27  28
ENDBRANCH  24  27
ENDBRANCH  20  21
ENDBRANCH   1  20
TORSDOF 10
ENDMDL
MODEL 7
REMARK VINA RESULT:    -5.667      2.498      4.383
REMARK INTER + INTRA:         -10.423
REMARK INTER:                  -9.139
REMARK INTRA:                  -1.284
REMARK UNBOUND:                -1.608
REMARK  Name = 
REMARK  10 active torsions:
REMARK  status: ('A' for Active; 'I' for Inactive)
REMARK    1  A    between atoms: N_1  and  C_2
REMARK    2  A    between atoms: C_2  and  C_3
REMARK    3  A    between atoms: C_3  and  N_4
REMARK    4  A    between atoms: N_4  and  C_5
REMARK    5  A    between atoms: C_5  and  C_6
REMARK    6  A    between atoms: C_9  and  C_10
REMARK    7  A    between atoms: C_10  and  N_11
REMARK    8  A    between atoms: N_11  and  C_12
REMARK    9  A    between atoms: C_12  and  C_13
REMARK   10  A    between atoms: C_20  and  C_22
REMARK                            x       y       z     vdW  Elec       q    Type
REMARK                         _______ _______ _______ _____ _____    ______ ____
ROOT
ATOM      1  N   UNL     1      48.348   6.269  16.141  0.00  0.00    +0.000 N 
ATOM      2  C   UNL     1      48.941   7.537  16.345  0.00  0.00    +0.000 C 
ATOM      3  O   UNL     1      49.065   7.997  17.480  0.00  0.00    +0.000 OA
ENDROOT
BRANCH   2   4
ATOM      4  C   UNL     1      49.419   8.325  15.185  0.00  0.00    +0.000 A 
ATOM      5  C   UNL     1      48.638   9.197  14.441  0.00  0.00    +0.000 A 
ATOM      6  S   UNL     1      49.485  10.004  13.197  0.00  0.00    +0.000 S 
ATOM      7  C   UNL     1      50.957   9.334  13.699  0.00  0.00    +0.000 A 
ATOM      8  N   UNL     1      52.128   9.704  13.111  0.00  0.00    +0.000 NA
ATOM      9  C   UNL     1      53.174   9.145  13.620  0.00  0.00    +0.000 A 
ATOM     10  N   UNL     1      53.159   8.227  14.637  0.00  0.00    +0.000 N 
ATOM     11  C   UNL     1      51.983   7.719  15.170  0.00  0.00    +0.000 A 
ATOM     12  O   UNL     1      51.997   6.722  15.878  0.00  0.00    +0.000 OA
ATOM     13  C   UNL     1      50.790   8.412  14.720  0.00  0.00    +0.000 A 
ATOM     14  H   UNL     1      54.006   7.769  14.936  0.00  0.00    +0.000 HD
ENDBRANCH   2   4
BRANCH   1  15
ATOM     15  C   UNL     1      47.911   5.525  17.338  0.00  0.00    +0.000 C 
BRANCH  15  16
ATOM     16  C   UNL     1      48.001   3.979  17.291  0.00  0.00    +0.000 C 
BRANCH  16  17
ATOM     17  N   UNL     1      46.744   3.260  17.531  0.00  0.00    +0.000 NA
ATOM     18  H   UNL     1      46.004   3.956  17.652  0.00  0.00    +0.000 HD
ATOM     19  H   UNL     1      46.795   2.781  18.431  0.00  0.00    +0.000 HD
ENDBRANCH  16  17
ENDBRANCH  15  16
ENDBRANCH   1  15
BRANCH   1  20
ATOM     20  C   UNL     1      48.349   5.631  14.829  0.00  0.00    +0.000 C 
BRANCH  20  21
ATOM     21  C   UNL     1      47.085   5.482  14.039  0.00  0.00    +0.000 A 
ATOM     22  C   UNL     1      46.477   6.565  13.402  0.00  0.00    +0.000 A 
ATOM     23  C   UNL     1      45.179   6.430  12.907  0.00  0.00    +0.000 A 
ATOM     24  C   UNL     1      44.523   5.208  13.055  0.00  0.00    +0.000 A 
ATOM     25  N   UNL     1      45.146   4.123  13.583  0.00  0.00    +0.000 NA
ATOM     26  C   UNL     1      46.393   4.279  14.063  0.00  0.00    +0.000 A 
BRANCH  24  27
ATOM     27  C   UNL     1      43.065   5.052  12.640  0.00  0.00    +0.000 C 
BRANCH  27  28
ATOM     28  N   UNL     1      42.918   4.187  11.461  0.00  0.00    +0.000 NA
ATOM     29  H   UNL     1      41.932   3.963  11.333  0.00  0.00    +0.000 HD
BRANCH  28  30
ATOM     30  C   UNL     1      43.517   4.726  10.251  0.00  0.00    +0.000 C 
BRANCH  30  31
ATOM     31  C   UNL     1      44.920   4.126  10.024  0.00  0.00    +0.000 C 
ATOM     32  C   UNL     1      45.557   4.507   8.689  0.00  0.00    +0.000 C 
ATOM     33  C   UNL     1      45.185   3.362   7.771  0.00  0.00    +0.000 C 
ATOM     34  N   UNL     1      45.274   2.172   8.622  0.00  0.00    +0.000 NA
ATOM     35  C   UNL     1      44.866   2.594   9.971  0.00  0.00    +0.000 C 
ATOM     36  H   UNL     1      46.251   1.877   8.658  0.00  0.00    +0.000 HD
ENDBRANCH  30  31
ENDBRANCH  28  30
ENDBRANCH  27  28
ENDBRANCH  24  27
ENDBRANCH  20  21
ENDBRANCH   1  20
TORSDOF 10
ENDMDL
MODEL 8
REMARK VINA RESULT:    -5.478      2.975      5.322
REMARK INTER + INTRA:         -10.128
REMARK INTER:                  -8.599
REMARK INTRA:                  -1.529
REMARK UNBOUND:                -1.608
REMARK  Name = 
REMARK  10 active torsions:
REMARK  status: ('A' for Active; 'I' for Inactive)
REMARK    1  A    between atoms: N_1  and  C_2
REMARK    2  A    between atoms: C_2  and  C_3
REMARK    3  A    between atoms: C_3  and  N_4
REMARK    4  A    between atoms: N_4  and  C_5
REMARK    5  A    between atoms: C_5  and  C_6
REMARK    6  A    between atoms: C_9  and  C_10
REMARK    7  A    between atoms: C_10  and  N_11
REMARK    8  A    between atoms: N_11  and  C_12
REMARK    9  A    between atoms: C_12  and  C_13
REMARK   10  A    between atoms: C_20  and  C_22
REMARK                            x       y       z     vdW  Elec       q    Type
REMARK                         _______ _______ _______ _____ _____    ______ ____
ROOT
ATOM      1  N   UNL     1      48.553   7.708  18.515  0.00  0.00    +0.000 N 
ATOM      2  C   UNL     1      48.527   6.397  19.044  0.00  0.00    +0.000 C 
ATOM      3  O   UNL     1      47.643   6.053  19.828  0.00  0.00    +0.000 OA
ENDROOT
BRANCH   2   4
ATOM      4  C   UNL     1      49.571   5.420  18.654  0.00  0.00    +0.000 A 
ATOM      5  C   UNL     1      50.866   5.401  19.153  0.00  0.00    +0.000 A 
ATOM      6  S   UNL     1      51.825   4.122  18.553  0.00  0.00    +0.000 S 
ATOM      7  C   UNL     1      50.506   3.459  17.722  0.00  0.00    +0.000 A 
ATOM      8  N   UNL     1      50.620   2.268  17.072  0.00  0.00    +0.000 NA
ATOM      9  C   UNL     1      49.527   1.864  16.517  0.00  0.00    +0.000 A 
ATOM     10  N   UNL     1      48.342   2.550  16.521  0.00  0.00    +0.000 N 
ATOM     11  C   UNL     1      48.218   3.827  17.050  0.00  0.00    +0.000 A 
ATOM     12  O   UNL     1      47.235   4.513  16.806  0.00  0.00    +0.000 OA
ATOM     13  C   UNL     1      49.383   4.266  17.797  0.00  0.00    +0.000 A 
ATOM     14  H   UNL     1      47.545   2.216  16.001  0.00  0.00    +0.000 HD
ENDBRANCH   2   4
BRANCH   1  15
ATOM     15  C   UNL     1      47.474   8.626  18.925  0.00  0.00    +0.000 C 
BRANCH  15  16
ATOM     16  C   UNL     1      47.873  10.074  19.306  0.00  0.00    +0.000 C 
BRANCH  16  17
ATOM     17  N   UNL     1      47.407  11.124  18.391  0.00  0.00    +0.000 NA
ATOM     18  H   UNL     1      46.485  10.849  18.044  0.00  0.00    +0.000 HD
ATOM     19  H   UNL     1      48.001  11.135  17.560  0.00  0.00    +0.000 HD
ENDBRANCH  16  17
ENDBRANCH  15  16
ENDBRANCH   1  15
BRANCH   1  20
ATOM     20  C   UNL     1      49.483   8.083  17.454  0.00  0.00    +0.000 C 
BRANCH  20  21
ATOM     21  C   UNL     1      49.055   8.100  16.019  0.00  0.00    +0.000 A 
ATOM     22  C   UNL     1      48.427   9.207  15.446  0.00  0.00    +0.000 A 
ATOM     23  C   UNL     1      47.818   9.082  14.197  0.00  0.00    +0.000 A 
ATOM     24  C   UNL     1      47.861   7.849  13.546  0.00  0.00    +0.000 A 
ATOM     25  N   UNL     1      48.555   6.798  14.053  0.00  0.00    +0.000 NA
ATOM     26  C   UNL     1      49.125   6.939  15.264  0.00  0.00    +0.000 A 
BRANCH  24  27
ATOM     27  C   UNL     1      47.106   7.632  12.239  0.00  0.00    +0.000 C 
BRANCH  27  28
ATOM     28  N   UNL     1      46.906   6.205  11.951  0.00  0.00    +0.000 NA
ATOM     29  H   UNL     1      47.591   5.660  12.473  0.00  0.00    +0.000 HD
BRANCH  28  30
ATOM     30  C   UNL     1      45.548   5.738  12.180  0.00  0.00    +0.000 C 
BRANCH  30  31
ATOM     31  C   UNL     1      45.292   4.417  11.425  0.00  0.00    +0.000 C 
ATOM     32  C   UNL     1      43.909   4.320  10.782  0.00  0.00    +0.000 C 
ATOM     33  C   UNL     1      43.077   3.603  11.824  0.00  0.00    +0.000 C 
ATOM     34  N   UNL     1      43.990   2.609  12.396  0.00  0.00    +0.000 NA
ATOM     35  C   UNL     1      45.330   3.217  12.378  0.00  0.00    +0.000 C 
ATOM     36  H   UNL     1      43.998   1.793  11.784  0.00  0.00    +0.000 HD
ENDBRANCH  30  31
ENDBRANCH  28  30
ENDBRANCH  27  28
ENDBRANCH  24  27
ENDBRANCH  20  21
ENDBRANCH   1  20
TORSDOF 10
ENDMDL
MODEL 9
REMARK VINA RESULT:    -5.195      3.051      5.259
REMARK INTER + INTRA:          -9.688
REMARK INTER:                  -8.119
REMARK INTRA:                  -1.569
REMARK UNBOUND:                -1.608
REMARK  Name = 
REMARK  10 active torsions:
REMARK  status: ('A' for Active; 'I' for Inactive)
REMARK    1  A    between atoms: N_1  and  C_2
REMARK    2  A    between atoms: C_2  and  C_3
REMARK    3  A    between atoms: C_3  and  N_4
REMARK    4  A    between atoms: N_4  and  C_5
REMARK    5  A    between atoms: C_5  and  C_6
REMARK    6  A    between atoms: C_9  and  C_10
REMARK    7  A    between atoms: C_10  and  N_11
REMARK    8  A    between atoms: N_11  and  C_12
REMARK    9  A    between atoms: C_12  and  C_13
REMARK   10  A    between atoms: C_20  and  C_22
REMARK                            x       y       z     vdW  Elec       q    Type
REMARK                         _______ _______ _______ _____ _____    ______ ____
ROOT
ATOM      1  N   UNL     1      48.996   5.571  19.199  0.00  0.00    +0.000 N 
ATOM      2  C   UNL     1      50.217   6.081  19.697  0.00  0.00    +0.000 C 
ATOM      3  O   UNL     1      50.226   6.941  20.577  0.00  0.00    +0.000 OA
ENDROOT
BRANCH   2   4
ATOM      4  C   UNL     1      51.503   5.580  19.158  0.00  0.00    +0.000 A 
ATOM      5  C   UNL     1      52.174   4.457  19.621  0.00  0.00    +0.000 A 
ATOM      6  S   UNL     1      53.608   4.098  18.765  0.00  0.00    +0.000 S 
ATOM      7  C   UNL     1      53.309   5.339  17.650  0.00  0.00    +0.000 A 
ATOM      8  N   UNL     1      54.117   5.512  16.568  0.00  0.00    +0.000 NA
ATOM      9  C   UNL     1      53.748   6.468  15.783  0.00  0.00    +0.000 A 
ATOM     10  N   UNL     1      52.670   7.287  15.992  0.00  0.00    +0.000 N 
ATOM     11  C   UNL     1      51.904   7.235  17.148  0.00  0.00    +0.000 A 
ATOM     12  O   UNL     1      51.128   8.139  17.424  0.00  0.00    +0.000 OA
ATOM     13  C   UNL     1      52.201   6.095  17.996  0.00  0.00    +0.000 A 
ATOM     14  H   UNL     1      52.482   8.066  15.380  0.00  0.00    +0.000 HD
ENDBRANCH   2   4
BRANCH   1  15
ATOM     15  C   UNL     1      47.751   6.096  19.790  0.00  0.00    +0.000 C 
BRANCH  15  16
ATOM     16  C   UNL     1      47.228   7.457  19.265  0.00  0.00    +0.000 C 
BRANCH  16  17
ATOM     17  N   UNL     1      47.684   8.642  20.002  0.00  0.00    +0.000 NA
ATOM     18  H   UNL     1      47.504   8.481  20.995  0.00  0.00    +0.000 HD
ATOM     19  H   UNL     1      47.093   9.438  19.760  0.00  0.00    +0.000 HD
ENDBRANCH  16  17
ENDBRANCH  15  16
ENDBRANCH   1  15
BRANCH   1  20
ATOM     20  C   UNL     1      48.962   4.433  18.286  0.00  0.00    +0.000 C 
BRANCH  20  21
ATOM     21  C   UNL     1      48.498   4.589  16.870  0.00  0.00    +0.000 A 
ATOM     22  C   UNL     1      48.590   5.805  16.190  0.00  0.00    +0.000 A 
ATOM     23  C   UNL     1      47.913   5.969  14.981  0.00  0.00    +0.000 A 
ATOM     24  C   UNL     1      47.165   4.905  14.476  0.00  0.00    +0.000 A 
ATOM     25  N   UNL     1      47.154   3.689  15.082  0.00  0.00    +0.000 NA
ATOM     26  C   UNL     1      47.805   3.558  16.253  0.00  0.00    +0.000 A 
BRANCH  24  27
ATOM     27  C   UNL     1      46.312   5.077  13.224  0.00  0.00    +0.000 C 
BRANCH  27  28
ATOM     28  N   UNL     1      45.062   4.309  13.301  0.00  0.00    +0.000 NA
ATOM     29  H   UNL     1      44.277   4.931  13.113  0.00  0.00    +0.000 HD
BRANCH  28  30
ATOM     30  C   UNL     1      45.039   3.127  12.453  0.00  0.00    +0.000 C 
BRANCH  30  31
ATOM     31  C   UNL     1      43.856   3.191  11.464  0.00  0.00    +0.000 C 
ATOM     32  C   UNL     1      44.252   3.015   9.999  0.00  0.00    +0.000 C 
ATOM     33  C   UNL     1      44.430   4.433   9.500  0.00  0.00    +0.000 C 
ATOM     34  N   UNL     1      43.366   5.188  10.168  0.00  0.00    +0.000 NA
ATOM     35  C   UNL     1      43.184   4.570  11.491  0.00  0.00    +0.000 C 
ATOM     36  H   UNL     1      42.504   5.066   9.634  0.00  0.00    +0.000 HD
ENDBRANCH  30  31
ENDBRANCH  28  30
ENDBRANCH  27  28
ENDBRANCH  24  27
ENDBRANCH  20  21
ENDBRANCH   1  20
TORSDOF 10
ENDMDL
