MODEL 1
REMARK VINA RESULT:    -8.241      0.000      0.000
REMARK INTER + INTRA:         -12.186
REMARK INTER:                 -11.373
REMARK INTRA:                  -0.814
REMARK UNBOUND:                -0.814
REMARK  Name = 
REMARK  8 active torsions:
REMARK  status: ('A' for Active; 'I' for Inactive)
REMARK    1  A    between atoms: C_1  and  C_2
REMARK    2  A    between atoms: C_2  and  O_3
REMARK    3  A    between atoms: C_5  and  O_6
REMARK    4  A    between atoms: O_6  and  C_7
REMARK    5  A    between atoms: C_9  and  C_10
REMARK    6  A    between atoms: C_10  and  C_13
REMARK    7  A    between atoms: C_13  and  N_14
REMARK    8  A    between atoms: C_18  and  C_19
REMARK                            x       y       z     vdW  Elec       q    Type
REMARK                         _______ _______ _______ _____ _____    ______ ____
ROOT
ATOM      1  C   UNL     1      43.588   4.487  12.522  0.00  0.00    +0.000 C 
ATOM      2  F   UNL     1      43.136   3.389  13.200  0.00  0.00    +0.000 F 
ATOM      3  F   UNL     1      42.681   5.476  12.805  0.00  0.00    +0.000 F 
ENDROOT
BRANCH   1   6
ATOM      4  C   UNL     1      47.062   4.276  14.052  0.00  0.00    +0.000 A 
ATOM      5  C   UNL     1      45.773   3.929  13.664  0.00  0.00    +0.000 A 
ATOM      6  C   UNL     1      44.986   4.877  12.993  0.00  0.00    +0.000 A 
ATOM      7  C   UNL     1      45.550   6.143  12.778  0.00  0.00    +0.000 A 
ATOM      8  C   UNL     1      46.840   6.395  13.220  0.00  0.00    +0.000 A 
ATOM      9  N   UNL     1      47.612   5.488  13.845  0.00  0.00    +0.000 NA
BRANCH   4  10
ATOM     10  O   UNL     1      47.818   3.306  14.678  0.00  0.00    +0.000 OA
BRANCH  10  14
ATOM     11  C   UNL     1      49.060   4.743  18.741  0.00  0.00    +0.000 C 
ATOM     12  C   UNL     1      48.756   4.375  17.299  0.00  0.00    +0.000 C 
ATOM     13  C   UNL     1      47.246   4.344  16.944  0.00  0.00    +0.000 C 
ATOM     14  C   UNL     1      47.528   3.084  16.081  0.00  0.00    +0.000 C 
ATOM     15  C   UNL     1      48.777   2.857  16.973  0.00  0.00    +0.000 C 
BRANCH  12  16
ATOM     16  O   UNL     1      49.585   5.181  16.431  0.00  0.00    +0.000 OA
ATOM     17  H   UNL     1      49.020   5.415  15.675  0.00  0.00    +0.000 HD
ENDBRANCH  12  16
ENDBRANCH  10  14
ENDBRANCH   4  10
ENDBRANCH   1   6
BRANCH   1  18
ATOM     18  C   UNL     1      43.491   4.196  10.998  0.00  0.00    +0.000 C 
BRANCH  18  19
ATOM     19  N   UNL     1      44.333   5.058  10.136  0.00  0.00    +0.000 N 
ATOM     20  C   UNL     1      45.145   4.329   9.249  0.00  0.00    +0.000 A 
ATOM     21  C   UNL     1      45.988   5.026   8.385  0.00  0.00    +0.000 A 
ATOM     22  C   UNL     1      46.792   4.322   7.482  0.00  0.00    +0.000 A 
ATOM     23  C   UNL     1      46.737   2.930   7.453  0.00  0.00    +0.000 A 
ATOM     24  C   UNL     1      45.858   2.321   8.331  0.00  0.00    +0.000 A 
ATOM     25 CL   UNL     1      45.662   0.612   8.433  0.00  0.00    +0.000 Cl
ATOM     26  N   UNL     1      45.069   2.985   9.211  0.00  0.00    +0.000 NA
ATOM     27  H   UNL     1      44.895   5.708  10.683  0.00  0.00    +0.000 HD
BRANCH  23  28
ATOM     28  C   UNL     1      47.559   2.188   6.549  0.00  0.00    +0.000 C 
ATOM     29  N   UNL     1      48.239   1.612   5.810  0.00  0.00    +0.000 NA
ENDBRANCH  23  28
ENDBRANCH  18  19
ENDBRANCH   1  18
TORSDOF 7
ENDMDL
MODEL 2
REMARK VINA RESULT:    -8.104      2.095      3.346
REMARK INTER + INTRA:         -11.997
REMARK INTER:                 -10.911
REMARK INTRA:                  -1.086
REMARK UNBOUND:                -0.814
REMARK  Name = 
REMARK  8 active torsions:
REMARK  status: ('A' for Active; 'I' for Inactive)
REMARK    1  A    between atoms: C_1  and  C_2
REMARK    2  A    between atoms: C_2  and  O_3
REMARK    3  A    between atoms: C_5  and  O_6
REMARK    4  A    between atoms: O_6  and  C_7
REMARK    5  A    between atoms: C_9  and  C_10
REMARK    6  A    between atoms: C_10  and  C_13
REMARK    7  A    between atoms: C_13  and  N_14
REMARK    8  A    between atoms: C_18  and  C_19
REMARK                            x       y       z     vdW  Elec       q    Type
REMARK                         _______ _______ _______ _____ _____    ______ ____
ROOT
ATOM      1  C   UNL     1      43.610   3.740  12.299  0.00  0.00    +0.000 C 
ATOM      2  F   UNL     1      43.228   2.578  12.912  0.00  0.00    +0.000 F 
ATOM      3  F   UNL     1      42.651   4.657  12.649  0.00  0.00    +0.000 F 
ENDROOT
BRANCH   1   6
ATOM      4  C   UNL     1      46.522   5.941  13.362  0.00  0.00    +0.000 A 
ATOM      5  C   UNL     1      45.280   5.547  12.879  0.00  0.00    +0.000 A 
ATOM      6  C   UNL     1      44.989   4.178  12.783  0.00  0.00    +0.000 A 
ATOM      7  C   UNL     1      45.997   3.280  13.162  0.00  0.00    +0.000 A 
ATOM      8  C   UNL     1      47.211   3.774  13.615  0.00  0.00    +0.000 A 
ATOM      9  N   UNL     1      47.494   5.083  13.733  0.00  0.00    +0.000 NA
BRANCH   4  10
ATOM     10  O   UNL     1      46.758   7.295  13.475  0.00  0.00    +0.000 OA
BRANCH  10  14
ATOM     11  C   UNL     1      50.585   8.126  11.287  0.00  0.00    +0.000 C 
ATOM     12  C   UNL     1      49.388   7.755  12.148  0.00  0.00    +0.000 C 
ATOM     13  C   UNL     1      48.198   7.137  11.368  0.00  0.00    +0.000 C 
ATOM     14  C   UNL     1      47.244   7.955  12.280  0.00  0.00    +0.000 C 
ATOM     15  C   UNL     1      48.433   8.924  12.512  0.00  0.00    +0.000 C 
BRANCH  12  16
ATOM     16  O   UNL     1      49.854   6.991  13.284  0.00  0.00    +0.000 OA
ATOM     17  H   UNL     1      49.364   7.338  14.049  0.00  0.00    +0.000 HD
ENDBRANCH  12  16
ENDBRANCH  10  14
ENDBRANCH   4  10
ENDBRANCH   1   6
BRANCH   1  18
ATOM     18  C   UNL     1      43.512   3.538  10.761  0.00  0.00    +0.000 C 
BRANCH  18  19
ATOM     19  N   UNL     1      44.252   4.529   9.946  0.00  0.00    +0.000 N 
ATOM     20  C   UNL     1      45.152   3.941   9.040  0.00  0.00    +0.000 A 
ATOM     21  C   UNL     1      45.912   4.769   8.216  0.00  0.00    +0.000 A 
ATOM     22  C   UNL     1      46.800   4.204   7.294  0.00  0.00    +0.000 A 
ATOM     23  C   UNL     1      46.911   2.818   7.207  0.00  0.00    +0.000 A 
ATOM     24  C   UNL     1      46.105   2.072   8.048  0.00  0.00    +0.000 A 
ATOM     25 CL   UNL     1      46.113   0.349   8.076  0.00  0.00    +0.000 Cl
ATOM     26  N   UNL     1      45.236   2.599   8.945  0.00  0.00    +0.000 NA
ATOM     27  H   UNL     1      44.729   5.218  10.526  0.00  0.00    +0.000 HD
BRANCH  23  28
ATOM     28  C   UNL     1      47.822   2.218   6.282  0.00  0.00    +0.000 C 
ATOM     29  N   UNL     1      48.582   1.736   5.554  0.00  0.00    +0.000 NA
ENDBRANCH  23  28
ENDBRANCH  18  19
ENDBRANCH   1  18
TORSDOF 7
ENDMDL
MODEL 3
REMARK VINA RESULT:    -7.243      3.641      8.310
REMARK INTER + INTRA:         -10.809
REMARK INTER:                  -9.906
REMARK INTRA:                  -0.903
REMARK UNBOUND:                -0.814
REMARK  Name = 
REMARK  8 active torsions:
REMARK  status: ('A' for Active; 'I' for Inactive)
REMARK    1  A    between atoms: C_1  and  C_2
REMARK    2  A    between atoms: C_2  and  O_3
REMARK    3  A    between atoms: C_5  and  O_6
REMARK    4  A    between atoms: O_6  and  C_7
REMARK    5  A    between atoms: C_9  and  C_10
REMARK    6  A    between atoms: C_10  and  C_13
REMARK    7  A    between atoms: C_13  and  N_14
REMARK    8  A    between atoms: C_18  and  C_19
REMARK                            x       y       z     vdW  Elec       q    Type
REMARK                         _______ _______ _______ _____ _____    ______ ____
ROOT
ATOM      1  C   UNL     1      46.519   6.577  12.529  0.00  0.00    +0.000 C 
ATOM      2  F   UNL     1      47.065   7.283  11.492  0.00  0.00    +0.000 F 
ATOM      3  F   UNL     1      45.988   7.527  13.364  0.00  0.00    +0.000 F 
ENDROOT
BRANCH   1   6
ATOM      4  C   UNL     1      44.341   4.513  10.195  0.00  0.00    +0.000 A 
ATOM      5  C   UNL     1      45.298   5.414  10.646  0.00  0.00    +0.000 A 
ATOM      6  C   UNL     1      45.438   5.626  12.025  0.00  0.00    +0.000 A 
ATOM      7  C   UNL     1      44.570   4.923  12.873  0.00  0.00    +0.000 A 
ATOM      8  C   UNL     1      43.635   4.059  12.323  0.00  0.00    +0.000 A 
ATOM      9  N   UNL     1      43.506   3.831  11.004  0.00  0.00    +0.000 NA
BRANCH   4  10
ATOM     10  O   UNL     1      44.258   4.305   8.833  0.00  0.00    +0.000 OA
BRANCH  10  14
ATOM     11  C   UNL     1      47.606   2.243   6.675  0.00  0.00    +0.000 C 
ATOM     12  C   UNL     1      46.568   3.092   7.390  0.00  0.00    +0.000 C 
ATOM     13  C   UNL     1      46.077   2.511   8.742  0.00  0.00    +0.000 C 
ATOM     14  C   UNL     1      44.647   2.989   8.369  0.00  0.00    +0.000 C 
ATOM     15  C   UNL     1      45.107   2.933   6.888  0.00  0.00    +0.000 C 
BRANCH  12  16
ATOM     16  O   UNL     1      47.037   4.459   7.432  0.00  0.00    +0.000 OA
ATOM     17  H   UNL     1      46.488   4.902   8.100  0.00  0.00    +0.000 HD
ENDBRANCH  12  16
ENDBRANCH  10  14
ENDBRANCH   4  10
ENDBRANCH   1   6
BRANCH   1  18
ATOM     18  C   UNL     1      47.670   5.876  13.304  0.00  0.00    +0.000 C 
BRANCH  18  19
ATOM     19  N   UNL     1      48.440   6.752  14.218  0.00  0.00    +0.000 N 
ATOM     20  C   UNL     1      48.499   6.265  15.535  0.00  0.00    +0.000 A 
ATOM     21  C   UNL     1      49.193   7.001  16.493  0.00  0.00    +0.000 A 
ATOM     22  C   UNL     1      49.279   6.525  17.806  0.00  0.00    +0.000 A 
ATOM     23  C   UNL     1      48.674   5.316  18.140  0.00  0.00    +0.000 A 
ATOM     24  C   UNL     1      48.022   4.641  17.123  0.00  0.00    +0.000 A 
ATOM     25 CL   UNL     1      47.218   3.135  17.357  0.00  0.00    +0.000 Cl
ATOM     26  N   UNL     1      47.930   5.083  15.845  0.00  0.00    +0.000 NA
ATOM     27  H   UNL     1      48.093   7.710  14.207  0.00  0.00    +0.000 HD
BRANCH  23  28
ATOM     28  C   UNL     1      48.736   4.817  19.479  0.00  0.00    +0.000 C 
ATOM     29  N   UNL     1      48.773   4.389  20.554  0.00  0.00    +0.000 NA
ENDBRANCH  23  28
ENDBRANCH  18  19
ENDBRANCH   1  18
TORSDOF 7
ENDMDL
MODEL 4
REMARK VINA RESULT:    -6.544      4.371      7.654
REMARK INTER + INTRA:          -9.845
REMARK INTER:                  -8.739
REMARK INTRA:                  -1.105
REMARK UNBOUND:                -0.814
REMARK  Name = 
REMARK  8 active torsions:
REMARK  status: ('A' for Active; 'I' for Inactive)
REMARK    1  A    between atoms: C_1  and  C_2
REMARK    2  A    between atoms: C_2  and  O_3
REMARK    3  A    between atoms: C_5  and  O_6
REMARK    4  A    between atoms: O_6  and  C_7
REMARK    5  A    between atoms: C_9  and  C_10
REMARK    6  A    between atoms: C_10  and  C_13
REMARK    7  A    between atoms: C_13  and  N_14
REMARK    8  A    between atoms: C_18  and  C_19
REMARK                            x       y       z     vdW  Elec       q    Type
REMARK                         _______ _______ _______ _____ _____    ______ ____
ROOT
ATOM      1  C   UNL     1      49.041   9.212  12.286  0.00  0.00    +0.000 C 
ATOM      2  F   UNL     1      49.677   9.312  11.079  0.00  0.00    +0.000 F 
ATOM      3  F   UNL     1      49.530  10.256  13.031  0.00  0.00    +0.000 F 
ENDROOT
BRANCH   1   6
ATOM      4  C   UNL     1      45.358   8.289  12.103  0.00  0.00    +0.000 A 
ATOM      5  C   UNL     1      46.738   8.173  12.220  0.00  0.00    +0.000 A 
ATOM      6  C   UNL     1      47.530   9.326  12.112  0.00  0.00    +0.000 A 
ATOM      7  C   UNL     1      46.869  10.537  11.864  0.00  0.00    +0.000 A 
ATOM      8  C   UNL     1      45.487  10.545  11.746  0.00  0.00    +0.000 A 
ATOM      9  N   UNL     1      44.715   9.450  11.869  0.00  0.00    +0.000 NA
BRANCH   4  10
ATOM     10  O   UNL     1      44.610   7.139  12.250  0.00  0.00    +0.000 OA
BRANCH  10  14
ATOM     11  C   UNL     1      44.319   3.400   9.789  0.00  0.00    +0.000 C 
ATOM     12  C   UNL     1      44.268   4.720  10.539  0.00  0.00    +0.000 C 
ATOM     13  C   UNL     1      45.600   5.515  10.540  0.00  0.00    +0.000 C 
ATOM     14  C   UNL     1      45.314   5.892  12.019  0.00  0.00    +0.000 C 
ATOM     15  C   UNL     1      44.423   4.624  12.082  0.00  0.00    +0.000 C 
BRANCH  12  16
ATOM     16  O   UNL     1      43.102   5.456  10.104  0.00  0.00    +0.000 OA
ATOM     17  H   UNL     1      43.407   6.368   9.963  0.00  0.00    +0.000 HD
ENDBRANCH  12  16
ENDBRANCH  10  14
ENDBRANCH   4  10
ENDBRANCH   1   6
BRANCH   1  18
ATOM     18  C   UNL     1      49.504   7.899  12.976  0.00  0.00    +0.000 C 
BRANCH  18  19
ATOM     19  N   UNL     1      49.624   7.969  14.451  0.00  0.00    +0.000 N 
ATOM     20  C   UNL     1      49.003   6.894  15.110  0.00  0.00    +0.000 A 
ATOM     21  C   UNL     1      49.044   6.847  16.502  0.00  0.00    +0.000 A 
ATOM     22  C   UNL     1      48.448   5.776  17.178  0.00  0.00    +0.000 A 
ATOM     23  C   UNL     1      47.824   4.765  16.450  0.00  0.00    +0.000 A 
ATOM     24  C   UNL     1      47.848   4.881  15.071  0.00  0.00    +0.000 A 
ATOM     25 CL   UNL     1      47.126   3.727  14.016  0.00  0.00    +0.000 Cl
ATOM     26  N   UNL     1      48.422   5.908  14.398  0.00  0.00    +0.000 NA
ATOM     27  H   UNL     1      49.284   8.857  14.817  0.00  0.00    +0.000 HD
BRANCH  23  28
ATOM     28  C   UNL     1      47.196   3.668  17.119  0.00  0.00    +0.000 C 
ATOM     29  N   UNL     1      46.665   2.798  17.667  0.00  0.00    +0.000 NA
ENDBRANCH  23  28
ENDBRANCH  18  19
ENDBRANCH   1  18
TORSDOF 7
ENDMDL
MODEL 5
REMARK VINA RESULT:    -6.304      2.231      2.713
REMARK INTER + INTRA:          -9.513
REMARK INTER:                  -8.935
REMARK INTRA:                  -0.578
REMARK UNBOUND:                -0.814
REMARK  Name = 
REMARK  8 active torsions:
REMARK  status: ('A' for Active; 'I' for Inactive)
REMARK    1  A    between atoms: C_1  and  C_2
REMARK    2  A    between atoms: C_2  and  O_3
REMARK    3  A    between atoms: C_5  and  O_6
REMARK    4  A    between atoms: O_6  and  C_7
REMARK    5  A    between atoms: C_9  and  C_10
REMARK    6  A    between atoms: C_10  and  C_13
REMARK    7  A    between atoms: C_13  and  N_14
REMARK    8  A    between atoms: C_18  and  C_19
REMARK                            x       y       z     vdW  Elec       q    Type
REMARK                         _______ _______ _______ _____ _____    ______ ____
ROOT
ATOM      1  C   UNL     1      44.550   3.422  12.397  0.00  0.00    +0.000 C 
ATOM      2  F   UNL     1      45.553   2.565  12.760  0.00  0.00    +0.000 F 
ATOM      3  F   UNL     1      43.477   3.060  13.173  0.00  0.00    +0.000 F 
ENDROOT
BRANCH   1   6
ATOM      4  C   UNL     1      46.628   6.472  13.305  0.00  0.00    +0.000 A 
ATOM      5  C   UNL     1      46.253   5.149  13.108  0.00  0.00    +0.000 A 
ATOM      6  C   UNL     1      44.953   4.869  12.662  0.00  0.00    +0.000 A 
ATOM      7  C   UNL     1      44.093   5.960  12.466  0.00  0.00    +0.000 A 
ATOM      8  C   UNL     1      44.559   7.244  12.708  0.00  0.00    +0.000 A 
ATOM      9  N   UNL     1      45.809   7.526  13.114  0.00  0.00    +0.000 NA
BRANCH   4  10
ATOM     10  O   UNL     1      47.926   6.710  13.710  0.00  0.00    +0.000 OA
BRANCH  10  14
ATOM     11  C   UNL     1      51.150   8.824  16.002  0.00  0.00    +0.000 C 
ATOM     12  C   UNL     1      50.184   7.990  15.178  0.00  0.00    +0.000 C 
ATOM     13  C   UNL     1      49.323   8.801  14.175  0.00  0.00    +0.000 C 
ATOM     14  C   UNL     1      48.125   7.882  14.540  0.00  0.00    +0.000 C 
ATOM     15  C   UNL     1      48.853   7.609  15.882  0.00  0.00    +0.000 C 
BRANCH  12  16
ATOM     16  O   UNL     1      50.903   6.867  14.618  0.00  0.00    +0.000 OA
ATOM     17  H   UNL     1      51.016   7.074  13.675  0.00  0.00    +0.000 HD
ENDBRANCH  12  16
ENDBRANCH  10  14
ENDBRANCH   4  10
ENDBRANCH   1   6
BRANCH   1  18
ATOM     18  C   UNL     1      44.167   3.129  10.919  0.00  0.00    +0.000 C 
BRANCH  18  19
ATOM     19  N   UNL     1      44.565   4.173   9.946  0.00  0.00    +0.000 N 
ATOM     20  C   UNL     1      45.365   3.680   8.900  0.00  0.00    +0.000 A 
ATOM     21  C   UNL     1      45.807   4.566   7.920  0.00  0.00    +0.000 A 
ATOM     22  C   UNL     1      46.589   4.093   6.860  0.00  0.00    +0.000 A 
ATOM     23  C   UNL     1      46.912   2.740   6.794  0.00  0.00    +0.000 A 
ATOM     24  C   UNL     1      46.414   1.928   7.798  0.00  0.00    +0.000 A 
ATOM     25 CL   UNL     1      46.715   0.234   7.875  0.00  0.00    +0.000 Cl
ATOM     26  N   UNL     1      45.653   2.366   8.831  0.00  0.00    +0.000 NA
ATOM     27  H   UNL     1      45.020   4.963  10.402  0.00  0.00    +0.000 HD
BRANCH  23  28
ATOM     28  C   UNL     1      47.721   2.236   5.728  0.00  0.00    +0.000 C 
ATOM     29  N   UNL     1      48.377   1.855   4.853  0.00  0.00    +0.000 NA
ENDBRANCH  23  28
ENDBRANCH  18  19
ENDBRANCH   1  18
TORSDOF 7
ENDMDL
MODEL 6
REMARK VINA RESULT:    -6.297      3.964      8.386
REMARK INTER + INTRA:          -9.504
REMARK INTER:                  -8.733
REMARK INTRA:                  -0.771
REMARK UNBOUND:                -0.814
REMARK  Name = 
REMARK  8 active torsions:
REMARK  status: ('A' for Active; 'I' for Inactive)
REMARK    1  A    between atoms: C_1  and  C_2
REMARK    2  A    between atoms: C_2  and  O_3
REMARK    3  A    between atoms: C_5  and  O_6
REMARK    4  A    between atoms: O_6  and  C_7
REMARK    5  A    between atoms: C_9  and  C_10
REMARK    6  A    between atoms: C_10  and  C_13
REMARK    7  A    between atoms: C_13  and  N_14
REMARK    8  A    between atoms: C_18  and  C_19
REMARK                            x       y       z     vdW  Elec       q    Type
REMARK                         _______ _______ _______ _____ _____    ______ ____
ROOT
ATOM      1  C   UNL     1      46.620   4.514  13.796  0.00  0.00    +0.000 C 
ATOM      2  F   UNL     1      46.306   4.688  15.116  0.00  0.00    +0.000 F 
ATOM      3  F   UNL     1      47.166   3.257  13.724  0.00  0.00    +0.000 F 
ENDROOT
BRANCH   1   6
ATOM      4  C   UNL     1      44.164   3.982  10.943  0.00  0.00    +0.000 A 
ATOM      5  C   UNL     1      45.320   3.917  11.711  0.00  0.00    +0.000 A 
ATOM      6  C   UNL     1      45.372   4.619  12.925  0.00  0.00    +0.000 A 
ATOM      7  C   UNL     1      44.243   5.373  13.278  0.00  0.00    +0.000 A 
ATOM      8  C   UNL     1      43.144   5.386  12.433  0.00  0.00    +0.000 A 
ATOM      9  N   UNL     1      43.074   4.701  11.278  0.00  0.00    +0.000 NA
BRANCH   4  10
ATOM     10  O   UNL     1      44.138   3.250   9.774  0.00  0.00    +0.000 OA
BRANCH  10  14
ATOM     11  C   UNL     1      46.926   3.063   6.264  0.00  0.00    +0.000 C 
ATOM     12  C   UNL     1      46.057   2.973   7.508  0.00  0.00    +0.000 C 
ATOM     13  C   UNL     1      44.538   3.155   7.249  0.00  0.00    +0.000 C 
ATOM     14  C   UNL     1      44.466   3.979   8.564  0.00  0.00    +0.000 C 
ATOM     15  C   UNL     1      45.979   4.263   8.369  0.00  0.00    +0.000 C 
BRANCH  12  16
ATOM     16  O   UNL     1      46.427   1.786   8.246  0.00  0.00    +0.000 OA
ATOM     17  H   UNL     1      46.298   2.012   9.183  0.00  0.00    +0.000 HD
ENDBRANCH  12  16
ENDBRANCH  10  14
ENDBRANCH   4  10
ENDBRANCH   1   6
BRANCH   1  18
ATOM     18  C   UNL     1      47.741   5.524  13.422  0.00  0.00    +0.000 C 
BRANCH  18  19
ATOM     19  N   UNL     1      47.537   6.904  13.920  0.00  0.00    +0.000 N 
ATOM     20  C   UNL     1      48.374   7.233  15.002  0.00  0.00    +0.000 A 
ATOM     21  C   UNL     1      48.276   8.504  15.563  0.00  0.00    +0.000 A 
ATOM     22  C   UNL     1      49.111   8.858  16.629  0.00  0.00    +0.000 A 
ATOM     23  C   UNL     1      50.036   7.935  17.114  0.00  0.00    +0.000 A 
ATOM     24  C   UNL     1      50.078   6.704  16.485  0.00  0.00    +0.000 A 
ATOM     25 CL   UNL     1      51.156   5.444  16.954  0.00  0.00    +0.000 Cl
ATOM     26  N   UNL     1      49.281   6.343  15.450  0.00  0.00    +0.000 NA
ATOM     27  H   UNL     1      46.562   7.083  14.155  0.00  0.00    +0.000 HD
BRANCH  23  28
ATOM     28  C   UNL     1      50.890   8.269  18.211  0.00  0.00    +0.000 C 
ATOM     29  N   UNL     1      51.560   8.532  19.118  0.00  0.00    +0.000 NA
ENDBRANCH  23  28
ENDBRANCH  18  19
ENDBRANCH   1  18
TORSDOF 7
ENDMDL
MODEL 7
REMARK VINA RESULT:    -6.236      4.475      7.675
REMARK INTER + INTRA:          -9.419
REMARK INTER:                  -7.994
REMARK INTRA:                  -1.425
REMARK UNBOUND:                -0.814
REMARK  Name = 
REMARK  8 active torsions:
REMARK  status: ('A' for Active; 'I' for Inactive)
REMARK    1  A    between atoms: C_1  and  C_2
REMARK    2  A    between atoms: C_2  and  O_3
REMARK    3  A    between atoms: C_5  and  O_6
REMARK    4  A    between atoms: O_6  and  C_7
REMARK    5  A    between atoms: C_9  and  C_10
REMARK    6  A    between atoms: C_10  and  C_13
REMARK    7  A    between atoms: C_13  and  N_14
REMARK    8  A    between atoms: C_18  and  C_19
REMARK                            x       y       z     vdW  Elec       q    Type
REMARK                         _______ _______ _______ _____ _____    ______ ____
ROOT
ATOM      1  C   UNL     1      48.352   7.676  12.255  0.00  0.00    +0.000 C 
ATOM      2  F   UNL     1      49.347   7.216  11.436  0.00  0.00    +0.000 F 
ATOM      3  F   UNL     1      47.794   8.731  11.577  0.00  0.00    +0.000 F 
ENDROOT
BRANCH   1   6
ATOM      4  C   UNL     1      46.460   4.831  13.921  0.00  0.00    +0.000 A 
ATOM      5  C   UNL     1      47.430   5.794  13.667  0.00  0.00    +0.000 A 
ATOM      6  C   UNL     1      47.318   6.585  12.515  0.00  0.00    +0.000 A 
ATOM      7  C   UNL     1      46.231   6.332  11.665  0.00  0.00    +0.000 A 
ATOM      8  C   UNL     1      45.326   5.335  11.999  0.00  0.00    +0.000 A 
ATOM      9  N   UNL     1      45.411   4.584  13.112  0.00  0.00    +0.000 NA
BRANCH   4  10
ATOM     10  O   UNL     1      46.585   4.096  15.082  0.00  0.00    +0.000 OA
BRANCH  10  14
ATOM     11  C   UNL     1      48.325   3.131  19.103  0.00  0.00    +0.000 C 
ATOM     12  C   UNL     1      47.603   3.344  17.782  0.00  0.00    +0.000 C 
ATOM     13  C   UNL     1      48.504   3.215  16.526  0.00  0.00    +0.000 C 
ATOM     14  C   UNL     1      47.730   4.414  15.913  0.00  0.00    +0.000 C 
ATOM     15  C   UNL     1      47.381   4.824  17.368  0.00  0.00    +0.000 C 
BRANCH  12  16
ATOM     16  O   UNL     1      46.403   2.538  17.775  0.00  0.00    +0.000 OA
ATOM     17  H   UNL     1      45.667   3.168  17.697  0.00  0.00    +0.000 HD
ENDBRANCH  12  16
ENDBRANCH  10  14
ENDBRANCH   4  10
ENDBRANCH   1   6
BRANCH   1  18
ATOM     18  C   UNL     1      49.005   8.252  13.543  0.00  0.00    +0.000 C 
BRANCH  18  19
ATOM     19  N   UNL     1      50.062   7.406  14.146  0.00  0.00    +0.000 N 
ATOM     20  C   UNL     1      50.017   7.381  15.551  0.00  0.00    +0.000 A 
ATOM     21  C   UNL     1      50.963   6.623  16.238  0.00  0.00    +0.000 A 
ATOM     22  C   UNL     1      50.926   6.569  17.636  0.00  0.00    +0.000 A 
ATOM     23  C   UNL     1      49.940   7.272  18.325  0.00  0.00    +0.000 A 
ATOM     24  C   UNL     1      49.031   7.983  17.563  0.00  0.00    +0.000 A 
ATOM     25 CL   UNL     1      47.749   8.909  18.247  0.00  0.00    +0.000 Cl
ATOM     26  N   UNL     1      49.047   8.045  16.209  0.00  0.00    +0.000 NA
ATOM     27  H   UNL     1      50.990   7.672  13.822  0.00  0.00    +0.000 HD
BRANCH  23  28
ATOM     28  C   UNL     1      49.892   7.244  19.754  0.00  0.00    +0.000 C 
ATOM     29  N   UNL     1      49.824   7.229  20.910  0.00  0.00    +0.000 NA
ENDBRANCH  23  28
ENDBRANCH  18  19
ENDBRANCH   1  18
TORSDOF 7
ENDMDL
MODEL 8
REMARK VINA RESULT:    -6.210      5.023      8.799
REMARK INTER + INTRA:          -9.383
REMARK INTER:                  -8.745
REMARK INTRA:                  -0.638
REMARK UNBOUND:                -0.814
REMARK  Name = 
REMARK  8 active torsions:
REMARK  status: ('A' for Active; 'I' for Inactive)
REMARK    1  A    between atoms: C_1  and  C_2
REMARK    2  A    between atoms: C_2  and  O_3
REMARK    3  A    between atoms: C_5  and  O_6
REMARK    4  A    between atoms: O_6  and  C_7
REMARK    5  A    between atoms: C_9  and  C_10
REMARK    6  A    between atoms: C_10  and  C_13
REMARK    7  A    between atoms: C_13  and  N_14
REMARK    8  A    between atoms: C_18  and  C_19
REMARK                            x       y       z     vdW  Elec       q    Type
REMARK                         _______ _______ _______ _____ _____    ______ ____
ROOT
ATOM      1  C   UNL     1      45.453   5.945  12.658  0.00  0.00    +0.000 C 
ATOM      2  F   UNL     1      44.308   5.568  13.304  0.00  0.00    +0.000 F 
ATOM      3  F   UNL     1      45.514   5.143  11.546  0.00  0.00    +0.000 F 
ENDROOT
BRANCH   1   6
ATOM      4  C   UNL     1      44.297   9.210  11.091  0.00  0.00    +0.000 A 
ATOM      5  C   UNL     1      44.373   7.860  11.409  0.00  0.00    +0.000 A 
ATOM      6  C   UNL     1      45.393   7.418  12.267  0.00  0.00    +0.000 A 
ATOM      7  C   UNL     1      46.299   8.381  12.734  0.00  0.00    +0.000 A 
ATOM      8  C   UNL     1      46.147   9.703  12.344  0.00  0.00    +0.000 A 
ATOM      9  N   UNL     1      45.162  10.142  11.540  0.00  0.00    +0.000 NA
BRANCH   4  10
ATOM     10  O   UNL     1      43.260   9.611  10.274  0.00  0.00    +0.000 OA
BRANCH  10  14
ATOM     11  C   UNL     1      39.485  11.410  11.896  0.00  0.00    +0.000 C 
ATOM     12  C   UNL     1      40.687  10.641  11.374  0.00  0.00    +0.000 C 
ATOM     13  C   UNL     1      42.045  11.068  11.989  0.00  0.00    +0.000 C 
ATOM     14  C   UNL     1      42.676  10.902  10.580  0.00  0.00    +0.000 C 
ATOM     15  C   UNL     1      41.251  11.121  10.008  0.00  0.00    +0.000 C 
BRANCH  12  16
ATOM     16  O   UNL     1      40.393   9.227  11.432  0.00  0.00    +0.000 OA
ATOM     17  H   UNL     1      41.235   8.778  11.247  0.00  0.00    +0.000 HD
ENDBRANCH  12  16
ENDBRANCH  10  14
ENDBRANCH   4  10
ENDBRANCH   1   6
BRANCH   1  18
ATOM     18  C   UNL     1      46.666   5.577  13.557  0.00  0.00    +0.000 C 
BRANCH  18  19
ATOM     19  N   UNL     1      46.385   4.582  14.618  0.00  0.00    +0.000 N 
ATOM     20  C   UNL     1      47.321   4.611  15.667  0.00  0.00    +0.000 A 
ATOM     21  C   UNL     1      47.168   3.720  16.728  0.00  0.00    +0.000 A 
ATOM     22  C   UNL     1      48.078   3.744  17.791  0.00  0.00    +0.000 A 
ATOM     23  C   UNL     1      49.124   4.663  17.780  0.00  0.00    +0.000 A 
ATOM     24  C   UNL     1      49.189   5.524  16.698  0.00  0.00    +0.000 A 
ATOM     25 CL   UNL     1      50.416   6.721  16.520  0.00  0.00    +0.000 Cl
ATOM     26  N   UNL     1      48.317   5.519  15.661  0.00  0.00    +0.000 NA
ATOM     27  H   UNL     1      46.300   3.639  14.242  0.00  0.00    +0.000 HD
BRANCH  23  28
ATOM     28  C   UNL     1      50.074   4.697  18.848  0.00  0.00    +0.000 C 
ATOM     29  N   UNL     1      50.855   4.748  19.701  0.00  0.00    +0.000 NA
ENDBRANCH  23  28
ENDBRANCH  18  19
ENDBRANCH   1  18
TORSDOF 7
ENDMDL
MODEL 9
REMARK VINA RESULT:    -6.041      4.439      7.574
REMARK INTER + INTRA:          -9.150
REMARK INTER:                  -7.931
REMARK INTRA:                  -1.220
REMARK UNBOUND:                -0.814
REMARK  Name = 
REMARK  8 active torsions:
REMARK  status: ('A' for Active; 'I' for Inactive)
REMARK    1  A    between atoms: C_1  and  C_2
REMARK    2  A    between atoms: C_2  and  O_3
REMARK    3  A    between atoms: C_5  and  O_6
REMARK    4  A    between atoms: O_6  and  C_7
REMARK    5  A    between atoms: C_9  and  C_10
REMARK    6  A    between atoms: C_10  and  C_13
REMARK    7  A    between atoms: C_13  and  N_14
REMARK    8  A    between atoms: C_18  and  C_19
REMARK                            x       y       z     vdW  Elec       q    Type
REMARK                         _______ _______ _______ _____ _____    ______ ____
ROOT
ATOM      1  C   UNL     1      45.764   5.049  12.909  0.00  0.00    +0.000 C 
ATOM      2  F   UNL     1      44.668   4.681  13.641  0.00  0.00    +0.000 F 
ATOM      3  F   UNL     1      45.641   4.371  11.723  0.00  0.00    +0.000 F 
ENDROOT
BRANCH   1   6
ATOM      4  C   UNL     1      46.837   8.694  13.001  0.00  0.00    +0.000 A 
ATOM      5  C   UNL     1      46.803   7.328  13.251  0.00  0.00    +0.000 A 
ATOM      6  C   UNL     1      45.780   6.557  12.679  0.00  0.00    +0.000 A 
ATOM      7  C   UNL     1      44.826   7.230  11.902  0.00  0.00    +0.000 A 
ATOM      8  C   UNL     1      44.939   8.602  11.728  0.00  0.00    +0.000 A 
ATOM      9  N   UNL     1      45.927   9.348  12.252  0.00  0.00    +0.000 NA
BRANCH   4  10
ATOM     10  O   UNL     1      47.878   9.413  13.551  0.00  0.00    +0.000 OA
BRANCH  10  14
ATOM     11  C   UNL     1      51.874   8.411  11.776  0.00  0.00    +0.000 C 
ATOM     12  C   UNL     1      50.533   8.595  12.467  0.00  0.00    +0.000 C 
ATOM     13  C   UNL     1      49.362   8.964  11.518  0.00  0.00    +0.000 C 
ATOM     14  C   UNL     1      48.850   9.939  12.613  0.00  0.00    +0.000 C 
ATOM     15  C   UNL     1      50.308   9.976  13.142  0.00  0.00    +0.000 C 
BRANCH  12  16
ATOM     16  O   UNL     1      50.299   7.463  13.335  0.00  0.00    +0.000 OA
ATOM     17  H   UNL     1      49.413   7.137  13.105  0.00  0.00    +0.000 HD
ENDBRANCH  12  16
ENDBRANCH  10  14
ENDBRANCH   4  10
ENDBRANCH   1   6
BRANCH   1  18
ATOM     18  C   UNL     1      47.033   4.502  13.621  0.00  0.00    +0.000 C 
BRANCH  18  19
ATOM     19  N   UNL     1      46.775   3.670  14.819  0.00  0.00    +0.000 N 
ATOM     20  C   UNL     1      47.551   4.044  15.931  0.00  0.00    +0.000 A 
ATOM     21  C   UNL     1      47.402   3.335  17.121  0.00  0.00    +0.000 A 
ATOM     22  C   UNL     1      48.150   3.701  18.245  0.00  0.00    +0.000 A 
ATOM     23  C   UNL     1      49.033   4.776  18.163  0.00  0.00    +0.000 A 
ATOM     24  C   UNL     1      49.103   5.436  16.949  0.00  0.00    +0.000 A 
ATOM     25 CL   UNL     1      50.140   6.783  16.668  0.00  0.00    +0.000 Cl
ATOM     26  N   UNL     1      48.384   5.099  15.850  0.00  0.00    +0.000 NA
ATOM     27  H   UNL     1      46.888   2.676  14.623  0.00  0.00    +0.000 HD
BRANCH  23  28
ATOM     28  C   UNL     1      49.819   5.160  19.294  0.00  0.00    +0.000 C 
ATOM     29  N   UNL     1      50.438   5.494  20.213  0.00  0.00    +0.000 NA
ENDBRANCH  23  28
ENDBRANCH  18  19
ENDBRANCH   1  18
TORSDOF 7
ENDMDL
