MODEL 1
REMARK VINA RESULT:    -7.393      0.000      0.000
REMARK INTER + INTRA:         -10.749
REMARK INTER:                  -9.770
REMARK INTRA:                  -0.979
REMARK UNBOUND:                -0.979
REMARK  Name = 
REMARK  8 active torsions:
REMARK  status: ('A' for Active; 'I' for Inactive)
REMARK    1  A    between atoms: C_1  and  C_2
REMARK    2  A    between atoms: C_2  and  C_3
REMARK    3  A    between atoms: C_2  and  C_4
REMARK    4  A    between atoms: C_2  and  C_22
REMARK    5  A    between atoms: C_5  and  C_6
REMARK    6  A    between atoms: C_10  and  C_11
REMARK    7  A    between atoms: C_14  and  C_15
REMARK    8  A    between atoms: C_25  and  O_26
REMARK                            x       y       z     vdW  Elec       q    Type
REMARK                         _______ _______ _______ _____ _____    ______ ____
ROOT
ATOM      1  C   UNL     1      47.132   6.266  12.586  0.00  0.00    +0.000 A 
ATOM      2  C   UNL     1      48.085   7.166  12.121  0.00  0.00    +0.000 A 
ATOM      3  N   UNL     1      49.072   7.691  12.880  0.00  0.00    +0.000 NA
ATOM      4  C   UNL     1      49.118   7.287  14.172  0.00  0.00    +0.000 A 
ATOM      5  C   UNL     1      48.244   6.371  14.764  0.00  0.00    +0.000 A 
ATOM      6  C   UNL     1      47.238   5.864  13.924  0.00  0.00    +0.000 A 
ENDROOT
BRANCH   5   7
ATOM      7  C   UNL     1      48.382   5.941  16.173  0.00  0.00    +0.000 A 
ATOM      8  C   UNL     1      49.049   6.733  17.125  0.00  0.00    +0.000 A 
ATOM      9  C   UNL     1      49.155   6.339  18.466  0.00  0.00    +0.000 A 
ATOM     10  C   UNL     1      48.604   5.124  18.896  0.00  0.00    +0.000 A 
ATOM     11  C   UNL     1      47.948   4.318  17.956  0.00  0.00    +0.000 A 
ATOM     12  C   UNL     1      47.838   4.723  16.622  0.00  0.00    +0.000 A 
BRANCH  10  13
ATOM     13  C   UNL     1      48.702   4.684  20.334  0.00  0.00    +0.000 C 
ATOM     14  F   UNL     1      49.905   4.959  20.909  0.00  0.00    +0.000 F 
ATOM     15  F   UNL     1      47.766   5.279  21.125  0.00  0.00    +0.000 F 
ATOM     16  F   UNL     1      48.516   3.342  20.482  0.00  0.00    +0.000 F 
ENDBRANCH  10  13
ENDBRANCH   5   7
BRANCH   1  18
ATOM     17  C   UNL     1      45.347   4.660  11.919  0.00  0.00    +0.000 C 
ATOM     18  C   UNL     1      46.128   5.726  11.662  0.00  0.00    +0.000 C 
BRANCH  17  20
ATOM     19  C   UNL     1      43.449   3.051  11.719  0.00  0.00    +0.000 C 
ATOM     20  C   UNL     1      44.295   4.100  10.956  0.00  0.00    +0.000 C 
ATOM     21  C   UNL     1      43.323   5.244  10.570  0.00  0.00    +0.000 C 
BRANCH  20  22
ATOM     22  C   UNL     1      44.965   3.540   9.684  0.00  0.00    +0.000 A 
ATOM     23  C   UNL     1      45.131   2.160   9.462  0.00  0.00    +0.000 A 
ATOM     24  C   UNL     1      45.778   1.677   8.319  0.00  0.00    +0.000 A 
ATOM     25  C   UNL     1      46.270   2.571   7.379  0.00  0.00    +0.000 A 
ATOM     26  C   UNL     1      46.116   3.938   7.559  0.00  0.00    +0.000 A 
ATOM     27  C   UNL     1      45.470   4.419   8.704  0.00  0.00    +0.000 A 
BRANCH  25  28
ATOM     28  O   UNL     1      46.920   2.140   6.263  0.00  0.00    +0.000 OA
ATOM     29  H   UNL     1      46.554   2.606   5.493  0.00  0.00    +0.000 HD
ENDBRANCH  25  28
ENDBRANCH  20  22
ENDBRANCH  17  20
ENDBRANCH   1  18
TORSDOF 6
ENDMDL
MODEL 2
REMARK VINA RESULT:    -7.304      1.487      2.188
REMARK INTER + INTRA:         -10.632
REMARK INTER:                  -9.503
REMARK INTRA:                  -1.130
REMARK UNBOUND:                -0.979
REMARK  Name = 
REMARK  8 active torsions:
REMARK  status: ('A' for Active; 'I' for Inactive)
REMARK    1  A    between atoms: C_1  and  C_2
REMARK    2  A    between atoms: C_2  and  C_3
REMARK    3  A    between atoms: C_2  and  C_4
REMARK    4  A    between atoms: C_2  and  C_22
REMARK    5  A    between atoms: C_5  and  C_6
REMARK    6  A    between atoms: C_10  and  C_11
REMARK    7  A    between atoms: C_14  and  C_15
REMARK    8  A    between atoms: C_25  and  O_26
REMARK                            x       y       z     vdW  Elec       q    Type
REMARK                         _______ _______ _______ _____ _____    ______ ____
ROOT
ATOM      1  C   UNL     1      46.031   6.338  11.733  0.00  0.00    +0.000 A 
ATOM      2  C   UNL     1      46.104   7.722  11.615  0.00  0.00    +0.000 A 
ATOM      3  N   UNL     1      46.698   8.535  12.517  0.00  0.00    +0.000 NA
ATOM      4  C   UNL     1      47.262   7.931  13.591  0.00  0.00    +0.000 A 
ATOM      5  C   UNL     1      47.286   6.553  13.824  0.00  0.00    +0.000 A 
ATOM      6  C   UNL     1      46.648   5.764  12.852  0.00  0.00    +0.000 A 
ENDROOT
BRANCH   5   7
ATOM      7  C   UNL     1      47.960   5.961  15.000  0.00  0.00    +0.000 A 
ATOM      8  C   UNL     1      49.069   6.579  15.606  0.00  0.00    +0.000 A 
ATOM      9  C   UNL     1      49.690   6.032  16.737  0.00  0.00    +0.000 A 
ATOM     10  C   UNL     1      49.225   4.833  17.293  0.00  0.00    +0.000 A 
ATOM     11  C   UNL     1      48.129   4.198  16.693  0.00  0.00    +0.000 A 
ATOM     12  C   UNL     1      47.508   4.755  15.570  0.00  0.00    +0.000 A 
BRANCH  10  13
ATOM     13  C   UNL     1      49.874   4.230  18.513  0.00  0.00    +0.000 C 
ATOM     14  F   UNL     1      49.270   3.087  18.944  0.00  0.00    +0.000 F 
ATOM     15  F   UNL     1      51.178   3.904  18.300  0.00  0.00    +0.000 F 
ATOM     16  F   UNL     1      49.870   5.078  19.578  0.00  0.00    +0.000 F 
ENDBRANCH  10  13
ENDBRANCH   5   7
BRANCH   1  18
ATOM     17  C   UNL     1      45.525   4.217  10.529  0.00  0.00    +0.000 C 
ATOM     18  C   UNL     1      45.397   5.549  10.672  0.00  0.00    +0.000 C 
BRANCH  17  20
ATOM     19  C   UNL     1      44.101   2.215  10.086  0.00  0.00    +0.000 C 
ATOM     20  C   UNL     1      44.858   3.392   9.423  0.00  0.00    +0.000 C 
ATOM     21  C   UNL     1      43.781   4.270   8.737  0.00  0.00    +0.000 C 
BRANCH  20  22
ATOM     22  C   UNL     1      45.899   2.940   8.378  0.00  0.00    +0.000 A 
ATOM     23  C   UNL     1      46.533   3.843   7.503  0.00  0.00    +0.000 A 
ATOM     24  C   UNL     1      47.444   3.405   6.536  0.00  0.00    +0.000 A 
ATOM     25  C   UNL     1      47.734   2.053   6.428  0.00  0.00    +0.000 A 
ATOM     26  C   UNL     1      47.136   1.135   7.279  0.00  0.00    +0.000 A 
ATOM     27  C   UNL     1      46.224   1.575   8.245  0.00  0.00    +0.000 A 
BRANCH  25  28
ATOM     28  O   UNL     1      48.602   1.586   5.488  0.00  0.00    +0.000 OA
ATOM     29  H   UNL     1      48.108   1.034   4.859  0.00  0.00    +0.000 HD
ENDBRANCH  25  28
ENDBRANCH  20  22
ENDBRANCH  17  20
ENDBRANCH   1  18
TORSDOF 6
ENDMDL
MODEL 3
REMARK VINA RESULT:    -7.212      5.810      9.688
REMARK INTER + INTRA:         -10.510
REMARK INTER:                  -9.416
REMARK INTRA:                  -1.094
REMARK UNBOUND:                -0.979
REMARK  Name = 
REMARK  8 active torsions:
REMARK  status: ('A' for Active; 'I' for Inactive)
REMARK    1  A    between atoms: C_1  and  C_2
REMARK    2  A    between atoms: C_2  and  C_3
REMARK    3  A    between atoms: C_2  and  C_4
REMARK    4  A    between atoms: C_2  and  C_22
REMARK    5  A    between atoms: C_5  and  C_6
REMARK    6  A    between atoms: C_10  and  C_11
REMARK    7  A    between atoms: C_14  and  C_15
REMARK    8  A    between atoms: C_25  and  O_26
REMARK                            x       y       z     vdW  Elec       q    Type
REMARK                         _______ _______ _______ _____ _____    ______ ____
ROOT
ATOM      1  C   UNL     1      45.564   6.335  12.604  0.00  0.00    +0.000 A 
ATOM      2  C   UNL     1      44.203   6.285  12.888  0.00  0.00    +0.000 A 
ATOM      3  N   UNL     1      43.292   5.628  12.136  0.00  0.00    +0.000 NA
ATOM      4  C   UNL     1      43.766   4.977  11.046  0.00  0.00    +0.000 A 
ATOM      5  C   UNL     1      45.107   4.922  10.658  0.00  0.00    +0.000 A 
ATOM      6  C   UNL     1      46.005   5.627  11.478  0.00  0.00    +0.000 A 
ENDROOT
BRANCH   5   7
ATOM      7  C   UNL     1      45.559   4.153   9.478  0.00  0.00    +0.000 A 
ATOM      8  C   UNL     1      46.130   4.784   8.358  0.00  0.00    +0.000 A 
ATOM      9  C   UNL     1      46.584   4.053   7.252  0.00  0.00    +0.000 A 
ATOM     10  C   UNL     1      46.467   2.657   7.227  0.00  0.00    +0.000 A 
ATOM     11  C   UNL     1      45.888   2.014   8.329  0.00  0.00    +0.000 A 
ATOM     12  C   UNL     1      45.446   2.750   9.433  0.00  0.00    +0.000 A 
BRANCH  10  13
ATOM     13  C   UNL     1      46.953   1.850   6.050  0.00  0.00    +0.000 C 
ATOM     14  F   UNL     1      46.728   0.512   6.175  0.00  0.00    +0.000 F 
ATOM     15  F   UNL     1      46.358   2.220   4.883  0.00  0.00    +0.000 F 
ATOM     16  F   UNL     1      48.293   1.984   5.844  0.00  0.00    +0.000 F 
ENDBRANCH  10  13
ENDBRANCH   5   7
BRANCH   1  18
ATOM     17  C   UNL     1      47.760   6.714  13.717  0.00  0.00    +0.000 C 
ATOM     18  C   UNL     1      46.472   7.043  13.513  0.00  0.00    +0.000 C 
BRANCH  17  20
ATOM     19  C   UNL     1      49.883   8.024  13.826  0.00  0.00    +0.000 C 
ATOM     20  C   UNL     1      48.709   7.457  14.663  0.00  0.00    +0.000 C 
ATOM     21  C   UNL     1      47.961   8.682  15.248  0.00  0.00    +0.000 C 
BRANCH  20  22
ATOM     22  C   UNL     1      49.166   6.534  15.813  0.00  0.00    +0.000 A 
ATOM     23  C   UNL     1      50.454   6.608  16.375  0.00  0.00    +0.000 A 
ATOM     24  C   UNL     1      50.860   5.734  17.389  0.00  0.00    +0.000 A 
ATOM     25  C   UNL     1      49.980   4.769  17.856  0.00  0.00    +0.000 A 
ATOM     26  C   UNL     1      48.699   4.672  17.332  0.00  0.00    +0.000 A 
ATOM     27  C   UNL     1      48.296   5.546  16.317  0.00  0.00    +0.000 A 
BRANCH  25  28
ATOM     28  O   UNL     1      50.343   3.888  18.829  0.00  0.00    +0.000 OA
ATOM     29  H   UNL     1      51.065   4.281  19.348  0.00  0.00    +0.000 HD
ENDBRANCH  25  28
ENDBRANCH  20  22
ENDBRANCH  17  20
ENDBRANCH   1  18
TORSDOF 6
ENDMDL
MODEL 4
REMARK VINA RESULT:    -7.033      4.928      8.880
REMARK INTER + INTRA:         -10.274
REMARK INTER:                  -9.099
REMARK INTRA:                  -1.175
REMARK UNBOUND:                -0.979
REMARK  Name = 
REMARK  8 active torsions:
REMARK  status: ('A' for Active; 'I' for Inactive)
REMARK    1  A    between atoms: C_1  and  C_2
REMARK    2  A    between atoms: C_2  and  C_3
REMARK    3  A    between atoms: C_2  and  C_4
REMARK    4  A    between atoms: C_2  and  C_22
REMARK    5  A    between atoms: C_5  and  C_6
REMARK    6  A    between atoms: C_10  and  C_11
REMARK    7  A    between atoms: C_14  and  C_15
REMARK    8  A    between atoms: C_25  and  O_26
REMARK                            x       y       z     vdW  Elec       q    Type
REMARK                         _______ _______ _______ _____ _____    ______ ____
ROOT
ATOM      1  C   UNL     1      49.252   7.326  15.440  0.00  0.00    +0.000 A 
ATOM      2  C   UNL     1      49.179   8.700  15.235  0.00  0.00    +0.000 A 
ATOM      3  N   UNL     1      48.408   9.290  14.295  0.00  0.00    +0.000 NA
ATOM      4  C   UNL     1      47.659   8.464  13.525  0.00  0.00    +0.000 A 
ATOM      5  C   UNL     1      47.615   7.072  13.638  0.00  0.00    +0.000 A 
ATOM      6  C   UNL     1      48.442   6.519  14.631  0.00  0.00    +0.000 A 
ENDROOT
BRANCH   5   7
ATOM      7  C   UNL     1      46.738   6.236  12.789  0.00  0.00    +0.000 A 
ATOM      8  C   UNL     1      46.475   6.566  11.448  0.00  0.00    +0.000 A 
ATOM      9  C   UNL     1      45.667   5.758  10.636  0.00  0.00    +0.000 A 
ATOM     10  C   UNL     1      45.081   4.594  11.150  0.00  0.00    +0.000 A 
ATOM     11  C   UNL     1      45.323   4.259  12.488  0.00  0.00    +0.000 A 
ATOM     12  C   UNL     1      46.139   5.064  13.290  0.00  0.00    +0.000 A 
BRANCH  10  13
ATOM     13  C   UNL     1      44.214   3.708  10.293  0.00  0.00    +0.000 C 
ATOM     14  F   UNL     1      43.810   4.296   9.132  0.00  0.00    +0.000 F 
ATOM     15  F   UNL     1      44.845   2.558   9.927  0.00  0.00    +0.000 F 
ATOM     16  F   UNL     1      43.074   3.320  10.931  0.00  0.00    +0.000 F 
ENDBRANCH  10  13
ENDBRANCH   5   7
BRANCH   1  18
ATOM     17  C   UNL     1      49.648   6.009  17.518  0.00  0.00    +0.000 C 
ATOM     18  C   UNL     1      50.092   6.794  16.519  0.00  0.00    +0.000 C 
BRANCH  17  20
ATOM     19  C   UNL     1      51.649   6.477  18.936  0.00  0.00    +0.000 C 
ATOM     20  C   UNL     1      50.527   5.450  18.642  0.00  0.00    +0.000 C 
ATOM     21  C   UNL     1      49.675   5.357  19.933  0.00  0.00    +0.000 C 
BRANCH  20  22
ATOM     22  C   UNL     1      51.059   4.050  18.272  0.00  0.00    +0.000 A 
ATOM     23  C   UNL     1      52.376   3.642  18.555  0.00  0.00    +0.000 A 
ATOM     24  C   UNL     1      52.849   2.382  18.174  0.00  0.00    +0.000 A 
ATOM     25  C   UNL     1      52.007   1.509  17.500  0.00  0.00    +0.000 A 
ATOM     26  C   UNL     1      50.700   1.872  17.211  0.00  0.00    +0.000 A 
ATOM     27  C   UNL     1      50.231   3.134  17.592  0.00  0.00    +0.000 A 
BRANCH  25  28
ATOM     28  O   UNL     1      52.436   0.280  17.096  0.00  0.00    +0.000 OA
ATOM     29  H   UNL     1      52.298   0.204  16.137  0.00  0.00    +0.000 HD
ENDBRANCH  25  28
ENDBRANCH  20  22
ENDBRANCH  17  20
ENDBRANCH   1  18
TORSDOF 6
ENDMDL
MODEL 5
REMARK VINA RESULT:    -6.595      5.425      7.792
REMARK INTER + INTRA:          -9.695
REMARK INTER:                  -8.596
REMARK INTRA:                  -1.098
REMARK UNBOUND:                -0.979
REMARK  Name = 
REMARK  8 active torsions:
REMARK  status: ('A' for Active; 'I' for Inactive)
REMARK    1  A    between atoms: C_1  and  C_2
REMARK    2  A    between atoms: C_2  and  C_3
REMARK    3  A    between atoms: C_2  and  C_4
REMARK    4  A    between atoms: C_2  and  C_22
REMARK    5  A    between atoms: C_5  and  C_6
REMARK    6  A    between atoms: C_10  and  C_11
REMARK    7  A    between atoms: C_14  and  C_15
REMARK    8  A    between atoms: C_25  and  O_26
REMARK                            x       y       z     vdW  Elec       q    Type
REMARK                         _______ _______ _______ _____ _____    ______ ____
ROOT
ATOM      1  C   UNL     1      49.805   8.731  12.000  0.00  0.00    +0.000 A 
ATOM      2  C   UNL     1      49.434   9.696  12.931  0.00  0.00    +0.000 A 
ATOM      3  N   UNL     1      48.253   9.708  13.587  0.00  0.00    +0.000 NA
ATOM      4  C   UNL     1      47.398   8.694  13.308  0.00  0.00    +0.000 A 
ATOM      5  C   UNL     1      47.651   7.646  12.418  0.00  0.00    +0.000 A 
ATOM      6  C   UNL     1      48.894   7.693  11.764  0.00  0.00    +0.000 A 
ENDROOT
BRANCH   5   7
ATOM      7  C   UNL     1      46.687   6.546  12.195  0.00  0.00    +0.000 A 
ATOM      8  C   UNL     1      46.210   5.755  13.256  0.00  0.00    +0.000 A 
ATOM      9  C   UNL     1      45.275   4.732  13.050  0.00  0.00    +0.000 A 
ATOM     10  C   UNL     1      44.795   4.457  11.762  0.00  0.00    +0.000 A 
ATOM     11  C   UNL     1      45.271   5.227  10.693  0.00  0.00    +0.000 A 
ATOM     12  C   UNL     1      46.196   6.254  10.908  0.00  0.00    +0.000 A 
BRANCH  10  13
ATOM     13  C   UNL     1      43.786   3.365  11.518  0.00  0.00    +0.000 C 
ATOM     14  F   UNL     1      44.049   2.615  10.412  0.00  0.00    +0.000 F 
ATOM     15  F   UNL     1      43.710   2.485  12.554  0.00  0.00    +0.000 F 
ATOM     16  F   UNL     1      42.524   3.850  11.348  0.00  0.00    +0.000 F 
ENDBRANCH  10  13
ENDBRANCH   5   7
BRANCH   1  18
ATOM     17  C   UNL     1      51.870   7.717  11.044  0.00  0.00    +0.000 C 
ATOM     18  C   UNL     1      51.132   8.792  11.378  0.00  0.00    +0.000 C 
BRANCH  17  20
ATOM     19  C   UNL     1      53.540   9.255  10.003  0.00  0.00    +0.000 C 
ATOM     20  C   UNL     1      53.254   7.782  10.388  0.00  0.00    +0.000 C 
ATOM     21  C   UNL     1      54.318   7.396  11.446  0.00  0.00    +0.000 C 
BRANCH  20  22
ATOM     22  C   UNL     1      53.337   6.809   9.194  0.00  0.00    +0.000 A 
ATOM     23  C   UNL     1      54.298   5.783   9.119  0.00  0.00    +0.000 A 
ATOM     24  C   UNL     1      54.380   4.938   8.007  0.00  0.00    +0.000 A 
ATOM     25  C   UNL     1      53.498   5.109   6.949  0.00  0.00    +0.000 A 
ATOM     26  C   UNL     1      52.531   6.103   6.992  0.00  0.00    +0.000 A 
ATOM     27  C   UNL     1      52.453   6.947   8.104  0.00  0.00    +0.000 A 
BRANCH  25  28
ATOM     28  O   UNL     1      53.557   4.318   5.842  0.00  0.00    +0.000 OA
ATOM     29  H   UNL     1      52.668   4.260   5.456  0.00  0.00    +0.000 HD
ENDBRANCH  25  28
ENDBRANCH  20  22
ENDBRANCH  17  20
ENDBRANCH   1  18
TORSDOF 6
ENDMDL
MODEL 6
REMARK VINA RESULT:    -6.184      5.161      9.474
REMARK INTER + INTRA:          -9.152
REMARK INTER:                  -8.187
REMARK INTRA:                  -0.965
REMARK UNBOUND:                -0.979
REMARK  Name = 
REMARK  8 active torsions:
REMARK  status: ('A' for Active; 'I' for Inactive)
REMARK    1  A    between atoms: C_1  and  C_2
REMARK    2  A    between atoms: C_2  and  C_3
REMARK    3  A    between atoms: C_2  and  C_4
REMARK    4  A    between atoms: C_2  and  C_22
REMARK    5  A    between atoms: C_5  and  C_6
REMARK    6  A    between atoms: C_10  and  C_11
REMARK    7  A    between atoms: C_14  and  C_15
REMARK    8  A    between atoms: C_25  and  O_26
REMARK                            x       y       z     vdW  Elec       q    Type
REMARK                         _______ _______ _______ _____ _____    ______ ____
ROOT
ATOM      1  C   UNL     1      47.741   7.821  14.006  0.00  0.00    +0.000 A 
ATOM      2  C   UNL     1      47.080   9.022  13.769  0.00  0.00    +0.000 A 
ATOM      3  N   UNL     1      46.121   9.193  12.832  0.00  0.00    +0.000 NA
ATOM      4  C   UNL     1      45.794   8.101  12.099  0.00  0.00    +0.000 A 
ATOM      5  C   UNL     1      46.356   6.830  12.247  0.00  0.00    +0.000 A 
ATOM      6  C   UNL     1      47.350   6.718  13.234  0.00  0.00    +0.000 A 
ENDROOT
BRANCH   5   7
ATOM      7  C   UNL     1      45.917   5.671  11.439  0.00  0.00    +0.000 A 
ATOM      8  C   UNL     1      45.902   5.713  10.033  0.00  0.00    +0.000 A 
ATOM      9  C   UNL     1      45.513   4.606   9.267  0.00  0.00    +0.000 A 
ATOM     10  C   UNL     1      45.110   3.418   9.890  0.00  0.00    +0.000 A 
ATOM     11  C   UNL     1      45.106   3.364  11.290  0.00  0.00    +0.000 A 
ATOM     12  C   UNL     1      45.505   4.470  12.048  0.00  0.00    +0.000 A 
BRANCH  10  13
ATOM     13  C   UNL     1      44.693   2.213   9.086  0.00  0.00    +0.000 C 
ATOM     14  F   UNL     1      43.834   1.387   9.745  0.00  0.00    +0.000 F 
ATOM     15  F   UNL     1      44.067   2.553   7.926  0.00  0.00    +0.000 F 
ATOM     16  F   UNL     1      45.752   1.436   8.724  0.00  0.00    +0.000 F 
ENDBRANCH  10  13
ENDBRANCH   5   7
BRANCH   1  18
ATOM     17  C   UNL     1      48.586   8.265  16.307  0.00  0.00    +0.000 C 
ATOM     18  C   UNL     1      48.738   7.737  15.078  0.00  0.00    +0.000 C 
BRANCH  17  20
ATOM     19  C   UNL     1      51.029   8.064  16.781  0.00  0.00    +0.000 C 
ATOM     20  C   UNL     1      49.626   8.173  17.428  0.00  0.00    +0.000 C 
ATOM     21  C   UNL     1      49.615   9.505  18.220  0.00  0.00    +0.000 C 
BRANCH  20  22
ATOM     22  C   UNL     1      49.298   7.003  18.380  0.00  0.00    +0.000 A 
ATOM     23  C   UNL     1      49.851   6.901  19.671  0.00  0.00    +0.000 A 
ATOM     24  C   UNL     1      49.571   5.811  20.501  0.00  0.00    +0.000 A 
ATOM     25  C   UNL     1      48.731   4.803  20.050  0.00  0.00    +0.000 A 
ATOM     26  C   UNL     1      48.161   4.874  18.788  0.00  0.00    +0.000 A 
ATOM     27  C   UNL     1      48.444   5.964  17.958  0.00  0.00    +0.000 A 
BRANCH  25  28
ATOM     28  O   UNL     1      48.449   3.717  20.822  0.00  0.00    +0.000 OA
ATOM     29  H   UNL     1      47.533   3.443  20.646  0.00  0.00    +0.000 HD
ENDBRANCH  25  28
ENDBRANCH  20  22
ENDBRANCH  17  20
ENDBRANCH   1  18
TORSDOF 6
ENDMDL
MODEL 7
REMARK VINA RESULT:    -6.142      6.742      8.845
REMARK INTER + INTRA:          -9.096
REMARK INTER:                  -8.004
REMARK INTRA:                  -1.093
REMARK UNBOUND:                -0.979
REMARK  Name = 
REMARK  8 active torsions:
REMARK  status: ('A' for Active; 'I' for Inactive)
REMARK    1  A    between atoms: C_1  and  C_2
REMARK    2  A    between atoms: C_2  and  C_3
REMARK    3  A    between atoms: C_2  and  C_4
REMARK    4  A    between atoms: C_2  and  C_22
REMARK    5  A    between atoms: C_5  and  C_6
REMARK    6  A    between atoms: C_10  and  C_11
REMARK    7  A    between atoms: C_14  and  C_15
REMARK    8  A    between atoms: C_25  and  O_26
REMARK                            x       y       z     vdW  Elec       q    Type
REMARK                         _______ _______ _______ _____ _____    ______ ____
ROOT
ATOM      1  C   UNL     1      50.642   8.479  11.355  0.00  0.00    +0.000 A 
ATOM      2  C   UNL     1      51.066   9.777  11.089  0.00  0.00    +0.000 A 
ATOM      3  N   UNL     1      52.063  10.093  10.233  0.00  0.00    +0.000 NA
ATOM      4  C   UNL     1      52.662   9.057   9.597  0.00  0.00    +0.000 A 
ATOM      5  C   UNL     1      52.322   7.710   9.749  0.00  0.00    +0.000 A 
ATOM      6  C   UNL     1      51.281   7.446  10.656  0.00  0.00    +0.000 A 
ENDROOT
BRANCH   5   7
ATOM      7  C   UNL     1      52.992   6.633   8.987  0.00  0.00    +0.000 A 
ATOM      8  C   UNL     1      54.075   5.913   9.523  0.00  0.00    +0.000 A 
ATOM      9  C   UNL     1      54.691   4.874   8.812  0.00  0.00    +0.000 A 
ATOM     10  C   UNL     1      54.249   4.530   7.528  0.00  0.00    +0.000 A 
ATOM     11  C   UNL     1      53.180   5.248   6.976  0.00  0.00    +0.000 A 
ATOM     12  C   UNL     1      52.562   6.276   7.695  0.00  0.00    +0.000 A 
BRANCH  10  13
ATOM     13  C   UNL     1      54.893   3.413   6.748  0.00  0.00    +0.000 C 
ATOM     14  F   UNL     1      55.720   3.846   5.756  0.00  0.00    +0.000 F 
ATOM     15  F   UNL     1      55.651   2.600   7.535  0.00  0.00    +0.000 F 
ATOM     16  F   UNL     1      53.979   2.603   6.146  0.00  0.00    +0.000 F 
ENDBRANCH  10  13
ENDBRANCH   5   7
BRANCH   1  18
ATOM     17  C   UNL     1      48.222   8.364  11.936  0.00  0.00    +0.000 C 
ATOM     18  C   UNL     1      49.520   8.253  12.273  0.00  0.00    +0.000 C 
BRANCH  17  20
ATOM     19  C   UNL     1      47.465   8.620  14.301  0.00  0.00    +0.000 C 
ATOM     20  C   UNL     1      47.051   8.122  12.894  0.00  0.00    +0.000 C 
ATOM     21  C   UNL     1      45.862   9.013  12.451  0.00  0.00    +0.000 C 
BRANCH  20  22
ATOM     22  C   UNL     1      46.623   6.640  12.869  0.00  0.00    +0.000 A 
ATOM     23  C   UNL     1      47.140   5.689  13.768  0.00  0.00    +0.000 A 
ATOM     24  C   UNL     1      46.768   4.342  13.701  0.00  0.00    +0.000 A 
ATOM     25  C   UNL     1      45.871   3.926  12.728  0.00  0.00    +0.000 A 
ATOM     26  C   UNL     1      45.333   4.837  11.830  0.00  0.00    +0.000 A 
ATOM     27  C   UNL     1      45.708   6.183  11.899  0.00  0.00    +0.000 A 
BRANCH  25  28
ATOM     28  O   UNL     1      45.498   2.620  12.618  0.00  0.00    +0.000 OA
ATOM     29  H   UNL     1      45.678   2.322  11.711  0.00  0.00    +0.000 HD
ENDBRANCH  25  28
ENDBRANCH  20  22
ENDBRANCH  17  20
ENDBRANCH   1  18
TORSDOF 6
ENDMDL
MODEL 8
REMARK VINA RESULT:    -6.086      4.882      9.235
REMARK INTER + INTRA:          -9.022
REMARK INTER:                  -7.899
REMARK INTRA:                  -1.123
REMARK UNBOUND:                -0.979
REMARK  Name = 
REMARK  8 active torsions:
REMARK  status: ('A' for Active; 'I' for Inactive)
REMARK    1  A    between atoms: C_1  and  C_2
REMARK    2  A    between atoms: C_2  and  C_3
REMARK    3  A    between atoms: C_2  and  C_4
REMARK    4  A    between atoms: C_2  and  C_22
REMARK    5  A    between atoms: C_5  and  C_6
REMARK    6  A    between atoms: C_10  and  C_11
REMARK    7  A    between atoms: C_14  and  C_15
REMARK    8  A    between atoms: C_25  and  O_26
REMARK                            x       y       z     vdW  Elec       q    Type
REMARK                         _______ _______ _______ _____ _____    ______ ____
ROOT
ATOM      1  C   UNL     1      49.880   7.827  14.065  0.00  0.00    +0.000 A 
ATOM      2  C   UNL     1      50.345   8.663  13.054  0.00  0.00    +0.000 A 
ATOM      3  N   UNL     1      49.827   8.711  11.806  0.00  0.00    +0.000 NA
ATOM      4  C   UNL     1      48.780   7.888  11.557  0.00  0.00    +0.000 A 
ATOM      5  C   UNL     1      48.197   7.018  12.482  0.00  0.00    +0.000 A 
ATOM      6  C   UNL     1      48.782   7.012  13.760  0.00  0.00    +0.000 A 
ENDROOT
BRANCH   5   7
ATOM      7  C   UNL     1      47.024   6.179  12.151  0.00  0.00    +0.000 A 
ATOM      8  C   UNL     1      46.388   6.259  10.899  0.00  0.00    +0.000 A 
ATOM      9  C   UNL     1      45.296   5.443  10.575  0.00  0.00    +0.000 A 
ATOM     10  C   UNL     1      44.792   4.526  11.507  0.00  0.00    +0.000 A 
ATOM     11  C   UNL     1      45.407   4.444  12.763  0.00  0.00    +0.000 A 
ATOM     12  C   UNL     1      46.504   5.254  13.076  0.00  0.00    +0.000 A 
BRANCH  10  13
ATOM     13  C   UNL     1      43.622   3.635  11.178  0.00  0.00    +0.000 C 
ATOM     14  F   UNL     1      43.685   3.087   9.932  0.00  0.00    +0.000 F 
ATOM     15  F   UNL     1      43.507   2.587  12.039  0.00  0.00    +0.000 F 
ATOM     16  F   UNL     1      42.432   4.296  11.234  0.00  0.00    +0.000 F 
ENDBRANCH  10  13
ENDBRANCH   5   7
BRANCH   1  18
ATOM     17  C   UNL     1      49.815   8.118  16.538  0.00  0.00    +0.000 C 
ATOM     18  C   UNL     1      50.491   7.888  15.397  0.00  0.00    +0.000 C 
BRANCH  17  20
ATOM     19  C   UNL     1      51.992   8.182  17.759  0.00  0.00    +0.000 C 
ATOM     20  C   UNL     1      50.453   8.175  17.930  0.00  0.00    +0.000 C 
ATOM     21  C   UNL     1      50.083   9.530  18.585  0.00  0.00    +0.000 C 
BRANCH  20  22
ATOM     22  C   UNL     1      49.939   7.018  18.813  0.00  0.00    +0.000 A 
ATOM     23  C   UNL     1      50.546   5.748  18.823  0.00  0.00    +0.000 A 
ATOM     24  C   UNL     1      50.039   4.702  19.601  0.00  0.00    +0.000 A 
ATOM     25  C   UNL     1      48.912   4.912  20.382  0.00  0.00    +0.000 A 
ATOM     26  C   UNL     1      48.292   6.153  20.404  0.00  0.00    +0.000 A 
ATOM     27  C   UNL     1      48.801   7.197  19.624  0.00  0.00    +0.000 A 
BRANCH  25  28
ATOM     28  O   UNL     1      48.377   3.914  21.139  0.00  0.00    +0.000 OA
ATOM     29  H   UNL     1      48.473   3.075  20.657  0.00  0.00    +0.000 HD
ENDBRANCH  25  28
ENDBRANCH  20  22
ENDBRANCH  17  20
ENDBRANCH   1  18
TORSDOF 6
ENDMDL
MODEL 9
REMARK VINA RESULT:    -6.037      1.636      2.344
REMARK INTER + INTRA:          -8.957
REMARK INTER:                  -8.091
REMARK INTRA:                  -0.866
REMARK UNBOUND:                -0.979
REMARK  Name = 
REMARK  8 active torsions:
REMARK  status: ('A' for Active; 'I' for Inactive)
REMARK    1  A    between atoms: C_1  and  C_2
REMARK    2  A    between atoms: C_2  and  C_3
REMARK    3  A    between atoms: C_2  and  C_4
REMARK    4  A    between atoms: C_2  and  C_22
REMARK    5  A    between atoms: C_5  and  C_6
REMARK    6  A    between atoms: C_10  and  C_11
REMARK    7  A    between atoms: C_14  and  C_15
REMARK    8  A    between atoms: C_25  and  O_26
REMARK                            x       y       z     vdW  Elec       q    Type
REMARK                         _______ _______ _______ _____ _____    ______ ____
ROOT
ATOM      1  C   UNL     1      47.491   6.624  12.637  0.00  0.00    +0.000 A 
ATOM      2  C   UNL     1      48.266   7.439  11.818  0.00  0.00    +0.000 A 
ATOM      3  N   UNL     1      49.180   8.325  12.270  0.00  0.00    +0.000 NA
ATOM      4  C   UNL     1      49.338   8.395  13.614  0.00  0.00    +0.000 A 
ATOM      5  C   UNL     1      48.648   7.620  14.550  0.00  0.00    +0.000 A 
ATOM      6  C   UNL     1      47.709   6.721  14.018  0.00  0.00    +0.000 A 
ENDROOT
BRANCH   5   7
ATOM      7  C   UNL     1      48.905   7.719  16.004  0.00  0.00    +0.000 A 
ATOM      8  C   UNL     1      49.633   6.734  16.695  0.00  0.00    +0.000 A 
ATOM      9  C   UNL     1      49.900   6.842  18.066  0.00  0.00    +0.000 A 
ATOM     10  C   UNL     1      49.432   7.942  18.797  0.00  0.00    +0.000 A 
ATOM     11  C   UNL     1      48.694   8.925  18.126  0.00  0.00    +0.000 A 
ATOM     12  C   UNL     1      48.439   8.816  16.755  0.00  0.00    +0.000 A 
BRANCH  10  13
ATOM     13  C   UNL     1      49.713   8.081  20.272  0.00  0.00    +0.000 C 
ATOM     14  F   UNL     1      49.322   9.278  20.791  0.00  0.00    +0.000 F 
ATOM     15  F   UNL     1      49.082   7.130  21.013  0.00  0.00    +0.000 F 
ATOM     16  F   UNL     1      51.038   7.963  20.563  0.00  0.00    +0.000 F 
ENDBRANCH  10  13
ENDBRANCH   5   7
BRANCH   1  18
ATOM     17  C   UNL     1      45.217   5.739  12.136  0.00  0.00    +0.000 C 
ATOM     18  C   UNL     1      46.557   5.666  12.036  0.00  0.00    +0.000 C 
BRANCH  17  20
ATOM     19  C   UNL     1      43.850   3.697  12.580  0.00  0.00    +0.000 C 
ATOM     20  C   UNL     1      44.241   4.740  11.504  0.00  0.00    +0.000 C 
ATOM     21  C   UNL     1      42.938   5.493  11.134  0.00  0.00    +0.000 C 
BRANCH  20  22
ATOM     22  C   UNL     1      44.852   4.112  10.234  0.00  0.00    +0.000 A 
ATOM     23  C   UNL     1      45.371   4.888   9.181  0.00  0.00    +0.000 A 
ATOM     24  C   UNL     1      45.884   4.296   8.021  0.00  0.00    +0.000 A 
ATOM     25  C   UNL     1      45.883   2.914   7.898  0.00  0.00    +0.000 A 
ATOM     26  C   UNL     1      45.389   2.117   8.920  0.00  0.00    +0.000 A 
ATOM     27  C   UNL     1      44.875   2.711  10.078  0.00  0.00    +0.000 A 
BRANCH  25  28
ATOM     28  O   UNL     1      46.357   2.302   6.778  0.00  0.00    +0.000 OA
ATOM     29  H   UNL     1      45.894   2.668   6.006  0.00  0.00    +0.000 HD
ENDBRANCH  25  28
ENDBRANCH  20  22
ENDBRANCH  17  20
ENDBRANCH   1  18
TORSDOF 6
ENDMDL
