MODEL 1
REMARK VINA RESULT:    -7.993      0.000      0.000
REMARK INTER + INTRA:          -9.761
REMARK INTER:                  -9.395
REMARK INTRA:                  -0.366
REMARK UNBOUND:                -0.366
REMARK  Name = 
REMARK  3 active torsions:
REMARK  status: ('A' for Active; 'I' for Inactive)
REMARK    1  A    between atoms: C_2  and  C_4
REMARK    2  A    between atoms: C_7  and  C_8
REMARK    3  A    between atoms: C_8  and  N_9
REMARK                            x       y       z     vdW  Elec       q    Type
REMARK                         _______ _______ _______ _____ _____    ______ ____
ROOT
ATOM      1  C   UNL     1      46.580   2.645   7.393  0.00  0.00    +0.000 A 
ATOM      2  C   UNL     1      46.156   3.948   7.658  0.00  0.00    +0.000 A 
ATOM      3  C   UNL     1      45.268   4.179   8.712  0.00  0.00    +0.000 A 
ATOM      4  C   UNL     1      44.813   3.095   9.464  0.00  0.00    +0.000 A 
ATOM      5  N   UNL     1      45.212   1.821   9.210  0.00  0.00    +0.000 NA
ATOM      6  C   UNL     1      46.077   1.624   8.184  0.00  0.00    +0.000 A 
ENDROOT
BRANCH   1   8
ATOM      7  N   UNL     1      47.442   3.050   5.155  0.00  0.00    +0.000 N 
ATOM      8  C   UNL     1      47.513   2.303   6.299  0.00  0.00    +0.000 C 
ATOM      9  O   UNL     1      48.338   1.408   6.418  0.00  0.00    +0.000 OA
ATOM     10  H   UNL     1      48.161   2.874   4.464  0.00  0.00    +0.000 HD
ATOM     11  H   UNL     1      46.969   3.942   5.117  0.00  0.00    +0.000 HD
ENDBRANCH   1   8
BRANCH   4  12
ATOM     12  C   UNL     1      43.825   3.304  10.597  0.00  0.00    +0.000 C 
BRANCH  12  13
ATOM     13  N   UNL     1      44.395   2.916  11.876  0.00  0.00    +0.000 N 
ATOM     14  C   UNL     1      45.282   3.759  12.517  0.00  0.00    +0.000 A 
ATOM     15  C   UNL     1      45.232   5.157  12.460  0.00  0.00    +0.000 A 
ATOM     16  N   UNL     1      46.084   5.977  13.129  0.00  0.00    +0.000 NA
ATOM     17  C   UNL     1      46.987   5.344  13.902  0.00  0.00    +0.000 A 
ATOM     18  C   UNL     1      47.044   3.964  13.982  0.00  0.00    +0.000 A 
ATOM     19  N   UNL     1      46.208   3.153  13.289  0.00  0.00    +0.000 NA
ATOM     20  H   UNL     1      44.714   1.958  11.969  0.00  0.00    +0.000 HD
ENDBRANCH  12  13
ENDBRANCH   4  12
TORSDOF 3
ENDMDL
MODEL 2
REMARK VINA RESULT:    -7.835      1.190      1.515
REMARK INTER + INTRA:          -9.576
REMARK INTER:                  -9.239
REMARK INTRA:                  -0.337
REMARK UNBOUND:                -0.366
REMARK  Name = 
REMARK  3 active torsions:
REMARK  status: ('A' for Active; 'I' for Inactive)
REMARK    1  A    between atoms: C_2  and  C_4
REMARK    2  A    between atoms: C_7  and  C_8
REMARK    3  A    between atoms: C_8  and  N_9
REMARK                            x       y       z     vdW  Elec       q    Type
REMARK                         _______ _______ _______ _____ _____    ______ ____
ROOT
ATOM      1  C   UNL     1      46.398   2.479   7.736  0.00  0.00    +0.000 A 
ATOM      2  C   UNL     1      45.643   1.792   8.688  0.00  0.00    +0.000 A 
ATOM      3  C   UNL     1      44.758   2.501   9.503  0.00  0.00    +0.000 A 
ATOM      4  C   UNL     1      44.663   3.885   9.356  0.00  0.00    +0.000 A 
ATOM      5  N   UNL     1      45.398   4.567   8.440  0.00  0.00    +0.000 NA
ATOM      6  C   UNL     1      46.247   3.855   7.657  0.00  0.00    +0.000 A 
ENDROOT
BRANCH   1   8
ATOM      7  N   UNL     1      48.439   2.550   6.416  0.00  0.00    +0.000 N 
ATOM      8  C   UNL     1      47.362   1.817   6.832  0.00  0.00    +0.000 C 
ATOM      9  O   UNL     1      47.224   0.650   6.494  0.00  0.00    +0.000 OA
ATOM     10  H   UNL     1      49.143   2.046   5.891  0.00  0.00    +0.000 HD
ATOM     11  H   UNL     1      48.722   3.407   6.870  0.00  0.00    +0.000 HD
ENDBRANCH   1   8
BRANCH   4  12
ATOM     12  C   UNL     1      43.733   4.693  10.245  0.00  0.00    +0.000 C 
BRANCH  12  13
ATOM     13  N   UNL     1      43.937   4.380  11.649  0.00  0.00    +0.000 N 
ATOM     14  C   UNL     1      45.079   4.817  12.291  0.00  0.00    +0.000 A 
ATOM     15  C   UNL     1      45.745   6.013  12.002  0.00  0.00    +0.000 A 
ATOM     16  N   UNL     1      46.844   6.453  12.670  0.00  0.00    +0.000 NA
ATOM     17  C   UNL     1      47.248   5.660  13.680  0.00  0.00    +0.000 A 
ATOM     18  C   UNL     1      46.595   4.479  13.989  0.00  0.00    +0.000 A 
ATOM     19  N   UNL     1      45.516   4.034  13.300  0.00  0.00    +0.000 NA
ATOM     20  H   UNL     1      43.722   3.436  11.949  0.00  0.00    +0.000 HD
ENDBRANCH  12  13
ENDBRANCH   4  12
TORSDOF 3
ENDMDL
MODEL 3
REMARK VINA RESULT:    -7.399      2.675      6.055
REMARK INTER + INTRA:          -9.063
REMARK INTER:                  -8.746
REMARK INTRA:                  -0.318
REMARK UNBOUND:                -0.366
REMARK  Name = 
REMARK  3 active torsions:
REMARK  status: ('A' for Active; 'I' for Inactive)
REMARK    1  A    between atoms: C_2  and  C_4
REMARK    2  A    between atoms: C_7  and  C_8
REMARK    3  A    between atoms: C_8  and  N_9
REMARK                            x       y       z     vdW  Elec       q    Type
REMARK                         _______ _______ _______ _____ _____    ______ ____
ROOT
ATOM      1  C   UNL     1      46.705   5.519  13.027  0.00  0.00    +0.000 A 
ATOM      2  C   UNL     1      46.485   6.330  11.912  0.00  0.00    +0.000 A 
ATOM      3  C   UNL     1      45.507   5.967  10.983  0.00  0.00    +0.000 A 
ATOM      4  C   UNL     1      44.784   4.791  11.184  0.00  0.00    +0.000 A 
ATOM      5  N   UNL     1      44.994   3.989  12.260  0.00  0.00    +0.000 NA
ATOM      6  C   UNL     1      45.947   4.365  13.150  0.00  0.00    +0.000 A 
ENDROOT
BRANCH   1   8
ATOM      7  N   UNL     1      47.469   5.379  15.331  0.00  0.00    +0.000 N 
ATOM      8  C   UNL     1      47.718   5.817  14.060  0.00  0.00    +0.000 C 
ATOM      9  O   UNL     1      48.755   6.405  13.788  0.00  0.00    +0.000 OA
ATOM     10  H   UNL     1      48.223   5.494  15.997  0.00  0.00    +0.000 HD
ATOM     11  H   UNL     1      46.769   4.680  15.538  0.00  0.00    +0.000 HD
ENDBRANCH   1   8
BRANCH   4  12
ATOM     12  C   UNL     1      43.734   4.350  10.180  0.00  0.00    +0.000 C 
BRANCH  12  13
ATOM     13  N   UNL     1      44.239   4.418   8.820  0.00  0.00    +0.000 N 
ATOM     14  C   UNL     1      45.175   3.499   8.387  0.00  0.00    +0.000 A 
ATOM     15  C   UNL     1      45.240   2.168   8.818  0.00  0.00    +0.000 A 
ATOM     16  N   UNL     1      46.138   1.261   8.354  0.00  0.00    +0.000 NA
ATOM     17  C   UNL     1      46.968   1.724   7.400  0.00  0.00    +0.000 A 
ATOM     18  C   UNL     1      46.912   3.032   6.951  0.00  0.00    +0.000 A 
ATOM     19  N   UNL     1      46.030   3.939   7.441  0.00  0.00    +0.000 NA
ATOM     20  H   UNL     1      44.477   5.336   8.460  0.00  0.00    +0.000 HD
ENDBRANCH  12  13
ENDBRANCH   4  12
TORSDOF 3
ENDMDL
MODEL 4
REMARK VINA RESULT:    -6.504      3.079      6.280
REMARK INTER + INTRA:          -8.011
REMARK INTER:                  -7.798
REMARK INTRA:                  -0.213
REMARK UNBOUND:                -0.366
REMARK  Name = 
REMARK  3 active torsions:
REMARK  status: ('A' for Active; 'I' for Inactive)
REMARK    1  A    between atoms: C_2  and  C_4
REMARK    2  A    between atoms: C_7  and  C_8
REMARK    3  A    between atoms: C_8  and  N_9
REMARK                            x       y       z     vdW  Elec       q    Type
REMARK                         _______ _______ _______ _____ _____    ______ ____
ROOT
ATOM      1  C   UNL     1      45.321   7.016  12.324  0.00  0.00    +0.000 A 
ATOM      2  C   UNL     1      46.068   5.849  12.498  0.00  0.00    +0.000 A 
ATOM      3  C   UNL     1      45.644   4.667  11.887  0.00  0.00    +0.000 A 
ATOM      4  C   UNL     1      44.472   4.677  11.131  0.00  0.00    +0.000 A 
ATOM      5  N   UNL     1      43.731   5.803  10.961  0.00  0.00    +0.000 NA
ATOM      6  C   UNL     1      44.166   6.939  11.561  0.00  0.00    +0.000 A 
ENDROOT
BRANCH   1   8
ATOM      7  N   UNL     1      44.814   9.352  12.767  0.00  0.00    +0.000 N 
ATOM      8  C   UNL     1      45.686   8.312  12.933  0.00  0.00    +0.000 C 
ATOM      9  O   UNL     1      46.711   8.445  13.587  0.00  0.00    +0.000 OA
ATOM     10  H   UNL     1      45.027  10.196  13.284  0.00  0.00    +0.000 HD
ATOM     11  H   UNL     1      43.859   9.219  12.469  0.00  0.00    +0.000 HD
ENDBRANCH   1   8
BRANCH   4  12
ATOM     12  C   UNL     1      43.966   3.404  10.477  0.00  0.00    +0.000 C 
BRANCH  12  13
ATOM     13  N   UNL     1      45.059   2.509  10.139  0.00  0.00    +0.000 N 
ATOM     14  C   UNL     1      45.614   2.550   8.875  0.00  0.00    +0.000 A 
ATOM     15  C   UNL     1      45.731   3.707   8.095  0.00  0.00    +0.000 A 
ATOM     16  N   UNL     1      46.319   3.744   6.871  0.00  0.00    +0.000 NA
ATOM     17  C   UNL     1      46.827   2.570   6.452  0.00  0.00    +0.000 A 
ATOM     18  C   UNL     1      46.733   1.418   7.213  0.00  0.00    +0.000 A 
ATOM     19  N   UNL     1      46.120   1.384   8.422  0.00  0.00    +0.000 NA
ATOM     20  H   UNL     1      44.977   1.544  10.439  0.00  0.00    +0.000 HD
ENDBRANCH  12  13
ENDBRANCH   4  12
TORSDOF 3
ENDMDL
MODEL 5
REMARK VINA RESULT:    -6.493      3.205      6.469
REMARK INTER + INTRA:          -7.998
REMARK INTER:                  -7.715
REMARK INTRA:                  -0.283
REMARK UNBOUND:                -0.366
REMARK  Name = 
REMARK  3 active torsions:
REMARK  status: ('A' for Active; 'I' for Inactive)
REMARK    1  A    between atoms: C_2  and  C_4
REMARK    2  A    between atoms: C_7  and  C_8
REMARK    3  A    between atoms: C_8  and  N_9
REMARK                            x       y       z     vdW  Elec       q    Type
REMARK                         _______ _______ _______ _____ _____    ______ ____
ROOT
ATOM      1  C   UNL     1      45.188   7.280  12.247  0.00  0.00    +0.000 A 
ATOM      2  C   UNL     1      43.958   7.223  11.589  0.00  0.00    +0.000 A 
ATOM      3  C   UNL     1      43.571   6.038  10.960  0.00  0.00    +0.000 A 
ATOM      4  C   UNL     1      44.434   4.942  10.991  0.00  0.00    +0.000 A 
ATOM      5  N   UNL     1      45.637   4.986  11.620  0.00  0.00    +0.000 NA
ATOM      6  C   UNL     1      45.988   6.149  12.227  0.00  0.00    +0.000 A 
ENDROOT
BRANCH   1   8
ATOM      7  N   UNL     1      44.900   9.609  12.885  0.00  0.00    +0.000 N 
ATOM      8  C   UNL     1      45.684   8.490  12.936  0.00  0.00    +0.000 C 
ATOM      9  O   UNL     1      46.739   8.486  13.556  0.00  0.00    +0.000 OA
ATOM     10  H   UNL     1      45.202  10.389  13.454  0.00  0.00    +0.000 HD
ATOM     11  H   UNL     1      43.927   9.579  12.616  0.00  0.00    +0.000 HD
ENDBRANCH   1   8
BRANCH   4  12
ATOM     12  C   UNL     1      44.060   3.646  10.293  0.00  0.00    +0.000 C 
BRANCH  12  13
ATOM     13  N   UNL     1      44.244   3.746   8.856  0.00  0.00    +0.000 N 
ATOM     14  C   UNL     1      45.249   3.025   8.240  0.00  0.00    +0.000 A 
ATOM     15  C   UNL     1      45.695   1.766   8.658  0.00  0.00    +0.000 A 
ATOM     16  N   UNL     1      46.655   1.047   8.019  0.00  0.00    +0.000 NA
ATOM     17  C   UNL     1      47.146   1.624   6.906  0.00  0.00    +0.000 A 
ATOM     18  C   UNL     1      46.710   2.863   6.469  0.00  0.00    +0.000 A 
ATOM     19  N   UNL     1      45.770   3.585   7.128  0.00  0.00    +0.000 NA
ATOM     20  H   UNL     1      44.193   4.671   8.445  0.00  0.00    +0.000 HD
ENDBRANCH  12  13
ENDBRANCH   4  12
TORSDOF 3
ENDMDL
MODEL 6
REMARK VINA RESULT:    -6.479      2.039      2.546
REMARK INTER + INTRA:          -7.982
REMARK INTER:                  -7.701
REMARK INTRA:                  -0.281
REMARK UNBOUND:                -0.366
REMARK  Name = 
REMARK  3 active torsions:
REMARK  status: ('A' for Active; 'I' for Inactive)
REMARK    1  A    between atoms: C_2  and  C_4
REMARK    2  A    between atoms: C_7  and  C_8
REMARK    3  A    between atoms: C_8  and  N_9
REMARK                            x       y       z     vdW  Elec       q    Type
REMARK                         _______ _______ _______ _____ _____    ______ ____
ROOT
ATOM      1  C   UNL     1      46.251   2.208   7.943  0.00  0.00    +0.000 A 
ATOM      2  C   UNL     1      45.345   1.738   8.895  0.00  0.00    +0.000 A 
ATOM      3  C   UNL     1      44.540   2.648   9.584  0.00  0.00    +0.000 A 
ATOM      4  C   UNL     1      44.675   4.010   9.314  0.00  0.00    +0.000 A 
ATOM      5  N   UNL     1      45.559   4.482   8.397  0.00  0.00    +0.000 NA
ATOM      6  C   UNL     1      46.327   3.576   7.739  0.00  0.00    +0.000 A 
ENDROOT
BRANCH   1   8
ATOM      7  N   UNL     1      46.955  -0.026   7.289  0.00  0.00    +0.000 N 
ATOM      8  C   UNL     1      47.146   1.323   7.168  0.00  0.00    +0.000 C 
ATOM      9  O   UNL     1      48.004   1.774   6.423  0.00  0.00    +0.000 OA
ATOM     10  H   UNL     1      47.501  -0.610   6.668  0.00  0.00    +0.000 HD
ATOM     11  H   UNL     1      46.111  -0.423   7.677  0.00  0.00    +0.000 HD
ENDBRANCH   1   8
BRANCH   4  12
ATOM     12  C   UNL     1      43.839   5.031  10.064  0.00  0.00    +0.000 C 
BRANCH  12  13
ATOM     13  N   UNL     1      44.288   5.179  11.438  0.00  0.00    +0.000 N 
ATOM     14  C   UNL     1      44.891   6.354  11.841  0.00  0.00    +0.000 A 
ATOM     15  C   UNL     1      44.575   7.622  11.339  0.00  0.00    +0.000 A 
ATOM     16  N   UNL     1      45.145   8.777  11.773  0.00  0.00    +0.000 NA
ATOM     17  C   UNL     1      46.037   8.627  12.771  0.00  0.00    +0.000 A 
ATOM     18  C   UNL     1      46.354   7.383  13.289  0.00  0.00    +0.000 A 
ATOM     19  N   UNL     1      45.801   6.233  12.830  0.00  0.00    +0.000 NA
ATOM     20  H   UNL     1      44.773   4.392  11.854  0.00  0.00    +0.000 HD
ENDBRANCH  12  13
ENDBRANCH   4  12
TORSDOF 3
ENDMDL
MODEL 7
REMARK VINA RESULT:    -6.026      3.264      4.853
REMARK INTER + INTRA:          -7.449
REMARK INTER:                  -7.215
REMARK INTRA:                  -0.234
REMARK UNBOUND:                -0.366
REMARK  Name = 
REMARK  3 active torsions:
REMARK  status: ('A' for Active; 'I' for Inactive)
REMARK    1  A    between atoms: C_2  and  C_4
REMARK    2  A    between atoms: C_7  and  C_8
REMARK    3  A    between atoms: C_8  and  N_9
REMARK                            x       y       z     vdW  Elec       q    Type
REMARK                         _______ _______ _______ _____ _____    ______ ____
ROOT
ATOM      1  C   UNL     1      45.016   4.036  10.950  0.00  0.00    +0.000 A 
ATOM      2  C   UNL     1      45.524   5.335  11.006  0.00  0.00    +0.000 A 
ATOM      3  C   UNL     1      46.233   5.746  12.137  0.00  0.00    +0.000 A 
ATOM      4  C   UNL     1      46.401   4.850  13.193  0.00  0.00    +0.000 A 
ATOM      5  N   UNL     1      45.905   3.586  13.155  0.00  0.00    +0.000 NA
ATOM      6  C   UNL     1      45.223   3.210  12.044  0.00  0.00    +0.000 A 
ENDROOT
BRANCH   1   8
ATOM      7  N   UNL     1      43.914   4.399   8.813  0.00  0.00    +0.000 N 
ATOM      8  C   UNL     1      44.251   3.513   9.799  0.00  0.00    +0.000 C 
ATOM      9  O   UNL     1      43.956   2.329   9.711  0.00  0.00    +0.000 OA
ATOM     10  H   UNL     1      43.490   4.001   7.984  0.00  0.00    +0.000 HD
ATOM     11  H   UNL     1      44.353   5.304   8.722  0.00  0.00    +0.000 HD
ENDBRANCH   1   8
BRANCH   4  12
ATOM     12  C   UNL     1      47.140   5.271  14.451  0.00  0.00    +0.000 C 
BRANCH  12  13
ATOM     13  N   UNL     1      46.811   4.409  15.573  0.00  0.00    +0.000 N 
ATOM     14  C   UNL     1      47.664   4.337  16.657  0.00  0.00    +0.000 A 
ATOM     15  C   UNL     1      48.442   5.401  17.128  0.00  0.00    +0.000 A 
ATOM     16  N   UNL     1      49.245   5.331  18.222  0.00  0.00    +0.000 NA
ATOM     17  C   UNL     1      49.223   4.148  18.865  0.00  0.00    +0.000 A 
ATOM     18  C   UNL     1      48.451   3.088  18.422  0.00  0.00    +0.000 A 
ATOM     19  N   UNL     1      47.673   3.158  17.314  0.00  0.00    +0.000 NA
ATOM     20  H   UNL     1      46.461   3.482  15.358  0.00  0.00    +0.000 HD
ENDBRANCH  12  13
ENDBRANCH   4  12
TORSDOF 3
ENDMDL
MODEL 8
REMARK VINA RESULT:    -5.791      4.718      8.456
REMARK INTER + INTRA:          -7.173
REMARK INTER:                  -6.937
REMARK INTRA:                  -0.236
REMARK UNBOUND:                -0.366
REMARK  Name = 
REMARK  3 active torsions:
REMARK  status: ('A' for Active; 'I' for Inactive)
REMARK    1  A    between atoms: C_2  and  C_4
REMARK    2  A    between atoms: C_7  and  C_8
REMARK    3  A    between atoms: C_8  and  N_9
REMARK                            x       y       z     vdW  Elec       q    Type
REMARK                         _______ _______ _______ _____ _____    ______ ____
ROOT
ATOM      1  C   UNL     1      48.516   4.596  18.130  0.00  0.00    +0.000 A 
ATOM      2  C   UNL     1      47.545   3.707  17.663  0.00  0.00    +0.000 A 
ATOM      3  C   UNL     1      47.085   3.823  16.349  0.00  0.00    +0.000 A 
ATOM      4  C   UNL     1      47.597   4.836  15.539  0.00  0.00    +0.000 A 
ATOM      5  N   UNL     1      48.536   5.713  15.983  0.00  0.00    +0.000 NA
ATOM      6  C   UNL     1      48.968   5.577  17.262  0.00  0.00    +0.000 A 
ENDROOT
BRANCH   1   8
ATOM      7  N   UNL     1      48.511   3.650  20.370  0.00  0.00    +0.000 N 
ATOM      8  C   UNL     1      49.060   4.555  19.503  0.00  0.00    +0.000 C 
ATOM      9  O   UNL     1      49.985   5.277  19.847  0.00  0.00    +0.000 OA
ATOM     10  H   UNL     1      48.971   3.561  21.268  0.00  0.00    +0.000 HD
ATOM     11  H   UNL     1      47.942   2.876  20.060  0.00  0.00    +0.000 HD
ENDBRANCH   1   8
BRANCH   4  12
ATOM     12  C   UNL     1      47.100   5.010  14.115  0.00  0.00    +0.000 C 
BRANCH  12  13
ATOM     13  N   UNL     1      46.370   3.839  13.661  0.00  0.00    +0.000 N 
ATOM     14  C   UNL     1      45.375   3.975  12.713  0.00  0.00    +0.000 A 
ATOM     15  C   UNL     1      45.385   4.920  11.680  0.00  0.00    +0.000 A 
ATOM     16  N   UNL     1      44.421   5.016  10.727  0.00  0.00    +0.000 NA
ATOM     17  C   UNL     1      43.440   4.098  10.820  0.00  0.00    +0.000 A 
ATOM     18  C   UNL     1      43.419   3.148  11.826  0.00  0.00    +0.000 A 
ATOM     19  N   UNL     1      44.371   3.077  12.790  0.00  0.00    +0.000 NA
ATOM     20  H   UNL     1      46.074   3.176  14.368  0.00  0.00    +0.000 HD
ENDBRANCH  12  13
ENDBRANCH   4  12
TORSDOF 3
ENDMDL
MODEL 9
REMARK VINA RESULT:    -5.773      4.870      8.219
REMARK INTER + INTRA:          -7.152
REMARK INTER:                  -6.884
REMARK INTRA:                  -0.268
REMARK UNBOUND:                -0.366
REMARK  Name = 
REMARK  3 active torsions:
REMARK  status: ('A' for Active; 'I' for Inactive)
REMARK    1  A    between atoms: C_2  and  C_4
REMARK    2  A    between atoms: C_7  and  C_8
REMARK    3  A    between atoms: C_8  and  N_9
REMARK                            x       y       z     vdW  Elec       q    Type
REMARK                         _______ _______ _______ _____ _____    ______ ____
ROOT
ATOM      1  C   UNL     1      50.985   2.358  17.423  0.00  0.00    +0.000 A 
ATOM      2  C   UNL     1      50.777   3.680  17.821  0.00  0.00    +0.000 A 
ATOM      3  C   UNL     1      49.607   4.337  17.432  0.00  0.00    +0.000 A 
ATOM      4  C   UNL     1      48.681   3.659  16.639  0.00  0.00    +0.000 A 
ATOM      5  N   UNL     1      48.876   2.375  16.238  0.00  0.00    +0.000 NA
ATOM      6  C   UNL     1      50.018   1.758  16.632  0.00  0.00    +0.000 A 
ENDROOT
BRANCH   1   8
ATOM      7  N   UNL     1      52.014   0.282  18.161  0.00  0.00    +0.000 N 
ATOM      8  C   UNL     1      52.192   1.584  17.781  0.00  0.00    +0.000 C 
ATOM      9  O   UNL     1      53.310   2.073  17.711  0.00  0.00    +0.000 OA
ATOM     10  H   UNL     1      52.858  -0.261  18.293  0.00  0.00    +0.000 HD
ATOM     11  H   UNL     1      51.158  -0.224  17.982  0.00  0.00    +0.000 HD
ENDBRANCH   1   8
BRANCH   4  12
ATOM     12  C   UNL     1      47.413   4.350  16.173  0.00  0.00    +0.000 C 
BRANCH  12  13
ATOM     13  N   UNL     1      46.836   3.680  15.020  0.00  0.00    +0.000 N 
ATOM     14  C   UNL     1      46.494   4.412  13.900  0.00  0.00    +0.000 A 
ATOM     15  C   UNL     1      47.178   5.550  13.456  0.00  0.00    +0.000 A 
ATOM     16  N   UNL     1      46.859   6.238  12.328  0.00  0.00    +0.000 NA
ATOM     17  C   UNL     1      45.833   5.724  11.623  0.00  0.00    +0.000 A 
ATOM     18  C   UNL     1      45.153   4.593  12.039  0.00  0.00    +0.000 A 
ATOM     19  N   UNL     1      45.461   3.929  13.180  0.00  0.00    +0.000 NA
ATOM     20  H   UNL     1      46.121   2.984  15.199  0.00  0.00    +0.000 HD
ENDBRANCH  12  13
ENDBRANCH   4  12
TORSDOF 3
ENDMDL
