MODEL 1
REMARK VINA RESULT:    -8.493      0.000      0.000
REMARK INTER + INTRA:         -13.441
REMARK INTER:                 -12.713
REMARK INTRA:                  -0.728
REMARK UNBOUND:                -0.728
REMARK  Name = 
REMARK  9 active torsions:
REMARK  status: ('A' for Active; 'I' for Inactive)
REMARK    1  A    between atoms: C_2  and  C_22
REMARK    2  A    between atoms: N_3  and  C_4
REMARK    3  A    between atoms: C_4  and  C_5
REMARK    4  A    between atoms: C_8  and  C_9
REMARK    5  A    between atoms: C_9  and  N_10
REMARK    6  A    between atoms: N_10  and  CA_11
REMARK    7  A    between atoms: CA_11  and  C_12
REMARK    8  A    between atoms: CA_11  and  C_14
REMARK    9  A    between atoms: C_12  and  O_13
REMARK                            x       y       z     vdW  Elec       q    Type
REMARK                         _______ _______ _______ _____ _____    ______ ____
ROOT
ATOM      1  C   UNL     1      48.022   5.851  14.960  0.00  0.00    +0.000 A 
ATOM      2  C   UNL     1      47.489   6.339  13.777  0.00  0.00    +0.000 A 
ATOM      3  C   UNL     1      46.701   5.499  13.002  0.00  0.00    +0.000 A 
ATOM      4  C   UNL     1      46.464   4.211  13.452  0.00  0.00    +0.000 A 
ATOM      5  N   UNL     1      46.985   3.762  14.617  0.00  0.00    +0.000 NA
ATOM      6  N   UNL     1      47.767   4.589  15.376  0.00  0.00    +0.000 NA
ENDROOT
BRANCH   1   7
ATOM      7  C   UNL     1      48.890   6.715  15.836  0.00  0.00    +0.000 C 
BRANCH   7  10
ATOM      8  O   UNL     1      49.044   5.519  18.375  0.00  0.00    +0.000 OA
ATOM      9  C   UNL     1      49.993   5.392  17.604  0.00  0.00    +0.000 C 
ATOM     10  N   UNL     1      50.019   5.992  16.374  0.00  0.00    +0.000 N 
ATOM     11  H   UNL     1      50.710   5.694  15.691  0.00  0.00    +0.000 HD
BRANCH   9  12
ATOM     12  C   UNL     1      51.187   4.623  17.974  0.00  0.00    +0.000 A 
ATOM     13  C   UNL     1      52.250   5.250  18.610  0.00  0.00    +0.000 A 
ATOM     14  S   UNL     1      53.548   4.200  18.960  0.00  0.00    +0.000 S 
ATOM     15  C   UNL     1      52.717   2.863  18.312  0.00  0.00    +0.000 A 
ATOM     16  N   UNL     1      53.265   1.618  18.329  0.00  0.00    +0.000 NA
ATOM     17  C   UNL     1      52.506   0.695  17.841  0.00  0.00    +0.000 A 
ATOM     18  N   UNL     1      51.254   0.907  17.325  0.00  0.00    +0.000 N 
ATOM     19  C   UNL     1      50.696   2.154  17.214  0.00  0.00    +0.000 A 
ATOM     20  O   UNL     1      49.640   2.331  16.617  0.00  0.00    +0.000 OA
ATOM     21  C   UNL     1      51.483   3.223  17.802  0.00  0.00    +0.000 A 
ATOM     22  H   UNL     1      50.722   0.142  16.925  0.00  0.00    +0.000 HD
ENDBRANCH   9  12
ENDBRANCH   7  10
ENDBRANCH   1   7
BRANCH   4  23
ATOM     23  C   UNL     1      45.600   3.255  12.667  0.00  0.00    +0.000 C 
BRANCH  23  24
ATOM     24  N   UNL     1      44.166   3.342  12.966  0.00  0.00    +0.000 NA
ATOM     25  H   UNL     1      44.067   4.044  13.707  0.00  0.00    +0.000 HD
BRANCH  24  26
ATOM     26  CA  UNL     1      43.315   3.796  11.838  0.00  0.00    +0.000 C 
BRANCH  26  27
ATOM     27  C   UNL     1      44.066   3.658  10.504  0.00  0.00    +0.000 A 
ATOM     28  C   UNL     1      44.710   4.748   9.914  0.00  0.00    +0.000 A 
ATOM     29  C   UNL     1      45.410   4.562   8.726  0.00  0.00    +0.000 A 
ATOM     30  C   UNL     1      45.439   3.303   8.143  0.00  0.00    +0.000 A 
ATOM     31  C   UNL     1      44.746   2.280   8.767  0.00  0.00    +0.000 A 
ATOM     32  N   UNL     1      44.053   2.431   9.918  0.00  0.00    +0.000 NA
ENDBRANCH  26  27
BRANCH  26  33
ATOM     33  C   UNL     1      42.801   5.254  11.966  0.00  0.00    +0.000 C 
BRANCH  33  34
ATOM     34  O   UNL     1      42.934   5.782  13.289  0.00  0.00    +0.000 OA
ATOM     35  H   UNL     1      42.102   6.254  13.498  0.00  0.00    +0.000 HD
ENDBRANCH  33  34
ENDBRANCH  26  33
ENDBRANCH  24  26
ENDBRANCH  23  24
ENDBRANCH   4  23
TORSDOF 9
ENDMDL
MODEL 2
REMARK VINA RESULT:    -8.250      2.763      3.403
REMARK INTER + INTRA:         -13.078
REMARK INTER:                 -12.072
REMARK INTRA:                  -1.006
REMARK UNBOUND:                -0.728
REMARK  Name = 
REMARK  9 active torsions:
REMARK  status: ('A' for Active; 'I' for Inactive)
REMARK    1  A    between atoms: C_2  and  C_22
REMARK    2  A    between atoms: N_3  and  C_4
REMARK    3  A    between atoms: C_4  and  C_5
REMARK    4  A    between atoms: C_8  and  C_9
REMARK    5  A    between atoms: C_9  and  N_10
REMARK    6  A    between atoms: N_10  and  CA_11
REMARK    7  A    between atoms: CA_11  and  C_12
REMARK    8  A    between atoms: CA_11  and  C_14
REMARK    9  A    between atoms: C_12  and  O_13
REMARK                            x       y       z     vdW  Elec       q    Type
REMARK                         _______ _______ _______ _____ _____    ______ ____
ROOT
ATOM      1  C   UNL     1      46.422   7.678  13.000  0.00  0.00    +0.000 A 
ATOM      2  C   UNL     1      45.769   8.466  12.064  0.00  0.00    +0.000 A 
ATOM      3  C   UNL     1      44.671   7.941  11.397  0.00  0.00    +0.000 A 
ATOM      4  C   UNL     1      44.261   6.654  11.705  0.00  0.00    +0.000 A 
ATOM      5  N   UNL     1      44.908   5.909  12.631  0.00  0.00    +0.000 NA
ATOM      6  N   UNL     1      45.994   6.426  13.283  0.00  0.00    +0.000 NA
ENDROOT
BRANCH   1   7
ATOM      7  C   UNL     1      47.622   8.193  13.748  0.00  0.00    +0.000 C 
BRANCH   7  10
ATOM      8  O   UNL     1      50.135   7.143  14.442  0.00  0.00    +0.000 OA
ATOM      9  C   UNL     1      49.191   6.969  15.209  0.00  0.00    +0.000 C 
ATOM     10  N   UNL     1      47.924   7.398  14.916  0.00  0.00    +0.000 N 
ATOM     11  H   UNL     1      47.227   7.428  15.654  0.00  0.00    +0.000 HD
BRANCH   9  12
ATOM     12  C   UNL     1      49.351   6.244  16.475  0.00  0.00    +0.000 A 
ATOM     13  C   UNL     1      50.195   6.740  17.460  0.00  0.00    +0.000 A 
ATOM     14  S   UNL     1      50.255   5.763  18.858  0.00  0.00    +0.000 S 
ATOM     15  C   UNL     1      49.123   4.669  18.213  0.00  0.00    +0.000 A 
ATOM     16  N   UNL     1      48.696   3.594  18.929  0.00  0.00    +0.000 NA
ATOM     17  C   UNL     1      47.807   2.873  18.330  0.00  0.00    +0.000 A 
ATOM     18  N   UNL     1      47.318   3.123  17.075  0.00  0.00    +0.000 N 
ATOM     19  C   UNL     1      47.777   4.147  16.287  0.00  0.00    +0.000 A 
ATOM     20  O   UNL     1      47.427   4.259  15.117  0.00  0.00    +0.000 OA
ATOM     21  C   UNL     1      48.735   5.024  16.933  0.00  0.00    +0.000 A 
ATOM     22  H   UNL     1      46.644   2.498  16.647  0.00  0.00    +0.000 HD
ENDBRANCH   9  12
ENDBRANCH   7  10
ENDBRANCH   1   7
BRANCH   4  23
ATOM     23  C   UNL     1      43.063   6.032  11.030  0.00  0.00    +0.000 C 
BRANCH  23  24
ATOM     24  N   UNL     1      43.389   5.017  10.022  0.00  0.00    +0.000 NA
ATOM     25  H   UNL     1      43.857   5.511   9.255  0.00  0.00    +0.000 HD
BRANCH  24  26
ATOM     26  CA  UNL     1      44.326   3.959  10.476  0.00  0.00    +0.000 C 
BRANCH  26  27
ATOM     27  C   UNL     1      45.166   3.437   9.300  0.00  0.00    +0.000 A 
ATOM     28  C   UNL     1      45.418   2.073   9.134  0.00  0.00    +0.000 A 
ATOM     29  C   UNL     1      46.151   1.647   8.030  0.00  0.00    +0.000 A 
ATOM     30  C   UNL     1      46.630   2.587   7.128  0.00  0.00    +0.000 A 
ATOM     31  C   UNL     1      46.372   3.923   7.380  0.00  0.00    +0.000 A 
ATOM     32  N   UNL     1      45.668   4.368   8.446  0.00  0.00    +0.000 NA
ENDBRANCH  26  27
BRANCH  26  33
ATOM     33  C   UNL     1      43.644   2.750  11.170  0.00  0.00    +0.000 C 
BRANCH  33  34
ATOM     34  O   UNL     1      43.931   2.671  12.569  0.00  0.00    +0.000 OA
ATOM     35  H   UNL     1      44.224   1.756  12.754  0.00  0.00    +0.000 HD
ENDBRANCH  33  34
ENDBRANCH  26  33
ENDBRANCH  24  26
ENDBRANCH  23  24
ENDBRANCH   4  23
TORSDOF 9
ENDMDL
MODEL 3
REMARK VINA RESULT:    -8.153      2.899      3.752
REMARK INTER + INTRA:         -12.932
REMARK INTER:                 -11.996
REMARK INTRA:                  -0.936
REMARK UNBOUND:                -0.728
REMARK  Name = 
REMARK  9 active torsions:
REMARK  status: ('A' for Active; 'I' for Inactive)
REMARK    1  A    between atoms: C_2  and  C_22
REMARK    2  A    between atoms: N_3  and  C_4
REMARK    3  A    between atoms: C_4  and  C_5
REMARK    4  A    between atoms: C_8  and  C_9
REMARK    5  A    between atoms: C_9  and  N_10
REMARK    6  A    between atoms: N_10  and  CA_11
REMARK    7  A    between atoms: CA_11  and  C_12
REMARK    8  A    between atoms: CA_11  and  C_14
REMARK    9  A    between atoms: C_12  and  O_13
REMARK                            x       y       z     vdW  Elec       q    Type
REMARK                         _______ _______ _______ _____ _____    ______ ____
ROOT
ATOM      1  C   UNL     1      47.106   6.199  13.347  0.00  0.00    +0.000 A 
ATOM      2  C   UNL     1      47.136   4.903  13.840  0.00  0.00    +0.000 A 
ATOM      3  C   UNL     1      46.289   3.955  13.282  0.00  0.00    +0.000 A 
ATOM      4  C   UNL     1      45.460   4.338  12.241  0.00  0.00    +0.000 A 
ATOM      5  N   UNL     1      45.458   5.607  11.769  0.00  0.00    +0.000 NA
ATOM      6  N   UNL     1      46.287   6.541  12.324  0.00  0.00    +0.000 NA
ENDROOT
BRANCH   1   7
ATOM      7  C   UNL     1      47.995   7.269  13.919  0.00  0.00    +0.000 C 
BRANCH   7  10
ATOM      8  O   UNL     1      50.071   6.313  15.555  0.00  0.00    +0.000 OA
ATOM      9  C   UNL     1      49.087   6.821  16.087  0.00  0.00    +0.000 C 
ATOM     10  N   UNL     1      48.010   7.257  15.364  0.00  0.00    +0.000 N 
ATOM     11  H   UNL     1      47.322   7.857  15.810  0.00  0.00    +0.000 HD
BRANCH   9  12
ATOM     12  C   UNL     1      48.982   6.950  17.546  0.00  0.00    +0.000 A 
ATOM     13  C   UNL     1      48.951   8.208  18.133  0.00  0.00    +0.000 A 
ATOM     14  S   UNL     1      48.828   8.162  19.834  0.00  0.00    +0.000 S 
ATOM     15  C   UNL     1      48.768   6.461  19.841  0.00  0.00    +0.000 A 
ATOM     16  N   UNL     1      48.626   5.766  21.001  0.00  0.00    +0.000 NA
ATOM     17  C   UNL     1      48.555   4.485  20.851  0.00  0.00    +0.000 A 
ATOM     18  N   UNL     1      48.628   3.837  19.647  0.00  0.00    +0.000 N 
ATOM     19  C   UNL     1      48.851   4.490  18.461  0.00  0.00    +0.000 A 
ATOM     20  O   UNL     1      49.056   3.874  17.422  0.00  0.00    +0.000 OA
ATOM     21  C   UNL     1      48.880   5.937  18.565  0.00  0.00    +0.000 A 
ATOM     22  H   UNL     1      48.600   2.824  19.600  0.00  0.00    +0.000 HD
ENDBRANCH   9  12
ENDBRANCH   7  10
ENDBRANCH   1   7
BRANCH   4  23
ATOM     23  C   UNL     1      44.531   3.352  11.578  0.00  0.00    +0.000 C 
BRANCH  23  24
ATOM     24  N   UNL     1      45.137   2.582  10.484  0.00  0.00    +0.000 NA
ATOM     25  H   UNL     1      44.899   1.600  10.656  0.00  0.00    +0.000 HD
BRANCH  24  26
ATOM     26  CA  UNL     1      44.627   2.909   9.129  0.00  0.00    +0.000 C 
BRANCH  26  27
ATOM     27  C   UNL     1      45.683   2.587   8.060  0.00  0.00    +0.000 A 
ATOM     28  C   UNL     1      46.433   1.409   8.109  0.00  0.00    +0.000 A 
ATOM     29  C   UNL     1      47.348   1.144   7.095  0.00  0.00    +0.000 A 
ATOM     30  C   UNL     1      47.510   2.063   6.067  0.00  0.00    +0.000 A 
ATOM     31  C   UNL     1      46.758   3.224   6.107  0.00  0.00    +0.000 A 
ATOM     32  N   UNL     1      45.866   3.513   7.081  0.00  0.00    +0.000 NA
ENDBRANCH  26  27
BRANCH  26  33
ATOM     33  C   UNL     1      44.177   4.383   8.949  0.00  0.00    +0.000 C 
BRANCH  33  34
ATOM     34  O   UNL     1      45.267   5.309   8.962  0.00  0.00    +0.000 OA
ATOM     35  H   UNL     1      45.347   5.651   9.875  0.00  0.00    +0.000 HD
ENDBRANCH  33  34
ENDBRANCH  26  33
ENDBRANCH  24  26
ENDBRANCH  23  24
ENDBRANCH   4  23
TORSDOF 9
ENDMDL
MODEL 4
REMARK VINA RESULT:    -8.004      1.704      2.424
REMARK INTER + INTRA:         -12.710
REMARK INTER:                 -11.878
REMARK INTRA:                  -0.832
REMARK UNBOUND:                -0.728
REMARK  Name = 
REMARK  9 active torsions:
REMARK  status: ('A' for Active; 'I' for Inactive)
REMARK    1  A    between atoms: C_2  and  C_22
REMARK    2  A    between atoms: N_3  and  C_4
REMARK    3  A    between atoms: C_4  and  C_5
REMARK    4  A    between atoms: C_8  and  C_9
REMARK    5  A    between atoms: C_9  and  N_10
REMARK    6  A    between atoms: N_10  and  CA_11
REMARK    7  A    between atoms: CA_11  and  C_12
REMARK    8  A    between atoms: CA_11  and  C_14
REMARK    9  A    between atoms: C_12  and  O_13
REMARK                            x       y       z     vdW  Elec       q    Type
REMARK                         _______ _______ _______ _____ _____    ______ ____
ROOT
ATOM      1  C   UNL     1      46.407   4.784  14.270  0.00  0.00    +0.000 A 
ATOM      2  C   UNL     1      47.358   5.545  13.607  0.00  0.00    +0.000 A 
ATOM      3  C   UNL     1      47.140   5.877  12.276  0.00  0.00    +0.000 A 
ATOM      4  C   UNL     1      45.972   5.448  11.669  0.00  0.00    +0.000 A 
ATOM      5  N   UNL     1      45.053   4.717  12.342  0.00  0.00    +0.000 NA
ATOM      6  N   UNL     1      45.272   4.385  13.650  0.00  0.00    +0.000 NA
ENDROOT
BRANCH   1   7
ATOM      7  C   UNL     1      46.595   4.388  15.710  0.00  0.00    +0.000 C 
BRANCH   7  10
ATOM      8  O   UNL     1      47.628   4.867  18.279  0.00  0.00    +0.000 OA
ATOM      9  C   UNL     1      48.404   4.545  17.382  0.00  0.00    +0.000 C 
ATOM     10  N   UNL     1      47.988   4.351  16.092  0.00  0.00    +0.000 N 
ATOM     11  H   UNL     1      48.606   3.884  15.436  0.00  0.00    +0.000 HD
BRANCH   9  12
ATOM     12  C   UNL     1      49.843   4.391  17.627  0.00  0.00    +0.000 A 
ATOM     13  C   UNL     1      50.591   5.470  18.080  0.00  0.00    +0.000 A 
ATOM     14  S   UNL     1      52.243   5.104  18.305  0.00  0.00    +0.000 S 
ATOM     15  C   UNL     1      52.005   3.482  17.848  0.00  0.00    +0.000 A 
ATOM     16  N   UNL     1      53.033   2.591  17.856  0.00  0.00    +0.000 NA
ATOM     17  C   UNL     1      52.699   1.389  17.524  0.00  0.00    +0.000 A 
ATOM     18  N   UNL     1      51.433   1.001  17.172  0.00  0.00    +0.000 N 
ATOM     19  C   UNL     1      50.385   1.880  17.072  0.00  0.00    +0.000 A 
ATOM     20  O   UNL     1      49.302   1.533  16.616  0.00  0.00    +0.000 OA
ATOM     21  C   UNL     1      50.692   3.235  17.491  0.00  0.00    +0.000 A 
ATOM     22  H   UNL     1      51.244   0.046  16.889  0.00  0.00    +0.000 HD
ENDBRANCH   9  12
ENDBRANCH   7  10
ENDBRANCH   1   7
BRANCH   4  23
ATOM     23  C   UNL     1      45.666   5.792  10.232  0.00  0.00    +0.000 C 
BRANCH  23  24
ATOM     24  N   UNL     1      44.849   4.797   9.527  0.00  0.00    +0.000 NA
ATOM     25  H   UNL     1      44.935   5.010   8.527  0.00  0.00    +0.000 HD
BRANCH  24  26
ATOM     26  CA  UNL     1      45.287   3.390   9.698  0.00  0.00    +0.000 C 
BRANCH  26  27
ATOM     27  C   UNL     1      45.954   2.869   8.416  0.00  0.00    +0.000 A 
ATOM     28  C   UNL     1      46.172   3.704   7.317  0.00  0.00    +0.000 A 
ATOM     29  C   UNL     1      46.817   3.195   6.194  0.00  0.00    +0.000 A 
ATOM     30  C   UNL     1      47.213   1.865   6.181  0.00  0.00    +0.000 A 
ATOM     31  C   UNL     1      46.930   1.090   7.292  0.00  0.00    +0.000 A 
ATOM     32  N   UNL     1      46.301   1.554   8.396  0.00  0.00    +0.000 NA
ENDBRANCH  26  27
BRANCH  26  33
ATOM     33  C   UNL     1      44.155   2.408  10.100  0.00  0.00    +0.000 C 
BRANCH  33  34
ATOM     34  O   UNL     1      43.208   2.983  11.005  0.00  0.00    +0.000 OA
ATOM     35  H   UNL     1      42.411   2.416  10.989  0.00  0.00    +0.000 HD
ENDBRANCH  33  34
ENDBRANCH  26  33
ENDBRANCH  24  26
ENDBRANCH  23  24
ENDBRANCH   4  23
TORSDOF 9
ENDMDL
MODEL 5
REMARK VINA RESULT:    -7.919      3.073      4.294
REMARK INTER + INTRA:         -12.583
REMARK INTER:                 -11.478
REMARK INTRA:                  -1.105
REMARK UNBOUND:                -0.728
REMARK  Name = 
REMARK  9 active torsions:
REMARK  status: ('A' for Active; 'I' for Inactive)
REMARK    1  A    between atoms: C_2  and  C_22
REMARK    2  A    between atoms: N_3  and  C_4
REMARK    3  A    between atoms: C_4  and  C_5
REMARK    4  A    between atoms: C_8  and  C_9
REMARK    5  A    between atoms: C_9  and  N_10
REMARK    6  A    between atoms: N_10  and  CA_11
REMARK    7  A    between atoms: CA_11  and  C_12
REMARK    8  A    between atoms: CA_11  and  C_14
REMARK    9  A    between atoms: C_12  and  O_13
REMARK                            x       y       z     vdW  Elec       q    Type
REMARK                         _______ _______ _______ _____ _____    ______ ____
ROOT
ATOM      1  C   UNL     1      47.057   6.624  13.281  0.00  0.00    +0.000 A 
ATOM      2  C   UNL     1      46.697   7.485  12.256  0.00  0.00    +0.000 A 
ATOM      3  C   UNL     1      45.536   7.225  11.541  0.00  0.00    +0.000 A 
ATOM      4  C   UNL     1      44.774   6.122  11.892  0.00  0.00    +0.000 A 
ATOM      5  N   UNL     1      45.141   5.304  12.905  0.00  0.00    +0.000 NA
ATOM      6  N   UNL     1      46.288   5.557  13.604  0.00  0.00    +0.000 NA
ENDROOT
BRANCH   1   7
ATOM      7  C   UNL     1      48.309   6.852  14.085  0.00  0.00    +0.000 C 
BRANCH   7  10
ATOM      8  O   UNL     1      50.359   6.291  15.923  0.00  0.00    +0.000 OA
ATOM      9  C   UNL     1      49.197   6.300  16.321  0.00  0.00    +0.000 C 
ATOM     10  N   UNL     1      48.139   6.507  15.478  0.00  0.00    +0.000 N 
ATOM     11  H   UNL     1      47.226   6.719  15.870  0.00  0.00    +0.000 HD
BRANCH   9  12
ATOM     12  C   UNL     1      48.863   6.041  17.726  0.00  0.00    +0.000 A 
ATOM     13  C   UNL     1      49.103   4.791  18.281  0.00  0.00    +0.000 A 
ATOM     14  S   UNL     1      48.649   4.676  19.922  0.00  0.00    +0.000 S 
ATOM     15  C   UNL     1      48.156   6.305  19.959  0.00  0.00    +0.000 A 
ATOM     16  N   UNL     1      47.686   6.872  21.103  0.00  0.00    +0.000 NA
ATOM     17  C   UNL     1      47.388   8.124  20.994  0.00  0.00    +0.000 A 
ATOM     18  N   UNL     1      47.504   8.855  19.841  0.00  0.00    +0.000 N 
ATOM     19  C   UNL     1      47.897   8.306  18.647  0.00  0.00    +0.000 A 
ATOM     20  O   UNL     1      47.852   8.948  17.604  0.00  0.00    +0.000 OA
ATOM     21  C   UNL     1      48.301   6.914  18.726  0.00  0.00    +0.000 A 
ATOM     22  H   UNL     1      47.221   9.828  19.813  0.00  0.00    +0.000 HD
ENDBRANCH   9  12
ENDBRANCH   7  10
ENDBRANCH   1   7
BRANCH   4  23
ATOM     23  C   UNL     1      43.492   5.796  11.168  0.00  0.00    +0.000 C 
BRANCH  23  24
ATOM     24  N   UNL     1      43.633   4.813  10.086  0.00  0.00    +0.000 NA
ATOM     25  H   UNL     1      44.087   5.303   9.308  0.00  0.00    +0.000 HD
BRANCH  24  26
ATOM     26  CA  UNL     1      44.492   3.646  10.407  0.00  0.00    +0.000 C 
BRANCH  26  27
ATOM     27  C   UNL     1      45.246   3.167   9.157  0.00  0.00    +0.000 A 
ATOM     28  C   UNL     1      45.559   4.043   8.115  0.00  0.00    +0.000 A 
ATOM     29  C   UNL     1      46.278   3.569   7.022  0.00  0.00    +0.000 A 
ATOM     30  C   UNL     1      46.655   2.234   6.982  0.00  0.00    +0.000 A 
ATOM     31  C   UNL     1      46.277   1.419   8.035  0.00  0.00    +0.000 A 
ATOM     32  N   UNL     1      45.573   1.848   9.107  0.00  0.00    +0.000 NA
ENDBRANCH  26  27
BRANCH  26  33
ATOM     33  C   UNL     1      43.734   2.439  11.020  0.00  0.00    +0.000 C 
BRANCH  33  34
ATOM     34  O   UNL     1      43.776   2.417  12.450  0.00  0.00    +0.000 OA
ATOM     35  H   UNL     1      43.097   1.779  12.750  0.00  0.00    +0.000 HD
ENDBRANCH  33  34
ENDBRANCH  26  33
ENDBRANCH  24  26
ENDBRANCH  23  24
ENDBRANCH   4  23
TORSDOF 9
ENDMDL
MODEL 6
REMARK VINA RESULT:    -7.705      3.296      4.679
REMARK INTER + INTRA:         -12.261
REMARK INTER:                 -11.255
REMARK INTRA:                  -1.006
REMARK UNBOUND:                -0.728
REMARK  Name = 
REMARK  9 active torsions:
REMARK  status: ('A' for Active; 'I' for Inactive)
REMARK    1  A    between atoms: C_2  and  C_22
REMARK    2  A    between atoms: N_3  and  C_4
REMARK    3  A    between atoms: C_4  and  C_5
REMARK    4  A    between atoms: C_8  and  C_9
REMARK    5  A    between atoms: C_9  and  N_10
REMARK    6  A    between atoms: N_10  and  CA_11
REMARK    7  A    between atoms: CA_11  and  C_12
REMARK    8  A    between atoms: CA_11  and  C_14
REMARK    9  A    between atoms: C_12  and  O_13
REMARK                            x       y       z     vdW  Elec       q    Type
REMARK                         _______ _______ _______ _____ _____    ______ ____
ROOT
ATOM      1  C   UNL     1      46.161   4.632  13.648  0.00  0.00    +0.000 A 
ATOM      2  C   UNL     1      46.614   5.461  12.633  0.00  0.00    +0.000 A 
ATOM      3  C   UNL     1      45.821   5.634  11.507  0.00  0.00    +0.000 A 
ATOM      4  C   UNL     1      44.600   4.983  11.450  0.00  0.00    +0.000 A 
ATOM      5  N   UNL     1      44.174   4.189  12.460  0.00  0.00    +0.000 NA
ATOM      6  N   UNL     1      44.959   4.014  13.566  0.00  0.00    +0.000 NA
ENDROOT
BRANCH   1   7
ATOM      7  C   UNL     1      46.982   4.401  14.888  0.00  0.00    +0.000 C 
BRANCH   7  10
ATOM      8  O   UNL     1      48.776   4.608  17.042  0.00  0.00    +0.000 OA
ATOM      9  C   UNL     1      48.526   5.615  16.384  0.00  0.00    +0.000 C 
ATOM     10  N   UNL     1      47.620   5.610  15.357  0.00  0.00    +0.000 N 
ATOM     11  H   UNL     1      47.600   6.392  14.709  0.00  0.00    +0.000 HD
BRANCH   9  12
ATOM     12  C   UNL     1      49.151   6.908  16.688  0.00  0.00    +0.000 A 
ATOM     13  C   UNL     1      49.161   7.388  17.991  0.00  0.00    +0.000 A 
ATOM     14  S   UNL     1      49.928   8.903  18.151  0.00  0.00    +0.000 S 
ATOM     15  C   UNL     1      50.311   8.950  16.493  0.00  0.00    +0.000 A 
ATOM     16  N   UNL     1      51.014   9.986  15.962  0.00  0.00    +0.000 NA
ATOM     17  C   UNL     1      51.266   9.869  14.701  0.00  0.00    +0.000 A 
ATOM     18  N   UNL     1      50.866   8.815  13.921  0.00  0.00    +0.000 N 
ATOM     19  C   UNL     1      50.089   7.790  14.396  0.00  0.00    +0.000 A 
ATOM     20  O   UNL     1      49.626   6.939  13.645  0.00  0.00    +0.000 OA
ATOM     21  C   UNL     1      49.825   7.842  15.823  0.00  0.00    +0.000 A 
ATOM     22  H   UNL     1      51.068   8.800  12.928  0.00  0.00    +0.000 HD
ENDBRANCH   9  12
ENDBRANCH   7  10
ENDBRANCH   1   7
BRANCH   4  23
ATOM     23  C   UNL     1      43.682   5.146  10.264  0.00  0.00    +0.000 C 
BRANCH  23  24
ATOM     24  N   UNL     1      44.076   4.376   9.077  0.00  0.00    +0.000 NA
ATOM     25  H   UNL     1      44.658   5.000   8.509  0.00  0.00    +0.000 HD
BRANCH  24  26
ATOM     26  CA  UNL     1      44.895   3.170   9.354  0.00  0.00    +0.000 C 
BRANCH  26  27
ATOM     27  C   UNL     1      45.835   2.870   8.176  0.00  0.00    +0.000 A 
ATOM     28  C   UNL     1      46.436   1.618   8.024  0.00  0.00    +0.000 A 
ATOM     29  C   UNL     1      47.246   1.383   6.918  0.00  0.00    +0.000 A 
ATOM     30  C   UNL     1      47.455   2.402   5.999  0.00  0.00    +0.000 A 
ATOM     31  C   UNL     1      46.856   3.627   6.237  0.00  0.00    +0.000 A 
ATOM     32  N   UNL     1      46.067   3.887   7.304  0.00  0.00    +0.000 NA
ENDBRANCH  26  27
BRANCH  26  33
ATOM     33  C   UNL     1      44.073   1.892   9.668  0.00  0.00    +0.000 C 
BRANCH  33  34
ATOM     34  O   UNL     1      43.473   1.915  10.966  0.00  0.00    +0.000 OA
ATOM     35  H   UNL     1      44.017   2.506  11.527  0.00  0.00    +0.000 HD
ENDBRANCH  33  34
ENDBRANCH  26  33
ENDBRANCH  24  26
ENDBRANCH  23  24
ENDBRANCH   4  23
TORSDOF 9
ENDMDL
MODEL 7
REMARK VINA RESULT:    -7.362      2.631      3.508
REMARK INTER + INTRA:         -11.748
REMARK INTER:                 -10.980
REMARK INTRA:                  -0.769
REMARK UNBOUND:                -0.728
REMARK  Name = 
REMARK  9 active torsions:
REMARK  status: ('A' for Active; 'I' for Inactive)
REMARK    1  A    between atoms: C_2  and  C_22
REMARK    2  A    between atoms: N_3  and  C_4
REMARK    3  A    between atoms: C_4  and  C_5
REMARK    4  A    between atoms: C_8  and  C_9
REMARK    5  A    between atoms: C_9  and  N_10
REMARK    6  A    between atoms: N_10  and  CA_11
REMARK    7  A    between atoms: CA_11  and  C_12
REMARK    8  A    between atoms: CA_11  and  C_14
REMARK    9  A    between atoms: C_12  and  O_13
REMARK                            x       y       z     vdW  Elec       q    Type
REMARK                         _______ _______ _______ _____ _____    ______ ____
ROOT
ATOM      1  C   UNL     1      46.529   4.757  14.194  0.00  0.00    +0.000 A 
ATOM      2  C   UNL     1      47.266   5.518  13.299  0.00  0.00    +0.000 A 
ATOM      3  C   UNL     1      46.677   5.899  12.101  0.00  0.00    +0.000 A 
ATOM      4  C   UNL     1      45.368   5.518  11.856  0.00  0.00    +0.000 A 
ATOM      5  N   UNL     1      44.665   4.787  12.752  0.00  0.00    +0.000 NA
ATOM      6  N   UNL     1      45.249   4.406  13.928  0.00  0.00    +0.000 NA
ENDROOT
BRANCH   1   7
ATOM      7  C   UNL     1      47.119   4.309  15.504  0.00  0.00    +0.000 C 
BRANCH   7  10
ATOM      8  O   UNL     1      47.764   4.437  18.237  0.00  0.00    +0.000 OA
ATOM      9  C   UNL     1      48.183   5.318  17.490  0.00  0.00    +0.000 C 
ATOM     10  N   UNL     1      47.865   5.359  16.159  0.00  0.00    +0.000 N 
ATOM     11  H   UNL     1      48.395   5.967  15.541  0.00  0.00    +0.000 HD
BRANCH   9  12
ATOM     12  C   UNL     1      49.018   6.417  17.989  0.00  0.00    +0.000 A 
ATOM     13  C   UNL     1      48.426   7.568  18.493  0.00  0.00    +0.000 A 
ATOM     14  S   UNL     1      49.552   8.735  19.024  0.00  0.00    +0.000 S 
ATOM     15  C   UNL     1      50.867   7.726  18.638  0.00  0.00    +0.000 A 
ATOM     16  N   UNL     1      52.148   8.114  18.881  0.00  0.00    +0.000 NA
ATOM     17  C   UNL     1      53.040   7.232  18.575  0.00  0.00    +0.000 A 
ATOM     18  N   UNL     1      52.768   6.003  18.035  0.00  0.00    +0.000 N 
ATOM     19  C   UNL     1      51.500   5.601  17.699  0.00  0.00    +0.000 A 
ATOM     20  O   UNL     1      51.302   4.559  17.086  0.00  0.00    +0.000 OA
ATOM     21  C   UNL     1      50.452   6.532  18.076  0.00  0.00    +0.000 A 
ATOM     22  H   UNL     1      53.518   5.368  17.786  0.00  0.00    +0.000 HD
ENDBRANCH   9  12
ENDBRANCH   7  10
ENDBRANCH   1   7
BRANCH   4  23
ATOM     23  C   UNL     1      44.663   5.918  10.583  0.00  0.00    +0.000 C 
BRANCH  23  24
ATOM     24  N   UNL     1      44.174   4.793   9.777  0.00  0.00    +0.000 NA
ATOM     25  H   UNL     1      44.377   5.028   8.800  0.00  0.00    +0.000 HD
BRANCH  24  26
ATOM     26  CA  UNL     1      44.837   3.493  10.046  0.00  0.00    +0.000 C 
BRANCH  26  27
ATOM     27  C   UNL     1      45.592   3.002   8.800  0.00  0.00    +0.000 A 
ATOM     28  C   UNL     1      45.924   3.873   7.760  0.00  0.00    +0.000 A 
ATOM     29  C   UNL     1      46.644   3.388   6.672  0.00  0.00    +0.000 A 
ATOM     30  C   UNL     1      47.002   2.048   6.635  0.00  0.00    +0.000 A 
ATOM     31  C   UNL     1      46.605   1.239   7.686  0.00  0.00    +0.000 A 
ATOM     32  N   UNL     1      45.901   1.679   8.753  0.00  0.00    +0.000 NA
ENDBRANCH  26  27
BRANCH  26  33
ATOM     33  C   UNL     1      43.880   2.367  10.518  0.00  0.00    +0.000 C 
BRANCH  33  34
ATOM     34  O   UNL     1      42.889   2.825  11.443  0.00  0.00    +0.000 OA
ATOM     35  H   UNL     1      42.729   2.098  12.080  0.00  0.00    +0.000 HD
ENDBRANCH  33  34
ENDBRANCH  26  33
ENDBRANCH  24  26
ENDBRANCH  23  24
ENDBRANCH   4  23
TORSDOF 9
ENDMDL
MODEL 8
REMARK VINA RESULT:    -7.178      3.680      9.267
REMARK INTER + INTRA:         -11.473
REMARK INTER:                 -10.387
REMARK INTRA:                  -1.086
REMARK UNBOUND:                -0.728
REMARK  Name = 
REMARK  9 active torsions:
REMARK  status: ('A' for Active; 'I' for Inactive)
REMARK    1  A    between atoms: C_2  and  C_22
REMARK    2  A    between atoms: N_3  and  C_4
REMARK    3  A    between atoms: C_4  and  C_5
REMARK    4  A    between atoms: C_8  and  C_9
REMARK    5  A    between atoms: C_9  and  N_10
REMARK    6  A    between atoms: N_10  and  CA_11
REMARK    7  A    between atoms: CA_11  and  C_12
REMARK    8  A    between atoms: CA_11  and  C_14
REMARK    9  A    between atoms: C_12  and  O_13
REMARK                            x       y       z     vdW  Elec       q    Type
REMARK                         _______ _______ _______ _____ _____    ______ ____
ROOT
ATOM      1  C   UNL     1      45.547   4.432  12.672  0.00  0.00    +0.000 A 
ATOM      2  C   UNL     1      45.477   5.805  12.493  0.00  0.00    +0.000 A 
ATOM      3  C   UNL     1      46.429   6.610  13.105  0.00  0.00    +0.000 A 
ATOM      4  C   UNL     1      47.422   6.005  13.858  0.00  0.00    +0.000 A 
ATOM      5  N   UNL     1      47.476   4.661  14.007  0.00  0.00    +0.000 NA
ATOM      6  N   UNL     1      46.533   3.871  13.409  0.00  0.00    +0.000 NA
ENDROOT
BRANCH   1   7
ATOM      7  C   UNL     1      44.537   3.513  12.039  0.00  0.00    +0.000 C 
BRANCH   7  10
ATOM      8  O   UNL     1      44.076   3.831   9.285  0.00  0.00    +0.000 OA
ATOM      9  C   UNL     1      44.873   2.972   9.654  0.00  0.00    +0.000 C 
ATOM     10  N   UNL     1      45.109   2.716  10.978  0.00  0.00    +0.000 N 
ATOM     11  H   UNL     1      45.917   2.160  11.240  0.00  0.00    +0.000 HD
BRANCH   9  12
ATOM     12  C   UNL     1      45.593   2.127   8.694  0.00  0.00    +0.000 A 
ATOM     13  C   UNL     1      45.488   0.744   8.768  0.00  0.00    +0.000 A 
ATOM     14  S   UNL     1      46.395  -0.071   7.574  0.00  0.00    +0.000 S 
ATOM     15  C   UNL     1      46.924   1.396   6.892  0.00  0.00    +0.000 A 
ATOM     16  N   UNL     1      47.721   1.413   5.790  0.00  0.00    +0.000 NA
ATOM     17  C   UNL     1      48.011   2.596   5.360  0.00  0.00    +0.000 A 
ATOM     18  N   UNL     1      47.587   3.762   5.940  0.00  0.00    +0.000 N 
ATOM     19  C   UNL     1      46.849   3.794   7.096  0.00  0.00    +0.000 A 
ATOM     20  O   UNL     1      46.608   4.849   7.671  0.00  0.00    +0.000 OA
ATOM     21  C   UNL     1      46.446   2.490   7.591  0.00  0.00    +0.000 A 
ATOM     22  H   UNL     1      47.878   4.660   5.571  0.00  0.00    +0.000 HD
ENDBRANCH   9  12
ENDBRANCH   7  10
ENDBRANCH   1   7
BRANCH   4  23
ATOM     23  C   UNL     1      48.498   6.820  14.532  0.00  0.00    +0.000 C 
BRANCH  23  24
ATOM     24  N   UNL     1      48.182   7.231  15.905  0.00  0.00    +0.000 NA
ATOM     25  H   UNL     1      47.243   6.873  16.106  0.00  0.00    +0.000 HD
BRANCH  24  26
ATOM     26  CA  UNL     1      49.079   6.674  16.949  0.00  0.00    +0.000 C 
BRANCH  26  27
ATOM     27  C   UNL     1      48.797   5.179  17.163  0.00  0.00    +0.000 A 
ATOM     28  C   UNL     1      47.502   4.708  17.394  0.00  0.00    +0.000 A 
ATOM     29  C   UNL     1      47.293   3.340  17.542  0.00  0.00    +0.000 A 
ATOM     30  C   UNL     1      48.376   2.475  17.475  0.00  0.00    +0.000 A 
ATOM     31  C   UNL     1      49.633   3.019  17.281  0.00  0.00    +0.000 A 
ATOM     32  N   UNL     1      49.869   4.343  17.139  0.00  0.00    +0.000 NA
ENDBRANCH  26  27
BRANCH  26  33
ATOM     33  C   UNL     1      48.995   7.394  18.320  0.00  0.00    +0.000 C 
BRANCH  33  34
ATOM     34  O   UNL     1      50.024   6.991  19.229  0.00  0.00    +0.000 OA
ATOM     35  H   UNL     1      49.656   7.063  20.134  0.00  0.00    +0.000 HD
ENDBRANCH  33  34
ENDBRANCH  26  33
ENDBRANCH  24  26
ENDBRANCH  23  24
ENDBRANCH   4  23
TORSDOF 9
ENDMDL
MODEL 9
REMARK VINA RESULT:    -7.127      3.831      9.657
REMARK INTER + INTRA:         -11.397
REMARK INTER:                 -10.678
REMARK INTRA:                  -0.719
REMARK UNBOUND:                -0.728
REMARK  Name = 
REMARK  9 active torsions:
REMARK  status: ('A' for Active; 'I' for Inactive)
REMARK    1  A    between atoms: C_2  and  C_22
REMARK    2  A    between atoms: N_3  and  C_4
REMARK    3  A    between atoms: C_4  and  C_5
REMARK    4  A    between atoms: C_8  and  C_9
REMARK    5  A    between atoms: C_9  and  N_10
REMARK    6  A    between atoms: N_10  and  CA_11
REMARK    7  A    between atoms: CA_11  and  C_12
REMARK    8  A    between atoms: CA_11  and  C_14
REMARK    9  A    between atoms: C_12  and  O_13
REMARK                            x       y       z     vdW  Elec       q    Type
REMARK                         _______ _______ _______ _____ _____    ______ ____
ROOT
ATOM      1  C   UNL     1      45.339   4.105  12.780  0.00  0.00    +0.000 A 
ATOM      2  C   UNL     1      45.348   5.490  12.724  0.00  0.00    +0.000 A 
ATOM      3  C   UNL     1      46.295   6.184  13.465  0.00  0.00    +0.000 A 
ATOM      4  C   UNL     1      47.205   5.461  14.219  0.00  0.00    +0.000 A 
ATOM      5  N   UNL     1      47.184   4.108  14.247  0.00  0.00    +0.000 NA
ATOM      6  N   UNL     1      46.246   3.427  13.522  0.00  0.00    +0.000 NA
ENDROOT
BRANCH   1   7
ATOM      7  C   UNL     1      44.330   3.302  12.004  0.00  0.00    +0.000 C 
BRANCH   7  10
ATOM      8  O   UNL     1      44.146   3.865   9.256  0.00  0.00    +0.000 OA
ATOM      9  C   UNL     1      44.842   2.919   9.620  0.00  0.00    +0.000 C 
ATOM     10  N   UNL     1      44.936   2.545  10.933  0.00  0.00    +0.000 N 
ATOM     11  H   UNL     1      45.675   1.908  11.216  0.00  0.00    +0.000 HD
BRANCH   9  12
ATOM     12  C   UNL     1      45.583   2.095   8.658  0.00  0.00    +0.000 A 
ATOM     13  C   UNL     1      45.495   0.710   8.714  0.00  0.00    +0.000 A 
ATOM     14  S   UNL     1      46.425  -0.079   7.520  0.00  0.00    +0.000 S 
ATOM     15  C   UNL     1      46.942   1.403   6.861  0.00  0.00    +0.000 A 
ATOM     16  N   UNL     1      47.750   1.443   5.768  0.00  0.00    +0.000 NA
ATOM     17  C   UNL     1      48.029   2.634   5.354  0.00  0.00    +0.000 A 
ATOM     18  N   UNL     1      47.583   3.788   5.944  0.00  0.00    +0.000 N 
ATOM     19  C   UNL     1      46.833   3.796   7.092  0.00  0.00    +0.000 A 
ATOM     20  O   UNL     1      46.572   4.841   7.677  0.00  0.00    +0.000 OA
ATOM     21  C   UNL     1      46.442   2.482   7.567  0.00  0.00    +0.000 A 
ATOM     22  H   UNL     1      47.866   4.694   5.589  0.00  0.00    +0.000 HD
ENDBRANCH   9  12
ENDBRANCH   7  10
ENDBRANCH   1   7
BRANCH   4  23
ATOM     23  C   UNL     1      48.273   6.153  15.030  0.00  0.00    +0.000 C 
BRANCH  23  24
ATOM     24  N   UNL     1      48.848   5.337  16.106  0.00  0.00    +0.000 NA
ATOM     25  H   UNL     1      49.632   5.876  16.490  0.00  0.00    +0.000 HD
BRANCH  24  26
ATOM     26  CA  UNL     1      47.933   5.057  17.240  0.00  0.00    +0.000 C 
BRANCH  26  27
ATOM     27  C   UNL     1      48.380   5.816  18.499  0.00  0.00    +0.000 A 
ATOM     28  C   UNL     1      47.788   7.026  18.868  0.00  0.00    +0.000 A 
ATOM     29  C   UNL     1      48.201   7.654  20.039  0.00  0.00    +0.000 A 
ATOM     30  C   UNL     1      49.202   7.075  20.806  0.00  0.00    +0.000 A 
ATOM     31  C   UNL     1      49.767   5.894  20.356  0.00  0.00    +0.000 A 
ATOM     32  N   UNL     1      49.391   5.263  19.220  0.00  0.00    +0.000 NA
ENDBRANCH  26  27
BRANCH  26  33
ATOM     33  C   UNL     1      47.790   3.553  17.595  0.00  0.00    +0.000 C 
BRANCH  33  34
ATOM     34  O   UNL     1      46.467   3.050  17.386  0.00  0.00    +0.000 OA
ATOM     35  H   UNL     1      46.041   2.979  18.264  0.00  0.00    +0.000 HD
ENDBRANCH  33  34
ENDBRANCH  26  33
ENDBRANCH  24  26
ENDBRANCH  23  24
ENDBRANCH   4  23
TORSDOF 9
ENDMDL
