MODEL 1
REMARK VINA RESULT:    -8.155      0.000      0.000
REMARK INTER + INTRA:         -10.140
REMARK INTER:                  -9.585
REMARK INTRA:                  -0.555
REMARK UNBOUND:                -0.555
REMARK  Name = 
REMARK  5 active torsions:
REMARK  status: ('A' for Active; 'I' for Inactive)
REMARK    1  A    between atoms: C_1  and  C_2
REMARK    2  A    between atoms: N_6  and  C_7
REMARK    3  A    between atoms: C_7  and  C_8
REMARK    4  A    between atoms: C_12  and  C_13
REMARK    5  A    between atoms: C_17  and  C_18
REMARK                            x       y       z     vdW  Elec       q    Type
REMARK                         _______ _______ _______ _____ _____    ______ ____
ROOT
ATOM      1  C   UNL     1      44.811   4.966  11.848  0.00  0.00    +0.000 A 
ATOM      2  C   UNL     1      45.177   4.071  12.849  0.00  0.00    +0.000 A 
ATOM      3  C   UNL     1      46.242   4.398  13.677  0.00  0.00    +0.000 A 
ATOM      4  C   UNL     1      46.918   5.598  13.482  0.00  0.00    +0.000 A 
ATOM      5  C   UNL     1      46.518   6.453  12.455  0.00  0.00    +0.000 A 
ATOM      6  N   UNL     1      45.480   6.136  11.636  0.00  0.00    +0.000 NA
ENDROOT
BRANCH   5   7
ATOM      7  C   UNL     1      47.216   7.722  12.174  0.00  0.00    +0.000 A 
ATOM      8  C   UNL     1      46.583   8.965  12.256  0.00  0.00    +0.000 A 
ATOM      9  N   UNL     1      47.184  10.167  12.081  0.00  0.00    +0.000 NA
ATOM     10  C   UNL     1      48.501  10.145  11.791  0.00  0.00    +0.000 A 
ATOM     11  C   UNL     1      49.242   8.980  11.651  0.00  0.00    +0.000 A 
ATOM     12  C   UNL     1      50.700   9.013  11.326  0.00  0.00    +0.000 C 
ATOM     13  C   UNL     1      48.577   7.760  11.838  0.00  0.00    +0.000 A 
ENDBRANCH   5   7
BRANCH   1  14
ATOM     14  C   UNL     1      43.632   4.649  10.944  0.00  0.00    +0.000 C 
BRANCH  14  20
ATOM     15  C   UNL     1      47.294   1.297   6.767  0.00  0.00    +0.000 C 
ATOM     16  C   UNL     1      46.441   2.225   7.558  0.00  0.00    +0.000 A 
ATOM     17  C   UNL     1      45.719   1.837   8.665  0.00  0.00    +0.000 A 
ATOM     18  N   UNL     1      44.922   2.666   9.374  0.00  0.00    +0.000 NA
ATOM     19  C   UNL     1      44.829   3.934   8.947  0.00  0.00    +0.000 A 
ATOM     20  N   UNL     1      43.953   4.816   9.541  0.00  0.00    +0.000 N 
ATOM     21  N   UNL     1      45.507   4.414   7.899  0.00  0.00    +0.000 NA
ATOM     22  C   UNL     1      46.296   3.553   7.226  0.00  0.00    +0.000 A 
ATOM     23  H   UNL     1      44.205   5.758   9.265  0.00  0.00    +0.000 HD
ENDBRANCH  14  20
ENDBRANCH   1  14
TORSDOF 3
ENDMDL
MODEL 2
REMARK VINA RESULT:    -8.020      2.403      3.732
REMARK INTER + INTRA:          -9.982
REMARK INTER:                  -9.522
REMARK INTRA:                  -0.460
REMARK UNBOUND:                -0.555
REMARK  Name = 
REMARK  5 active torsions:
REMARK  status: ('A' for Active; 'I' for Inactive)
REMARK    1  A    between atoms: C_1  and  C_2
REMARK    2  A    between atoms: N_6  and  C_7
REMARK    3  A    between atoms: C_7  and  C_8
REMARK    4  A    between atoms: C_12  and  C_13
REMARK    5  A    between atoms: C_17  and  C_18
REMARK                            x       y       z     vdW  Elec       q    Type
REMARK                         _______ _______ _______ _____ _____    ______ ____
ROOT
ATOM      1  C   UNL     1      44.377   4.672  11.368  0.00  0.00    +0.000 A 
ATOM      2  C   UNL     1      43.885   5.912  10.973  0.00  0.00    +0.000 A 
ATOM      3  C   UNL     1      44.391   7.053  11.580  0.00  0.00    +0.000 A 
ATOM      4  C   UNL     1      45.364   6.930  12.566  0.00  0.00    +0.000 A 
ATOM      5  C   UNL     1      45.813   5.662  12.934  0.00  0.00    +0.000 A 
ATOM      6  N   UNL     1      45.316   4.540  12.349  0.00  0.00    +0.000 NA
ENDROOT
BRANCH   5   7
ATOM      7  C   UNL     1      46.815   5.463  13.998  0.00  0.00    +0.000 A 
ATOM      8  C   UNL     1      47.909   6.316  14.171  0.00  0.00    +0.000 A 
ATOM      9  N   UNL     1      48.823   6.230  15.169  0.00  0.00    +0.000 NA
ATOM     10  C   UNL     1      48.656   5.225  16.053  0.00  0.00    +0.000 A 
ATOM     11  C   UNL     1      47.631   4.293  15.979  0.00  0.00    +0.000 A 
ATOM     12  C   UNL     1      47.494   3.197  16.985  0.00  0.00    +0.000 C 
ATOM     13  C   UNL     1      46.712   4.420  14.928  0.00  0.00    +0.000 A 
ENDBRANCH   5   7
BRANCH   1  14
ATOM     14  C   UNL     1      43.862   3.406  10.704  0.00  0.00    +0.000 C 
BRANCH  14  20
ATOM     15  C   UNL     1      47.541   2.508   5.436  0.00  0.00    +0.000 C 
ATOM     16  C   UNL     1      46.791   2.517   6.721  0.00  0.00    +0.000 A 
ATOM     17  C   UNL     1      46.191   3.641   7.243  0.00  0.00    +0.000 A 
ATOM     18  N   UNL     1      45.531   3.666   8.421  0.00  0.00    +0.000 NA
ATOM     19  C   UNL     1      45.483   2.521   9.116  0.00  0.00    +0.000 A 
ATOM     20  N   UNL     1      44.929   2.482  10.378  0.00  0.00    +0.000 N 
ATOM     21  N   UNL     1      46.012   1.370   8.686  0.00  0.00    +0.000 NA
ATOM     22  C   UNL     1      46.656   1.391   7.502  0.00  0.00    +0.000 A 
ATOM     23  H   UNL     1      44.754   1.515  10.626  0.00  0.00    +0.000 HD
ENDBRANCH  14  20
ENDBRANCH   1  14
TORSDOF 3
ENDMDL
MODEL 3
REMARK VINA RESULT:    -7.842      3.041      7.316
REMARK INTER + INTRA:          -9.772
REMARK INTER:                  -9.381
REMARK INTRA:                  -0.391
REMARK UNBOUND:                -0.555
REMARK  Name = 
REMARK  5 active torsions:
REMARK  status: ('A' for Active; 'I' for Inactive)
REMARK    1  A    between atoms: C_1  and  C_2
REMARK    2  A    between atoms: N_6  and  C_7
REMARK    3  A    between atoms: C_7  and  C_8
REMARK    4  A    between atoms: C_12  and  C_13
REMARK    5  A    between atoms: C_17  and  C_18
REMARK                            x       y       z     vdW  Elec       q    Type
REMARK                         _______ _______ _______ _____ _____    ______ ____
ROOT
ATOM      1  C   UNL     1      45.192   4.914  12.580  0.00  0.00    +0.000 A 
ATOM      2  C   UNL     1      43.824   5.045  12.800  0.00  0.00    +0.000 A 
ATOM      3  C   UNL     1      42.947   4.634  11.805  0.00  0.00    +0.000 A 
ATOM      4  C   UNL     1      43.453   4.113  10.619  0.00  0.00    +0.000 A 
ATOM      5  C   UNL     1      44.834   4.015  10.445  0.00  0.00    +0.000 A 
ATOM      6  N   UNL     1      45.698   4.423  11.412  0.00  0.00    +0.000 NA
ENDROOT
BRANCH   5   7
ATOM      7  C   UNL     1      45.433   3.506   9.197  0.00  0.00    +0.000 A 
ATOM      8  C   UNL     1      45.755   4.339   8.122  0.00  0.00    +0.000 A 
ATOM      9  N   UNL     1      46.371   3.946   6.980  0.00  0.00    +0.000 NA
ATOM     10  C   UNL     1      46.681   2.637   6.882  0.00  0.00    +0.000 A 
ATOM     11  C   UNL     1      46.390   1.699   7.863  0.00  0.00    +0.000 A 
ATOM     12  C   UNL     1      46.755   0.259   7.703  0.00  0.00    +0.000 C 
ATOM     13  C   UNL     1      45.750   2.151   9.025  0.00  0.00    +0.000 A 
ENDBRANCH   5   7
BRANCH   1  14
ATOM     14  C   UNL     1      46.175   5.330  13.660  0.00  0.00    +0.000 C 
BRANCH  14  20
ATOM     15  C   UNL     1      50.480   3.923  18.306  0.00  0.00    +0.000 C 
ATOM     16  C   UNL     1      49.372   4.067  17.323  0.00  0.00    +0.000 A 
ATOM     17  C   UNL     1      49.139   5.217  16.602  0.00  0.00    +0.000 A 
ATOM     18  N   UNL     1      48.121   5.367  15.728  0.00  0.00    +0.000 NA
ATOM     19  C   UNL     1      47.288   4.326  15.580  0.00  0.00    +0.000 A 
ATOM     20  N   UNL     1      46.160   4.430  14.796  0.00  0.00    +0.000 N 
ATOM     21  N   UNL     1      47.442   3.159  16.214  0.00  0.00    +0.000 NA
ATOM     22  C   UNL     1      48.475   3.053  17.072  0.00  0.00    +0.000 A 
ATOM     23  H   UNL     1      45.811   3.499  14.604  0.00  0.00    +0.000 HD
ENDBRANCH  14  20
ENDBRANCH   1  14
TORSDOF 3
ENDMDL
MODEL 4
REMARK VINA RESULT:    -7.821      1.498      6.483
REMARK INTER + INTRA:          -9.748
REMARK INTER:                  -9.114
REMARK INTRA:                  -0.634
REMARK UNBOUND:                -0.555
REMARK  Name = 
REMARK  5 active torsions:
REMARK  status: ('A' for Active; 'I' for Inactive)
REMARK    1  A    between atoms: C_1  and  C_2
REMARK    2  A    between atoms: N_6  and  C_7
REMARK    3  A    between atoms: C_7  and  C_8
REMARK    4  A    between atoms: C_12  and  C_13
REMARK    5  A    between atoms: C_17  and  C_18
REMARK                            x       y       z     vdW  Elec       q    Type
REMARK                         _______ _______ _______ _____ _____    ______ ____
ROOT
ATOM      1  C   UNL     1      44.522   5.099  12.229  0.00  0.00    +0.000 A 
ATOM      2  C   UNL     1      43.555   4.303  12.835  0.00  0.00    +0.000 A 
ATOM      3  C   UNL     1      43.196   3.109  12.224  0.00  0.00    +0.000 A 
ATOM      4  C   UNL     1      43.800   2.745  11.025  0.00  0.00    +0.000 A 
ATOM      5  C   UNL     1      44.755   3.586  10.453  0.00  0.00    +0.000 A 
ATOM      6  N   UNL     1      45.106   4.760  11.044  0.00  0.00    +0.000 NA
ENDROOT
BRANCH   5   7
ATOM      7  C   UNL     1      45.405   3.274   9.166  0.00  0.00    +0.000 A 
ATOM      8  C   UNL     1      45.691   4.253   8.211  0.00  0.00    +0.000 A 
ATOM      9  N   UNL     1      46.349   4.045   7.044  0.00  0.00    +0.000 NA
ATOM     10  C   UNL     1      46.742   2.779   6.792  0.00  0.00    +0.000 A 
ATOM     11  C   UNL     1      46.495   1.710   7.642  0.00  0.00    +0.000 A 
ATOM     12  C   UNL     1      46.951   0.326   7.313  0.00  0.00    +0.000 C 
ATOM     13  C   UNL     1      45.809   1.973   8.836  0.00  0.00    +0.000 A 
ENDBRANCH   5   7
BRANCH   1  14
ATOM     14  C   UNL     1      44.956   6.397  12.888  0.00  0.00    +0.000 C 
BRANCH  14  20
ATOM     15  C   UNL     1      50.710   9.004  11.408  0.00  0.00    +0.000 C 
ATOM     16  C   UNL     1      49.508   8.277  11.898  0.00  0.00    +0.000 A 
ATOM     17  C   UNL     1      48.220   8.729  11.719  0.00  0.00    +0.000 A 
ATOM     18  N   UNL     1      47.124   8.090  12.183  0.00  0.00    +0.000 NA
ATOM     19  C   UNL     1      47.326   6.957  12.872  0.00  0.00    +0.000 A 
ATOM     20  N   UNL     1      46.276   6.302  13.478  0.00  0.00    +0.000 N 
ATOM     21  N   UNL     1      48.534   6.422  13.080  0.00  0.00    +0.000 NA
ATOM     22  C   UNL     1      49.598   7.091  12.593  0.00  0.00    +0.000 A 
ATOM     23  H   UNL     1      46.575   5.364  13.718  0.00  0.00    +0.000 HD
ENDBRANCH  14  20
ENDBRANCH   1  14
TORSDOF 3
ENDMDL
MODEL 5
REMARK VINA RESULT:    -7.796      2.226      4.164
REMARK INTER + INTRA:          -9.719
REMARK INTER:                  -9.114
REMARK INTRA:                  -0.605
REMARK UNBOUND:                -0.555
REMARK  Name = 
REMARK  5 active torsions:
REMARK  status: ('A' for Active; 'I' for Inactive)
REMARK    1  A    between atoms: C_1  and  C_2
REMARK    2  A    between atoms: N_6  and  C_7
REMARK    3  A    between atoms: C_7  and  C_8
REMARK    4  A    between atoms: C_12  and  C_13
REMARK    5  A    between atoms: C_17  and  C_18
REMARK                            x       y       z     vdW  Elec       q    Type
REMARK                         _______ _______ _______ _____ _____    ______ ____
ROOT
ATOM      1  C   UNL     1      44.977   5.563  11.851  0.00  0.00    +0.000 A 
ATOM      2  C   UNL     1      45.434   6.834  11.516  0.00  0.00    +0.000 A 
ATOM      3  C   UNL     1      46.485   7.376  12.243  0.00  0.00    +0.000 A 
ATOM      4  C   UNL     1      47.046   6.645  13.285  0.00  0.00    +0.000 A 
ATOM      5  C   UNL     1      46.542   5.380  13.587  0.00  0.00    +0.000 A 
ATOM      6  N   UNL     1      45.507   4.847  12.883  0.00  0.00    +0.000 NA
ENDROOT
BRANCH   5   7
ATOM      7  C   UNL     1      47.068   4.571  14.702  0.00  0.00    +0.000 A 
ATOM      8  C   UNL     1      47.456   3.238  14.547  0.00  0.00    +0.000 A 
ATOM      9  N   UNL     1      48.014   2.463  15.510  0.00  0.00    +0.000 NA
ATOM     10  C   UNL     1      48.189   3.039  16.718  0.00  0.00    +0.000 A 
ATOM     11  C   UNL     1      47.821   4.343  17.013  0.00  0.00    +0.000 A 
ATOM     12  C   UNL     1      48.037   4.931  18.370  0.00  0.00    +0.000 C 
ATOM     13  C   UNL     1      47.246   5.105  15.986  0.00  0.00    +0.000 A 
ENDBRANCH   5   7
BRANCH   1  14
ATOM     14  C   UNL     1      43.846   4.932  11.056  0.00  0.00    +0.000 C 
BRANCH  14  20
ATOM     15  C   UNL     1      47.125   1.153   6.926  0.00  0.00    +0.000 C 
ATOM     16  C   UNL     1      46.354   2.166   7.696  0.00  0.00    +0.000 A 
ATOM     17  C   UNL     1      45.694   1.888   8.872  0.00  0.00    +0.000 A 
ATOM     18  N   UNL     1      44.970   2.794   9.565  0.00  0.00    +0.000 NA
ATOM     19  C   UNL     1      44.888   4.029   9.049  0.00  0.00    +0.000 A 
ATOM     20  N   UNL     1      44.080   4.984   9.628  0.00  0.00    +0.000 N 
ATOM     21  N   UNL     1      45.511   4.406   7.927  0.00  0.00    +0.000 NA
ATOM     22  C   UNL     1      46.227   3.471   7.273  0.00  0.00    +0.000 A 
ATOM     23  H   UNL     1      44.342   5.893   9.266  0.00  0.00    +0.000 HD
ENDBRANCH  14  20
ENDBRANCH   1  14
TORSDOF 3
ENDMDL
MODEL 6
REMARK VINA RESULT:    -7.747      1.641      2.610
REMARK INTER + INTRA:          -9.662
REMARK INTER:                  -9.194
REMARK INTRA:                  -0.467
REMARK UNBOUND:                -0.555
REMARK  Name = 
REMARK  5 active torsions:
REMARK  status: ('A' for Active; 'I' for Inactive)
REMARK    1  A    between atoms: C_1  and  C_2
REMARK    2  A    between atoms: N_6  and  C_7
REMARK    3  A    between atoms: C_7  and  C_8
REMARK    4  A    between atoms: C_12  and  C_13
REMARK    5  A    between atoms: C_17  and  C_18
REMARK                            x       y       z     vdW  Elec       q    Type
REMARK                         _______ _______ _______ _____ _____    ______ ____
ROOT
ATOM      1  C   UNL     1      43.964   4.271  10.964  0.00  0.00    +0.000 A 
ATOM      2  C   UNL     1      42.875   5.137  10.923  0.00  0.00    +0.000 A 
ATOM      3  C   UNL     1      43.045   6.440  11.371  0.00  0.00    +0.000 A 
ATOM      4  C   UNL     1      44.285   6.843  11.852  0.00  0.00    +0.000 A 
ATOM      5  C   UNL     1      45.340   5.931  11.883  0.00  0.00    +0.000 A 
ATOM      6  N   UNL     1      45.179   4.651  11.453  0.00  0.00    +0.000 NA
ENDROOT
BRANCH   5   7
ATOM      7  C   UNL     1      46.669   6.286  12.415  0.00  0.00    +0.000 A 
ATOM      8  C   UNL     1      47.161   5.770  13.617  0.00  0.00    +0.000 A 
ATOM      9  N   UNL     1      48.398   5.999  14.124  0.00  0.00    +0.000 NA
ATOM     10  C   UNL     1      49.204   6.805  13.403  0.00  0.00    +0.000 A 
ATOM     11  C   UNL     1      48.829   7.406  12.210  0.00  0.00    +0.000 A 
ATOM     12  C   UNL     1      49.762   8.292  11.451  0.00  0.00    +0.000 C 
ATOM     13  C   UNL     1      47.540   7.142  11.726  0.00  0.00    +0.000 A 
ENDBRANCH   5   7
BRANCH   1  14
ATOM     14  C   UNL     1      43.817   2.846  10.456  0.00  0.00    +0.000 C 
BRANCH  14  20
ATOM     15  C   UNL     1      47.496   2.589   5.118  0.00  0.00    +0.000 C 
ATOM     16  C   UNL     1      46.800   2.493   6.429  0.00  0.00    +0.000 A 
ATOM     17  C   UNL     1      45.917   3.442   6.893  0.00  0.00    +0.000 A 
ATOM     18  N   UNL     1      45.299   3.377   8.093  0.00  0.00    +0.000 NA
ATOM     19  C   UNL     1      45.591   2.324   8.871  0.00  0.00    +0.000 A 
ATOM     20  N   UNL     1      45.096   2.235  10.154  0.00  0.00    +0.000 N 
ATOM     21  N   UNL     1      46.415   1.337   8.503  0.00  0.00    +0.000 NA
ATOM     22  C   UNL     1      47.004   1.441   7.295  0.00  0.00    +0.000 A 
ATOM     23  H   UNL     1      45.206   1.282  10.478  0.00  0.00    +0.000 HD
ENDBRANCH  14  20
ENDBRANCH   1  14
TORSDOF 3
ENDMDL
MODEL 7
REMARK VINA RESULT:    -6.855      3.498      7.504
REMARK INTER + INTRA:          -8.613
REMARK INTER:                  -8.197
REMARK INTRA:                  -0.416
REMARK UNBOUND:                -0.555
REMARK  Name = 
REMARK  5 active torsions:
REMARK  status: ('A' for Active; 'I' for Inactive)
REMARK    1  A    between atoms: C_1  and  C_2
REMARK    2  A    between atoms: N_6  and  C_7
REMARK    3  A    between atoms: C_7  and  C_8
REMARK    4  A    between atoms: C_12  and  C_13
REMARK    5  A    between atoms: C_17  and  C_18
REMARK                            x       y       z     vdW  Elec       q    Type
REMARK                         _______ _______ _______ _____ _____    ______ ____
ROOT
ATOM      1  C   UNL     1      46.971   7.188  13.184  0.00  0.00    +0.000 A 
ATOM      2  C   UNL     1      46.329   8.419  13.096  0.00  0.00    +0.000 A 
ATOM      3  C   UNL     1      45.241   8.544  12.242  0.00  0.00    +0.000 A 
ATOM      4  C   UNL     1      44.828   7.446  11.496  0.00  0.00    +0.000 A 
ATOM      5  C   UNL     1      45.514   6.237  11.612  0.00  0.00    +0.000 A 
ATOM      6  N   UNL     1      46.585   6.111  12.441  0.00  0.00    +0.000 NA
ENDROOT
BRANCH   5   7
ATOM      7  C   UNL     1      45.148   5.047  10.821  0.00  0.00    +0.000 A 
ATOM      8  C   UNL     1      44.241   4.088  11.280  0.00  0.00    +0.000 A 
ATOM      9  N   UNL     1      43.809   3.014  10.574  0.00  0.00    +0.000 NA
ATOM     10  C   UNL     1      44.316   2.865   9.333  0.00  0.00    +0.000 A 
ATOM     11  C   UNL     1      45.245   3.727   8.770  0.00  0.00    +0.000 A 
ATOM     12  C   UNL     1      45.776   3.514   7.389  0.00  0.00    +0.000 C 
ATOM     13  C   UNL     1      45.665   4.823   9.537  0.00  0.00    +0.000 A 
ENDBRANCH   5   7
BRANCH   1  14
ATOM     14  C   UNL     1      48.147   7.013  14.130  0.00  0.00    +0.000 C 
BRANCH  14  20
ATOM     15  C   UNL     1      51.741   3.972  18.594  0.00  0.00    +0.000 C 
ATOM     16  C   UNL     1      50.740   4.547  17.656  0.00  0.00    +0.000 A 
ATOM     17  C   UNL     1      50.936   5.719  16.958  0.00  0.00    +0.000 A 
ATOM     18  N   UNL     1      50.024   6.262  16.123  0.00  0.00    +0.000 NA
ATOM     19  C   UNL     1      48.856   5.616  15.994  0.00  0.00    +0.000 A 
ATOM     20  N   UNL     1      47.827   6.157  15.254  0.00  0.00    +0.000 N 
ATOM     21  N   UNL     1      48.577   4.461  16.609  0.00  0.00    +0.000 NA
ATOM     22  C   UNL     1      49.519   3.952  17.426  0.00  0.00    +0.000 A 
ATOM     23  H   UNL     1      47.147   5.430  15.064  0.00  0.00    +0.000 HD
ENDBRANCH  14  20
ENDBRANCH   1  14
TORSDOF 3
ENDMDL
MODEL 8
REMARK VINA RESULT:    -6.754      1.823      6.848
REMARK INTER + INTRA:          -8.494
REMARK INTER:                  -7.940
REMARK INTRA:                  -0.554
REMARK UNBOUND:                -0.555
REMARK  Name = 
REMARK  5 active torsions:
REMARK  status: ('A' for Active; 'I' for Inactive)
REMARK    1  A    between atoms: C_1  and  C_2
REMARK    2  A    between atoms: N_6  and  C_7
REMARK    3  A    between atoms: C_7  and  C_8
REMARK    4  A    between atoms: C_12  and  C_13
REMARK    5  A    between atoms: C_17  and  C_18
REMARK                            x       y       z     vdW  Elec       q    Type
REMARK                         _______ _______ _______ _____ _____    ______ ____
ROOT
ATOM      1  C   UNL     1      44.690   5.418  11.124  0.00  0.00    +0.000 A 
ATOM      2  C   UNL     1      43.583   4.917  11.802  0.00  0.00    +0.000 A 
ATOM      3  C   UNL     1      43.138   3.638  11.498  0.00  0.00    +0.000 A 
ATOM      4  C   UNL     1      43.798   2.897  10.524  0.00  0.00    +0.000 A 
ATOM      5  C   UNL     1      44.896   3.451   9.865  0.00  0.00    +0.000 A 
ATOM      6  N   UNL     1      45.332   4.706  10.153  0.00  0.00    +0.000 NA
ENDROOT
BRANCH   5   7
ATOM      7  C   UNL     1      45.615   2.731   8.798  0.00  0.00    +0.000 A 
ATOM      8  C   UNL     1      45.866   1.357   8.853  0.00  0.00    +0.000 A 
ATOM      9  N   UNL     1      46.456   0.625   7.876  0.00  0.00    +0.000 NA
ATOM     10  C   UNL     1      46.841   1.295   6.771  0.00  0.00    +0.000 A 
ATOM     11  C   UNL     1      46.678   2.663   6.601  0.00  0.00    +0.000 A 
ATOM     12  C   UNL     1      47.124   3.356   5.355  0.00  0.00    +0.000 C 
ATOM     13  C   UNL     1      46.065   3.379   7.638  0.00  0.00    +0.000 A 
ENDBRANCH   5   7
BRANCH   1  14
ATOM     14  C   UNL     1      45.217   6.804  11.453  0.00  0.00    +0.000 C 
BRANCH  14  20
ATOM     15  C   UNL     1      50.455   7.314  15.248  0.00  0.00    +0.000 C 
ATOM     16  C   UNL     1      49.397   7.246  14.203  0.00  0.00    +0.000 A 
ATOM     17  C   UNL     1      48.185   6.620  14.388  0.00  0.00    +0.000 A 
ATOM     18  N   UNL     1      47.228   6.530  13.438  0.00  0.00    +0.000 NA
ATOM     19  C   UNL     1      47.504   7.076  12.245  0.00  0.00    +0.000 A 
ATOM     20  N   UNL     1      46.635   6.932  11.185  0.00  0.00    +0.000 N 
ATOM     21  N   UNL     1      48.641   7.726  11.972  0.00  0.00    +0.000 NA
ATOM     22  C   UNL     1      49.563   7.796  12.952  0.00  0.00    +0.000 A 
ATOM     23  H   UNL     1      46.880   7.608  10.471  0.00  0.00    +0.000 HD
ENDBRANCH  14  20
ENDBRANCH   1  14
TORSDOF 3
ENDMDL
MODEL 9
REMARK VINA RESULT:    -6.749      3.898      7.291
REMARK INTER + INTRA:          -8.488
REMARK INTER:                  -7.898
REMARK INTRA:                  -0.590
REMARK UNBOUND:                -0.555
REMARK  Name = 
REMARK  5 active torsions:
REMARK  status: ('A' for Active; 'I' for Inactive)
REMARK    1  A    between atoms: C_1  and  C_2
REMARK    2  A    between atoms: N_6  and  C_7
REMARK    3  A    between atoms: C_7  and  C_8
REMARK    4  A    between atoms: C_12  and  C_13
REMARK    5  A    between atoms: C_17  and  C_18
REMARK                            x       y       z     vdW  Elec       q    Type
REMARK                         _______ _______ _______ _____ _____    ______ ____
ROOT
ATOM      1  C   UNL     1      48.290   6.803  14.419  0.00  0.00    +0.000 A 
ATOM      2  C   UNL     1      49.171   7.547  13.639  0.00  0.00    +0.000 A 
ATOM      3  C   UNL     1      48.892   7.707  12.289  0.00  0.00    +0.000 A 
ATOM      4  C   UNL     1      47.752   7.119  11.751  0.00  0.00    +0.000 A 
ATOM      5  C   UNL     1      46.909   6.373  12.574  0.00  0.00    +0.000 A 
ATOM      6  N   UNL     1      47.181   6.206  13.896  0.00  0.00    +0.000 NA
ENDROOT
BRANCH   5   7
ATOM      7  C   UNL     1      45.706   5.695  12.057  0.00  0.00    +0.000 A 
ATOM      8  C   UNL     1      44.549   5.526  12.822  0.00  0.00    +0.000 A 
ATOM      9  N   UNL     1      43.389   4.978  12.384  0.00  0.00    +0.000 NA
ATOM     10  C   UNL     1      43.370   4.552  11.104  0.00  0.00    +0.000 A 
ATOM     11  C   UNL     1      44.459   4.632  10.248  0.00  0.00    +0.000 A 
ATOM     12  C   UNL     1      44.384   4.143   8.838  0.00  0.00    +0.000 C 
ATOM     13  C   UNL     1      45.638   5.205  10.745  0.00  0.00    +0.000 A 
ENDBRANCH   5   7
BRANCH   1  14
ATOM     14  C   UNL     1      48.555   6.632  15.905  0.00  0.00    +0.000 C 
BRANCH  14  20
ATOM     15  C   UNL     1      51.496   1.141  17.718  0.00  0.00    +0.000 C 
ATOM     16  C   UNL     1      50.625   2.280  17.321  0.00  0.00    +0.000 A 
ATOM     17  C   UNL     1      51.031   3.596  17.356  0.00  0.00    +0.000 A 
ATOM     18  N   UNL     1      50.239   4.639  17.023  0.00  0.00    +0.000 NA
ATOM     19  C   UNL     1      48.982   4.355  16.655  0.00  0.00    +0.000 A 
ATOM     20  N   UNL     1      48.073   5.361  16.408  0.00  0.00    +0.000 N 
ATOM     21  N   UNL     1      48.499   3.110  16.565  0.00  0.00    +0.000 NA
ATOM     22  C   UNL     1      49.326   2.101  16.901  0.00  0.00    +0.000 A 
ATOM     23  H   UNL     1      47.284   4.970  15.908  0.00  0.00    +0.000 HD
ENDBRANCH  14  20
ENDBRANCH   1  14
TORSDOF 3
ENDMDL
