MODEL 1
REMARK VINA RESULT:    -8.183      0.000      0.000
REMARK INTER + INTRA:         -12.093
REMARK INTER:                 -11.532
REMARK INTRA:                  -0.561
REMARK UNBOUND:                -0.561
REMARK  Name = 
REMARK  7 active torsions:
REMARK  status: ('A' for Active; 'I' for Inactive)
REMARK    1  A    between atoms: C_2  and  C_3
REMARK    2  A    between atoms: C_7  and  C_8
REMARK    3  A    between atoms: N_10  and  C_11
REMARK    4  A    between atoms: C_11  and  C_12
REMARK    5  A    between atoms: C_15  and  C_16
REMARK    6  A    between atoms: C_16  and  N_17
REMARK    7  A    between atoms: C_18  and  C_20
REMARK                            x       y       z     vdW  Elec       q    Type
REMARK                         _______ _______ _______ _____ _____    ______ ____
ROOT
ATOM      1  C   UNL     1      44.755   6.462  12.098  0.00  0.00    +0.000 C 
ATOM      2  C   UNL     1      44.311   5.069  12.582  0.00  0.00    +0.000 C 
ATOM      3  C   UNL     1      45.470   4.067  12.601  0.00  0.00    +0.000 C 
ATOM      4  C   UNL     1      46.673   4.558  13.426  0.00  0.00    +0.000 C 
ATOM      5  C   UNL     1      47.114   5.927  12.881  0.00  0.00    +0.000 C 
ATOM      6  C   UNL     1      45.969   6.944  12.915  0.00  0.00    +0.000 C 
ENDROOT
BRANCH   1   7
ATOM      7  C   UNL     1      45.085   6.449  10.593  0.00  0.00    +0.000 C 
BRANCH   7  10
ATOM      8  C   UNL     1      45.513   4.764   8.871  0.00  0.00    +0.000 C 
ATOM      9  O   UNL     1      46.413   5.436   8.378  0.00  0.00    +0.000 OA
ATOM     10  N   UNL     1      44.777   5.187   9.954  0.00  0.00    +0.000 N 
ATOM     11  H   UNL     1      43.946   4.686  10.235  0.00  0.00    +0.000 HD
BRANCH   8  16
ATOM     12  C   UNL     1      46.369   2.605   7.909  0.00  0.00    +0.000 C 
ATOM     13  C   UNL     1      45.927   1.142   7.981  0.00  0.00    +0.000 C 
ATOM     14  C   UNL     1      44.738   1.095   8.940  0.00  0.00    +0.000 C 
ATOM     15  C   UNL     1      44.519   2.520   9.424  0.00  0.00    +0.000 C 
ATOM     16  C   UNL     1      45.129   3.398   8.337  0.00  0.00    +0.000 C 
BRANCH  12  18
ATOM     17  N   UNL     1      47.130   3.262   5.484  0.00  0.00    +0.000 NA
ATOM     18  C   UNL     1      46.813   2.983   6.554  0.00  0.00    +0.000 C 
ENDBRANCH  12  18
ENDBRANCH   8  16
ENDBRANCH   7  10
ENDBRANCH   1   7
BRANCH   4  19
ATOM     19  C   UNL     1      46.338   4.611  14.930  0.00  0.00    +0.000 C 
BRANCH  19  20
ATOM     20  N   UNL     1      47.521   4.725  15.764  0.00  0.00    +0.000 N 
ATOM     21  C   UNL     1      47.637   4.024  16.939  0.00  0.00    +0.000 C 
ATOM     22  O   UNL     1      46.756   3.272  17.345  0.00  0.00    +0.000 OA
ATOM     23  H   UNL     1      48.123   5.530  15.623  0.00  0.00    +0.000 HD
BRANCH  21  24
ATOM     24  C   UNL     1      48.899   4.180  17.667  0.00  0.00    +0.000 A 
ATOM     25  C   UNL     1      49.079   5.268  18.510  0.00  0.00    +0.000 A 
ATOM     26  S   UNL     1      50.625   5.323  19.226  0.00  0.00    +0.000 S 
ATOM     27  C   UNL     1      51.105   3.897  18.430  0.00  0.00    +0.000 A 
ATOM     28  N   UNL     1      52.362   3.395  18.578  0.00  0.00    +0.000 NA
ATOM     29  C   UNL     1      52.582   2.301  17.929  0.00  0.00    +0.000 A 
ATOM     30  N   UNL     1      51.661   1.660  17.148  0.00  0.00    +0.000 N 
ATOM     31  C   UNL     1      50.389   2.144  16.946  0.00  0.00    +0.000 A 
ATOM     32  O   UNL     1      49.595   1.547  16.237  0.00  0.00    +0.000 OA
ATOM     33  C   UNL     1      50.089   3.370  17.657  0.00  0.00    +0.000 A 
ATOM     34  H   UNL     1      51.884   0.795  16.676  0.00  0.00    +0.000 HD
ENDBRANCH  21  24
ENDBRANCH  19  20
ENDBRANCH   4  19
TORSDOF 7
ENDMDL
MODEL 2
REMARK VINA RESULT:    -7.781      2.939      8.832
REMARK INTER + INTRA:         -11.526
REMARK INTER:                 -10.395
REMARK INTRA:                  -1.130
REMARK UNBOUND:                -0.561
REMARK  Name = 
REMARK  7 active torsions:
REMARK  status: ('A' for Active; 'I' for Inactive)
REMARK    1  A    between atoms: C_2  and  C_3
REMARK    2  A    between atoms: C_7  and  C_8
REMARK    3  A    between atoms: N_10  and  C_11
REMARK    4  A    between atoms: C_11  and  C_12
REMARK    5  A    between atoms: C_15  and  C_16
REMARK    6  A    between atoms: C_16  and  N_17
REMARK    7  A    between atoms: C_18  and  C_20
REMARK                            x       y       z     vdW  Elec       q    Type
REMARK                         _______ _______ _______ _____ _____    ______ ____
ROOT
ATOM      1  C   UNL     1      48.375   7.589  15.270  0.00  0.00    +0.000 C 
ATOM      2  C   UNL     1      48.226   8.965  14.596  0.00  0.00    +0.000 C 
ATOM      3  C   UNL     1      49.066   9.077  13.319  0.00  0.00    +0.000 C 
ATOM      4  C   UNL     1      48.770   7.956  12.307  0.00  0.00    +0.000 C 
ATOM      5  C   UNL     1      48.975   6.600  13.006  0.00  0.00    +0.000 C 
ATOM      6  C   UNL     1      48.094   6.467  14.251  0.00  0.00    +0.000 C 
ENDROOT
BRANCH   1   7
ATOM      7  C   UNL     1      49.776   7.420  15.888  0.00  0.00    +0.000 C 
BRANCH   7  10
ATOM      8  C   UNL     1      49.663   5.711  17.636  0.00  0.00    +0.000 C 
ATOM      9  O   UNL     1      49.156   6.497  18.430  0.00  0.00    +0.000 OA
ATOM     10  N   UNL     1      50.031   6.075  16.361  0.00  0.00    +0.000 N 
ATOM     11  H   UNL     1      50.585   5.453  15.791  0.00  0.00    +0.000 HD
BRANCH   8  16
ATOM     12  C   UNL     1      49.256   3.320  16.974  0.00  0.00    +0.000 C 
ATOM     13  C   UNL     1      50.062   2.023  17.069  0.00  0.00    +0.000 C 
ATOM     14  C   UNL     1      51.428   2.401  17.639  0.00  0.00    +0.000 C 
ATOM     15  C   UNL     1      51.405   3.908  17.848  0.00  0.00    +0.000 C 
ATOM     16  C   UNL     1      49.927   4.259  17.983  0.00  0.00    +0.000 C 
BRANCH  12  18
ATOM     17  N   UNL     1      46.711   2.962  17.508  0.00  0.00    +0.000 NA
ATOM     18  C   UNL     1      47.830   3.112  17.292  0.00  0.00    +0.000 C 
ENDBRANCH  12  18
ENDBRANCH   8  16
ENDBRANCH   7  10
ENDBRANCH   1   7
BRANCH   4  19
ATOM     19  C   UNL     1      47.355   8.095  11.713  0.00  0.00    +0.000 C 
BRANCH  19  20
ATOM     20  N   UNL     1      46.666   6.821  11.604  0.00  0.00    +0.000 N 
ATOM     21  C   UNL     1      45.295   6.753  11.555  0.00  0.00    +0.000 C 
ATOM     22  O   UNL     1      44.585   7.753  11.602  0.00  0.00    +0.000 OA
ATOM     23  H   UNL     1      47.181   5.983  11.852  0.00  0.00    +0.000 HD
BRANCH  21  24
ATOM     24  C   UNL     1      44.717   5.417  11.392  0.00  0.00    +0.000 A 
ATOM     25  C   UNL     1      43.918   4.884  12.395  0.00  0.00    +0.000 A 
ATOM     26  S   UNL     1      43.382   3.300  12.064  0.00  0.00    +0.000 S 
ATOM     27  C   UNL     1      44.201   3.274  10.573  0.00  0.00    +0.000 A 
ATOM     28  N   UNL     1      44.186   2.167   9.779  0.00  0.00    +0.000 NA
ATOM     29  C   UNL     1      44.837   2.295   8.671  0.00  0.00    +0.000 A 
ATOM     30  N   UNL     1      45.498   3.427   8.282  0.00  0.00    +0.000 N 
ATOM     31  C   UNL     1      45.565   4.557   9.062  0.00  0.00    +0.000 A 
ATOM     32  O   UNL     1      46.169   5.548   8.684  0.00  0.00    +0.000 OA
ATOM     33  C   UNL     1      44.846   4.468  10.317  0.00  0.00    +0.000 A 
ATOM     34  H   UNL     1      45.976   3.475   7.393  0.00  0.00    +0.000 HD
ENDBRANCH  21  24
ENDBRANCH  19  20
ENDBRANCH   4  19
TORSDOF 7
ENDMDL
MODEL 3
REMARK VINA RESULT:    -7.619      3.550      8.723
REMARK INTER + INTRA:         -11.297
REMARK INTER:                 -10.002
REMARK INTRA:                  -1.294
REMARK UNBOUND:                -0.561
REMARK  Name = 
REMARK  7 active torsions:
REMARK  status: ('A' for Active; 'I' for Inactive)
REMARK    1  A    between atoms: C_2  and  C_3
REMARK    2  A    between atoms: C_7  and  C_8
REMARK    3  A    between atoms: N_10  and  C_11
REMARK    4  A    between atoms: C_11  and  C_12
REMARK    5  A    between atoms: C_15  and  C_16
REMARK    6  A    between atoms: C_16  and  N_17
REMARK    7  A    between atoms: C_18  and  C_20
REMARK                            x       y       z     vdW  Elec       q    Type
REMARK                         _______ _______ _______ _____ _____    ______ ____
ROOT
ATOM      1  C   UNL     1      48.603   7.894  15.693  0.00  0.00    +0.000 C 
ATOM      2  C   UNL     1      48.688   9.260  14.988  0.00  0.00    +0.000 C 
ATOM      3  C   UNL     1      49.666   9.242  13.809  0.00  0.00    +0.000 C 
ATOM      4  C   UNL     1      49.352   8.136  12.786  0.00  0.00    +0.000 C 
ATOM      5  C   UNL     1      49.322   6.784  13.522  0.00  0.00    +0.000 C 
ATOM      6  C   UNL     1      48.304   6.786  14.665  0.00  0.00    +0.000 C 
ENDROOT
BRANCH   1   7
ATOM      7  C   UNL     1      49.900   7.583  16.463  0.00  0.00    +0.000 C 
BRANCH   7  10
ATOM      8  C   UNL     1      49.632   5.638  17.924  0.00  0.00    +0.000 C 
ATOM      9  O   UNL     1      49.120   6.319  18.806  0.00  0.00    +0.000 OA
ATOM     10  N   UNL     1      50.076   6.171  16.735  0.00  0.00    +0.000 N 
ATOM     11  H   UNL     1      50.631   5.616  16.100  0.00  0.00    +0.000 HD
BRANCH   8  16
ATOM     12  C   UNL     1      49.119   3.394  16.913  0.00  0.00    +0.000 C 
ATOM     13  C   UNL     1      49.858   2.058  16.824  0.00  0.00    +0.000 C 
ATOM     14  C   UNL     1      51.231   2.277  17.457  0.00  0.00    +0.000 C 
ATOM     15  C   UNL     1      51.279   3.736  17.884  0.00  0.00    +0.000 C 
ATOM     16  C   UNL     1      49.818   4.140  18.055  0.00  0.00    +0.000 C 
BRANCH  12  18
ATOM     17  N   UNL     1      46.566   3.065  17.428  0.00  0.00    +0.000 NA
ATOM     18  C   UNL     1      47.679   3.215  17.184  0.00  0.00    +0.000 C 
ENDBRANCH  12  18
ENDBRANCH   8  16
ENDBRANCH   7  10
ENDBRANCH   1   7
BRANCH   4  19
ATOM     19  C   UNL     1      48.034   8.420  12.039  0.00  0.00    +0.000 C 
BRANCH  19  20
ATOM     20  N   UNL     1      47.428   7.217  11.496  0.00  0.00    +0.000 N 
ATOM     21  C   UNL     1      46.064   7.061  11.453  0.00  0.00    +0.000 C 
ATOM     22  O   UNL     1      45.291   7.919  11.866  0.00  0.00    +0.000 OA
ATOM     23  H   UNL     1      48.009   6.388  11.419  0.00  0.00    +0.000 HD
BRANCH  21  24
ATOM     24  C   UNL     1      45.570   5.828  10.834  0.00  0.00    +0.000 A 
ATOM     25  C   UNL     1      45.793   5.598   9.483  0.00  0.00    +0.000 A 
ATOM     26  S   UNL     1      45.099   4.147   8.919  0.00  0.00    +0.000 S 
ATOM     27  C   UNL     1      44.476   3.781  10.461  0.00  0.00    +0.000 A 
ATOM     28  N   UNL     1      43.726   2.664  10.671  0.00  0.00    +0.000 NA
ATOM     29  C   UNL     1      43.333   2.505  11.891  0.00  0.00    +0.000 A 
ATOM     30  N   UNL     1      43.623   3.358  12.920  0.00  0.00    +0.000 N 
ATOM     31  C   UNL     1      44.352   4.511  12.749  0.00  0.00    +0.000 A 
ATOM     32  O   UNL     1      44.587   5.252  13.691  0.00  0.00    +0.000 OA
ATOM     33  C   UNL     1      44.822   4.735  11.397  0.00  0.00    +0.000 A 
ATOM     34  H   UNL     1      43.303   3.173  13.859  0.00  0.00    +0.000 HD
ENDBRANCH  21  24
ENDBRANCH  19  20
ENDBRANCH   4  19
TORSDOF 7
ENDMDL
MODEL 4
REMARK VINA RESULT:    -7.032      3.746      8.520
REMARK INTER + INTRA:         -10.471
REMARK INTER:                  -8.793
REMARK INTRA:                  -1.678
REMARK UNBOUND:                -0.561
REMARK  Name = 
REMARK  7 active torsions:
REMARK  status: ('A' for Active; 'I' for Inactive)
REMARK    1  A    between atoms: C_2  and  C_3
REMARK    2  A    between atoms: C_7  and  C_8
REMARK    3  A    between atoms: N_10  and  C_11
REMARK    4  A    between atoms: C_11  and  C_12
REMARK    5  A    between atoms: C_15  and  C_16
REMARK    6  A    between atoms: C_16  and  N_17
REMARK    7  A    between atoms: C_18  and  C_20
REMARK                            x       y       z     vdW  Elec       q    Type
REMARK                         _______ _______ _______ _____ _____    ______ ____
ROOT
ATOM      1  C   UNL     1      51.077   7.613  15.590  0.00  0.00    +0.000 C 
ATOM      2  C   UNL     1      49.782   6.923  15.127  0.00  0.00    +0.000 C 
ATOM      3  C   UNL     1      48.569   7.350  15.960  0.00  0.00    +0.000 C 
ATOM      4  C   UNL     1      48.374   8.877  15.994  0.00  0.00    +0.000 C 
ATOM      5  C   UNL     1      49.672   9.524  16.506  0.00  0.00    +0.000 C 
ATOM      6  C   UNL     1      50.875   9.140  15.639  0.00  0.00    +0.000 C 
ENDROOT
BRANCH   1   7
ATOM      7  C   UNL     1      51.530   7.083  16.964  0.00  0.00    +0.000 C 
BRANCH   7  10
ATOM      8  C   UNL     1      50.437   5.193  18.068  0.00  0.00    +0.000 C 
ATOM      9  O   UNL     1      49.833   5.936  18.835  0.00  0.00    +0.000 OA
ATOM     10  N   UNL     1      51.320   5.659  17.122  0.00  0.00    +0.000 N 
ATOM     11  H   UNL     1      51.915   5.018  16.617  0.00  0.00    +0.000 HD
BRANCH   8  16
ATOM     12  C   UNL     1      49.415   3.217  16.899  0.00  0.00    +0.000 C 
ATOM     13  C   UNL     1      49.817   1.753  16.702  0.00  0.00    +0.000 C 
ATOM     14  C   UNL     1      51.199   1.594  17.335  0.00  0.00    +0.000 C 
ATOM     15  C   UNL     1      51.587   2.964  17.870  0.00  0.00    +0.000 C 
ATOM     16  C   UNL     1      50.262   3.688  18.086  0.00  0.00    +0.000 C 
BRANCH  12  18
ATOM     17  N   UNL     1      46.849   3.447  17.401  0.00  0.00    +0.000 NA
ATOM     18  C   UNL     1      47.972   3.363  17.170  0.00  0.00    +0.000 C 
ENDBRANCH  12  18
ENDBRANCH   8  16
ENDBRANCH   7  10
ENDBRANCH   1   7
BRANCH   4  19
ATOM     19  C   UNL     1      47.958   9.421  14.612  0.00  0.00    +0.000 C 
BRANCH  19  20
ATOM     20  N   UNL     1      46.885   8.652  14.008  0.00  0.00    +0.000 N 
ATOM     21  C   UNL     1      47.073   7.964  12.834  0.00  0.00    +0.000 C 
ATOM     22  O   UNL     1      48.146   7.962  12.238  0.00  0.00    +0.000 OA
ATOM     23  H   UNL     1      45.934   8.859  14.296  0.00  0.00    +0.000 HD
BRANCH  21  24
ATOM     24  C   UNL     1      45.933   7.182  12.349  0.00  0.00    +0.000 A 
ATOM     25  C   UNL     1      44.898   7.818  11.677  0.00  0.00    +0.000 A 
ATOM     26  S   UNL     1      43.628   6.768  11.240  0.00  0.00    +0.000 S 
ATOM     27  C   UNL     1      44.419   5.432  11.937  0.00  0.00    +0.000 A 
ATOM     28  N   UNL     1      43.844   4.197  11.944  0.00  0.00    +0.000 NA
ATOM     29  C   UNL     1      44.564   3.275  12.492  0.00  0.00    +0.000 A 
ATOM     30  N   UNL     1      45.805   3.473  13.031  0.00  0.00    +0.000 N 
ATOM     31  C   UNL     1      46.412   4.706  13.072  0.00  0.00    +0.000 A 
ATOM     32  O   UNL     1      47.519   4.845  13.566  0.00  0.00    +0.000 OA
ATOM     33  C   UNL     1      45.647   5.776  12.465  0.00  0.00    +0.000 A 
ATOM     34  H   UNL     1      46.330   2.708  13.431  0.00  0.00    +0.000 HD
ENDBRANCH  21  24
ENDBRANCH  19  20
ENDBRANCH   4  19
TORSDOF 7
ENDMDL
MODEL 5
REMARK VINA RESULT:    -6.988      2.755      4.098
REMARK INTER + INTRA:         -10.409
REMARK INTER:                  -8.743
REMARK INTRA:                  -1.665
REMARK UNBOUND:                -0.561
REMARK  Name = 
REMARK  7 active torsions:
REMARK  status: ('A' for Active; 'I' for Inactive)
REMARK    1  A    between atoms: C_2  and  C_3
REMARK    2  A    between atoms: C_7  and  C_8
REMARK    3  A    between atoms: N_10  and  C_11
REMARK    4  A    between atoms: C_11  and  C_12
REMARK    5  A    between atoms: C_15  and  C_16
REMARK    6  A    between atoms: C_16  and  N_17
REMARK    7  A    between atoms: C_18  and  C_20
REMARK                            x       y       z     vdW  Elec       q    Type
REMARK                         _______ _______ _______ _____ _____    ______ ____
ROOT
ATOM      1  C   UNL     1      46.565   8.487  13.009  0.00  0.00    +0.000 C 
ATOM      2  C   UNL     1      47.432   7.349  13.579  0.00  0.00    +0.000 C 
ATOM      3  C   UNL     1      48.603   6.996  12.656  0.00  0.00    +0.000 C 
ATOM      4  C   UNL     1      49.482   8.212  12.311  0.00  0.00    +0.000 C 
ATOM      5  C   UNL     1      48.587   9.306  11.702  0.00  0.00    +0.000 C 
ATOM      6  C   UNL     1      47.449   9.697  12.650  0.00  0.00    +0.000 C 
ENDROOT
BRANCH   1   7
ATOM      7  C   UNL     1      45.767   8.015  11.778  0.00  0.00    +0.000 C 
BRANCH   7  10
ATOM      8  C   UNL     1      45.647   5.717  10.945  0.00  0.00    +0.000 C 
ATOM      9  O   UNL     1      46.320   5.996   9.958  0.00  0.00    +0.000 OA
ATOM     10  N   UNL     1      45.296   6.651  11.894  0.00  0.00    +0.000 N 
ATOM     11  H   UNL     1      44.616   6.427  12.605  0.00  0.00    +0.000 HD
BRANCH   8  16
ATOM     12  C   UNL     1      44.967   4.075  12.722  0.00  0.00    +0.000 C 
ATOM     13  C   UNL     1      43.941   2.943  12.809  0.00  0.00    +0.000 C 
ATOM     14  C   UNL     1      43.165   2.959  11.492  0.00  0.00    +0.000 C 
ATOM     15  C   UNL     1      43.734   4.106  10.671  0.00  0.00    +0.000 C 
ATOM     16  C   UNL     1      45.142   4.315  11.219  0.00  0.00    +0.000 C 
BRANCH  12  18
ATOM     17  N   UNL     1      47.224   3.406  13.884  0.00  0.00    +0.000 NA
ATOM     18  C   UNL     1      46.244   3.715  13.367  0.00  0.00    +0.000 C 
ENDBRANCH  12  18
ENDBRANCH   8  16
ENDBRANCH   7  10
ENDBRANCH   1   7
BRANCH   4  19
ATOM     19  C   UNL     1      50.254   8.715  13.547  0.00  0.00    +0.000 C 
BRANCH  19  20
ATOM     20  N   UNL     1      50.746   7.631  14.379  0.00  0.00    +0.000 N 
ATOM     21  C   UNL     1      50.550   7.629  15.739  0.00  0.00    +0.000 C 
ATOM     22  O   UNL     1      49.956   8.533  16.319  0.00  0.00    +0.000 OA
ATOM     23  H   UNL     1      51.472   7.034  13.997  0.00  0.00    +0.000 HD
BRANCH  21  24
ATOM     24  C   UNL     1      51.045   6.456  16.464  0.00  0.00    +0.000 A 
ATOM     25  C   UNL     1      52.393   6.359  16.778  0.00  0.00    +0.000 A 
ATOM     26  S   UNL     1      52.802   4.904  17.567  0.00  0.00    +0.000 S 
ATOM     27  C   UNL     1      51.191   4.357  17.513  0.00  0.00    +0.000 A 
ATOM     28  N   UNL     1      50.846   3.132  17.998  0.00  0.00    +0.000 NA
ATOM     29  C   UNL     1      49.587   2.856  17.905  0.00  0.00    +0.000 A 
ATOM     30  N   UNL     1      48.643   3.691  17.375  0.00  0.00    +0.000 N 
ATOM     31  C   UNL     1      48.950   4.924  16.848  0.00  0.00    +0.000 A 
ATOM     32  O   UNL     1      48.081   5.640  16.379  0.00  0.00    +0.000 OA
ATOM     33  C   UNL     1      50.350   5.285  16.932  0.00  0.00    +0.000 A 
ATOM     34  H   UNL     1      47.669   3.428  17.345  0.00  0.00    +0.000 HD
ENDBRANCH  21  24
ENDBRANCH  19  20
ENDBRANCH   4  19
TORSDOF 7
ENDMDL
MODEL 6
REMARK VINA RESULT:    -6.820      3.410      5.577
REMARK INTER + INTRA:         -10.172
REMARK INTER:                  -9.051
REMARK INTRA:                  -1.121
REMARK UNBOUND:                -0.561
REMARK  Name = 
REMARK  7 active torsions:
REMARK  status: ('A' for Active; 'I' for Inactive)
REMARK    1  A    between atoms: C_2  and  C_3
REMARK    2  A    between atoms: C_7  and  C_8
REMARK    3  A    between atoms: N_10  and  C_11
REMARK    4  A    between atoms: C_11  and  C_12
REMARK    5  A    between atoms: C_15  and  C_16
REMARK    6  A    between atoms: C_16  and  N_17
REMARK    7  A    between atoms: C_18  and  C_20
REMARK                            x       y       z     vdW  Elec       q    Type
REMARK                         _______ _______ _______ _____ _____    ______ ____
ROOT
ATOM      1  C   UNL     1      48.347   4.969  16.522  0.00  0.00    +0.000 C 
ATOM      2  C   UNL     1      48.212   6.069  17.591  0.00  0.00    +0.000 C 
ATOM      3  C   UNL     1      47.901   5.494  18.977  0.00  0.00    +0.000 C 
ATOM      4  C   UNL     1      48.922   4.435  19.429  0.00  0.00    +0.000 C 
ATOM      5  C   UNL     1      48.991   3.333  18.358  0.00  0.00    +0.000 C 
ATOM      6  C   UNL     1      49.358   3.902  16.985  0.00  0.00    +0.000 C 
ENDROOT
BRANCH   1   7
ATOM      7  C   UNL     1      46.982   4.324  16.213  0.00  0.00    +0.000 C 
BRANCH   7  10
ATOM      8  C   UNL     1      46.693   4.202  13.786  0.00  0.00    +0.000 C 
ATOM      9  O   UNL     1      47.494   3.277  13.695  0.00  0.00    +0.000 OA
ATOM     10  N   UNL     1      46.389   4.808  14.983  0.00  0.00    +0.000 N 
ATOM     11  H   UNL     1      45.851   5.662  15.003  0.00  0.00    +0.000 HD
BRANCH   8  16
ATOM     12  C   UNL     1      44.446   4.819  12.843  0.00  0.00    +0.000 C 
ATOM     13  C   UNL     1      43.938   5.899  11.886  0.00  0.00    +0.000 C 
ATOM     14  C   UNL     1      45.138   6.785  11.555  0.00  0.00    +0.000 C 
ATOM     15  C   UNL     1      46.316   6.224  12.336  0.00  0.00    +0.000 C 
ATOM     16  C   UNL     1      45.956   4.763  12.586  0.00  0.00    +0.000 C 
BRANCH  12  18
ATOM     17  N   UNL     1      43.302   2.491  12.439  0.00  0.00    +0.000 NA
ATOM     18  C   UNL     1      43.805   3.513  12.596  0.00  0.00    +0.000 C 
ENDBRANCH  12  18
ENDBRANCH   8  16
ENDBRANCH   7  10
ENDBRANCH   1   7
BRANCH   4  19
ATOM     19  C   UNL     1      50.301   5.067  19.703  0.00  0.00    +0.000 C 
BRANCH  19  20
ATOM     20  N   UNL     1      51.367   4.082  19.761  0.00  0.00    +0.000 N 
ATOM     21  C   UNL     1      52.517   4.230  19.026  0.00  0.00    +0.000 C 
ATOM     22  O   UNL     1      52.706   5.192  18.289  0.00  0.00    +0.000 OA
ATOM     23  H   UNL     1      51.137   3.158  20.114  0.00  0.00    +0.000 HD
BRANCH  21  24
ATOM     24  C   UNL     1      53.542   3.199  19.208  0.00  0.00    +0.000 A 
ATOM     25  C   UNL     1      54.658   3.466  19.989  0.00  0.00    +0.000 A 
ATOM     26  S   UNL     1      55.774   2.178  20.041  0.00  0.00    +0.000 S 
ATOM     27  C   UNL     1      54.802   1.223  19.020  0.00  0.00    +0.000 A 
ATOM     28  N   UNL     1      55.202  -0.018  18.625  0.00  0.00    +0.000 NA
ATOM     29  C   UNL     1      54.359  -0.634  17.865  0.00  0.00    +0.000 A 
ATOM     30  N   UNL     1      53.154  -0.126  17.465  0.00  0.00    +0.000 N 
ATOM     31  C   UNL     1      52.722   1.132  17.815  0.00  0.00    +0.000 A 
ATOM     32  O   UNL     1      51.642   1.554  17.434  0.00  0.00    +0.000 OA
ATOM     33  C   UNL     1      53.630   1.865  18.673  0.00  0.00    +0.000 A 
ATOM     34  H   UNL     1      52.527  -0.663  16.883  0.00  0.00    +0.000 HD
ENDBRANCH  21  24
ENDBRANCH  19  20
ENDBRANCH   4  19
TORSDOF 7
ENDMDL
MODEL 7
REMARK VINA RESULT:    -6.739      2.559      3.771
REMARK INTER + INTRA:         -10.058
REMARK INTER:                  -9.269
REMARK INTRA:                  -0.789
REMARK UNBOUND:                -0.561
REMARK  Name = 
REMARK  7 active torsions:
REMARK  status: ('A' for Active; 'I' for Inactive)
REMARK    1  A    between atoms: C_2  and  C_3
REMARK    2  A    between atoms: C_7  and  C_8
REMARK    3  A    between atoms: N_10  and  C_11
REMARK    4  A    between atoms: C_11  and  C_12
REMARK    5  A    between atoms: C_15  and  C_16
REMARK    6  A    between atoms: C_16  and  N_17
REMARK    7  A    between atoms: C_18  and  C_20
REMARK                            x       y       z     vdW  Elec       q    Type
REMARK                         _______ _______ _______ _____ _____    ______ ____
ROOT
ATOM      1  C   UNL     1      48.170   8.349  12.432  0.00  0.00    +0.000 C 
ATOM      2  C   UNL     1      48.236   9.331  13.616  0.00  0.00    +0.000 C 
ATOM      3  C   UNL     1      47.938   8.645  14.954  0.00  0.00    +0.000 C 
ATOM      4  C   UNL     1      48.847   7.431  15.219  0.00  0.00    +0.000 C 
ATOM      5  C   UNL     1      48.717   6.454  14.038  0.00  0.00    +0.000 C 
ATOM      6  C   UNL     1      49.068   7.127  12.707  0.00  0.00    +0.000 C 
ENDROOT
BRANCH   1   7
ATOM      7  C   UNL     1      46.720   7.904  12.158  0.00  0.00    +0.000 C 
BRANCH   7  10
ATOM      8  C   UNL     1      45.426   6.130  11.078  0.00  0.00    +0.000 C 
ATOM      9  O   UNL     1      44.384   6.768  11.184  0.00  0.00    +0.000 OA
ATOM     10  N   UNL     1      46.633   6.592  11.551  0.00  0.00    +0.000 N 
ATOM     11  H   UNL     1      47.435   5.980  11.590  0.00  0.00    +0.000 HD
BRANCH   8  16
ATOM     12  C   UNL     1      44.126   4.066  10.471  0.00  0.00    +0.000 C 
ATOM     13  C   UNL     1      44.160   3.074   9.307  0.00  0.00    +0.000 C 
ATOM     14  C   UNL     1      45.202   3.597   8.320  0.00  0.00    +0.000 C 
ATOM     15  C   UNL     1      45.742   4.891   8.911  0.00  0.00    +0.000 C 
ATOM     16  C   UNL     1      45.485   4.771  10.410  0.00  0.00    +0.000 C 
BRANCH  12  18
ATOM     17  N   UNL     1      43.728   2.867  12.772  0.00  0.00    +0.000 NA
ATOM     18  C   UNL     1      43.922   3.392  11.768  0.00  0.00    +0.000 C 
ENDBRANCH  12  18
ENDBRANCH   8  16
ENDBRANCH   7  10
ENDBRANCH   1   7
BRANCH   4  19
ATOM     19  C   UNL     1      50.308   7.864  15.456  0.00  0.00    +0.000 C 
BRANCH  19  20
ATOM     20  N   UNL     1      51.145   6.775  15.927  0.00  0.00    +0.000 N 
ATOM     21  C   UNL     1      51.071   6.326  17.223  0.00  0.00    +0.000 C 
ATOM     22  O   UNL     1      50.302   6.814  18.045  0.00  0.00    +0.000 OA
ATOM     23  H   UNL     1      51.973   6.548  15.386  0.00  0.00    +0.000 HD
BRANCH  21  24
ATOM     24  C   UNL     1      51.927   5.187  17.565  0.00  0.00    +0.000 A 
ATOM     25  C   UNL     1      53.245   5.406  17.943  0.00  0.00    +0.000 A 
ATOM     26  S   UNL     1      54.111   3.968  18.246  0.00  0.00    +0.000 S 
ATOM     27  C   UNL     1      52.753   3.009  17.880  0.00  0.00    +0.000 A 
ATOM     28  N   UNL     1      52.823   1.649  17.907  0.00  0.00    +0.000 NA
ATOM     29  C   UNL     1      51.714   1.050  17.623  0.00  0.00    +0.000 A 
ATOM     30  N   UNL     1      50.543   1.685  17.317  0.00  0.00    +0.000 N 
ATOM     31  C   UNL     1      50.432   3.054  17.249  0.00  0.00    +0.000 A 
ATOM     32  O   UNL     1      49.371   3.586  16.967  0.00  0.00    +0.000 OA
ATOM     33  C   UNL     1      51.649   3.775  17.564  0.00  0.00    +0.000 A 
ATOM     34  H   UNL     1      49.701   1.164  17.120  0.00  0.00    +0.000 HD
ENDBRANCH  21  24
ENDBRANCH  19  20
ENDBRANCH   4  19
TORSDOF 7
ENDMDL
MODEL 8
REMARK VINA RESULT:    -6.738      5.265      8.250
REMARK INTER + INTRA:         -10.056
REMARK INTER:                  -8.954
REMARK INTRA:                  -1.102
REMARK UNBOUND:                -0.561
REMARK  Name = 
REMARK  7 active torsions:
REMARK  status: ('A' for Active; 'I' for Inactive)
REMARK    1  A    between atoms: C_2  and  C_3
REMARK    2  A    between atoms: C_7  and  C_8
REMARK    3  A    between atoms: N_10  and  C_11
REMARK    4  A    between atoms: C_11  and  C_12
REMARK    5  A    between atoms: C_15  and  C_16
REMARK    6  A    between atoms: C_16  and  N_17
REMARK    7  A    between atoms: C_18  and  C_20
REMARK                            x       y       z     vdW  Elec       q    Type
REMARK                         _______ _______ _______ _____ _____    ______ ____
ROOT
ATOM      1  C   UNL     1      49.753   8.881  11.375  0.00  0.00    +0.000 C 
ATOM      2  C   UNL     1      49.097   7.490  11.296  0.00  0.00    +0.000 C 
ATOM      3  C   UNL     1      49.012   6.811  12.667  0.00  0.00    +0.000 C 
ATOM      4  C   UNL     1      48.297   7.676  13.721  0.00  0.00    +0.000 C 
ATOM      5  C   UNL     1      49.011   9.037  13.803  0.00  0.00    +0.000 C 
ATOM      6  C   UNL     1      49.046   9.739  12.442  0.00  0.00    +0.000 C 
ENDROOT
BRANCH   1   7
ATOM      7  C   UNL     1      51.259   8.770  11.682  0.00  0.00    +0.000 C 
BRANCH   7  10
ATOM      8  C   UNL     1      52.590   7.847   9.847  0.00  0.00    +0.000 C 
ATOM      9  O   UNL     1      52.396   6.698  10.229  0.00  0.00    +0.000 OA
ATOM     10  N   UNL     1      52.092   8.946  10.511  0.00  0.00    +0.000 N 
ATOM     11  H   UNL     1      52.399   9.875  10.264  0.00  0.00    +0.000 HD
BRANCH   8  16
ATOM     12  C   UNL     1      52.630   7.766   7.335  0.00  0.00    +0.000 C 
ATOM     13  C   UNL     1      53.226   8.650   6.237  0.00  0.00    +0.000 C 
ATOM     14  C   UNL     1      53.844   9.858   6.940  0.00  0.00    +0.000 C 
ATOM     15  C   UNL     1      53.582   9.672   8.426  0.00  0.00    +0.000 C 
ATOM     16  C   UNL     1      53.392   8.169   8.602  0.00  0.00    +0.000 C 
BRANCH  12  18
ATOM     17  N   UNL     1      52.879   5.207   6.806  0.00  0.00    +0.000 NA
ATOM     18  C   UNL     1      52.790   6.330   7.038  0.00  0.00    +0.000 C 
ENDBRANCH  12  18
ENDBRANCH   8  16
ENDBRANCH   7  10
ENDBRANCH   1   7
BRANCH   4  19
ATOM     19  C   UNL     1      46.797   7.825  13.400  0.00  0.00    +0.000 C 
BRANCH  19  20
ATOM     20  N   UNL     1      46.186   6.575  12.984  0.00  0.00    +0.000 N 
ATOM     21  C   UNL     1      45.192   6.546  12.037  0.00  0.00    +0.000 C 
ATOM     22  O   UNL     1      44.770   7.563  11.496  0.00  0.00    +0.000 OA
ATOM     23  H   UNL     1      46.292   5.772  13.596  0.00  0.00    +0.000 HD
BRANCH  21  24
ATOM     24  C   UNL     1      44.692   5.221  11.661  0.00  0.00    +0.000 A 
ATOM     25  C   UNL     1      43.905   4.504  12.553  0.00  0.00    +0.000 A 
ATOM     26  S   UNL     1      43.462   2.962  11.977  0.00  0.00    +0.000 S 
ATOM     27  C   UNL     1      44.310   3.202  10.520  0.00  0.00    +0.000 A 
ATOM     28  N   UNL     1      44.370   2.227   9.571  0.00  0.00    +0.000 NA
ATOM     29  C   UNL     1      45.033   2.552   8.512  0.00  0.00    +0.000 A 
ATOM     30  N   UNL     1      45.639   3.762   8.313  0.00  0.00    +0.000 N 
ATOM     31  C   UNL     1      45.628   4.764   9.253  0.00  0.00    +0.000 A 
ATOM     32  O   UNL     1      46.185   5.830   9.043  0.00  0.00    +0.000 OA
ATOM     33  C   UNL     1      44.893   4.452  10.461  0.00  0.00    +0.000 A 
ATOM     34  H   UNL     1      46.130   3.966   7.454  0.00  0.00    +0.000 HD
ENDBRANCH  21  24
ENDBRANCH  19  20
ENDBRANCH   4  19
TORSDOF 7
ENDMDL
MODEL 9
REMARK VINA RESULT:    -6.648      3.037      4.623
REMARK INTER + INTRA:          -9.930
REMARK INTER:                  -8.490
REMARK INTRA:                  -1.440
REMARK UNBOUND:                -0.561
REMARK  Name = 
REMARK  7 active torsions:
REMARK  status: ('A' for Active; 'I' for Inactive)
REMARK    1  A    between atoms: C_2  and  C_3
REMARK    2  A    between atoms: C_7  and  C_8
REMARK    3  A    between atoms: N_10  and  C_11
REMARK    4  A    between atoms: C_11  and  C_12
REMARK    5  A    between atoms: C_15  and  C_16
REMARK    6  A    between atoms: C_16  and  N_17
REMARK    7  A    between atoms: C_18  and  C_20
REMARK                            x       y       z     vdW  Elec       q    Type
REMARK                         _______ _______ _______ _____ _____    ______ ____
ROOT
ATOM      1  C   UNL     1      49.402   8.025  12.857  0.00  0.00    +0.000 C 
ATOM      2  C   UNL     1      49.968   9.391  13.287  0.00  0.00    +0.000 C 
ATOM      3  C   UNL     1      49.112  10.056  14.371  0.00  0.00    +0.000 C 
ATOM      4  C   UNL     1      48.901   9.157  15.603  0.00  0.00    +0.000 C 
ATOM      5  C   UNL     1      48.292   7.823  15.136  0.00  0.00    +0.000 C 
ATOM      6  C   UNL     1      49.176   7.133  14.093  0.00  0.00    +0.000 C 
ENDROOT
BRANCH   1   7
ATOM      7  C   UNL     1      48.093   8.190  12.062  0.00  0.00    +0.000 C 
BRANCH   7  10
ATOM      8  C   UNL     1      46.133   6.729  12.174  0.00  0.00    +0.000 C 
ATOM      9  O   UNL     1      45.495   7.564  12.806  0.00  0.00    +0.000 OA
ATOM     10  N   UNL     1      47.436   6.931  11.780  0.00  0.00    +0.000 N 
ATOM     11  H   UNL     1      47.980   6.169  11.402  0.00  0.00    +0.000 HD
BRANCH   8  16
ATOM     12  C   UNL     1      45.199   4.540  12.984  0.00  0.00    +0.000 C 
ATOM     13  C   UNL     1      44.124   3.575  12.481  0.00  0.00    +0.000 C 
ATOM     14  C   UNL     1      43.495   4.227  11.251  0.00  0.00    +0.000 C 
ATOM     15  C   UNL     1      44.196   5.565  11.068  0.00  0.00    +0.000 C 
ATOM     16  C   UNL     1      45.544   5.395  11.760  0.00  0.00    +0.000 C 
BRANCH  12  18
ATOM     17  N   UNL     1      47.286   3.259  13.928  0.00  0.00    +0.000 NA
ATOM     18  C   UNL     1      46.384   3.830  13.501  0.00  0.00    +0.000 C 
ENDBRANCH  12  18
ENDBRANCH   8  16
ENDBRANCH   7  10
ENDBRANCH   1   7
BRANCH   4  19
ATOM     19  C   UNL     1      50.215   8.954  16.382  0.00  0.00    +0.000 C 
BRANCH  19  20
ATOM     20  N   UNL     1      50.584   7.555  16.503  0.00  0.00    +0.000 N 
ATOM     21  C   UNL     1      50.518   6.900  17.709  0.00  0.00    +0.000 C 
ATOM     22  O   UNL     1      50.147   7.456  18.739  0.00  0.00    +0.000 OA
ATOM     23  H   UNL     1      51.157   7.152  15.768  0.00  0.00    +0.000 HD
BRANCH  21  24
ATOM     24  C   UNL     1      50.865   5.477  17.696  0.00  0.00    +0.000 A 
ATOM     25  C   UNL     1      52.163   5.082  17.987  0.00  0.00    +0.000 A 
ATOM     26  S   UNL     1      52.403   3.398  17.865  0.00  0.00    +0.000 S 
ATOM     27  C   UNL     1      50.780   3.144  17.417  0.00  0.00    +0.000 A 
ATOM     28  N   UNL     1      50.317   1.898  17.122  0.00  0.00    +0.000 NA
ATOM     29  C   UNL     1      49.064   1.852  16.813  0.00  0.00    +0.000 A 
ATOM     30  N   UNL     1      48.231   2.936  16.774  0.00  0.00    +0.000 N 
ATOM     31  C   UNL     1      48.660   4.216  17.037  0.00  0.00    +0.000 A 
ATOM     32  O   UNL     1      47.889   5.160  16.987  0.00  0.00    +0.000 OA
ATOM     33  C   UNL     1      50.060   4.322  17.393  0.00  0.00    +0.000 A 
ATOM     34  H   UNL     1      47.253   2.836  16.543  0.00  0.00    +0.000 HD
ENDBRANCH  21  24
ENDBRANCH  19  20
ENDBRANCH   4  19
TORSDOF 7
ENDMDL
