MODEL 1
REMARK VINA RESULT:    -8.362      0.000      0.000
REMARK INTER + INTRA:         -13.133
REMARK INTER:                 -11.784
REMARK INTRA:                  -1.349
REMARK UNBOUND:                -1.349
REMARK  Name = 
REMARK  8 active torsions:
REMARK  status: ('A' for Active; 'I' for Inactive)
REMARK    1  A    between atoms: C_1  and  O_2
REMARK    2  A    between atoms: O_2  and  C_3
REMARK    3  A    between atoms: C_5  and  C_6
REMARK    4  A    between atoms: C_6  and  N_7
REMARK    5  A    between atoms: C_8  and  C_10
REMARK    6  A    between atoms: C_22  and  C_23
REMARK    7  A    between atoms: C_23  and  N_24
REMARK    8  A    between atoms: C_25  and  C_27
REMARK                            x       y       z     vdW  Elec       q    Type
REMARK                         _______ _______ _______ _____ _____    ______ ____
ROOT
ATOM      1  C   UNL     1      46.121   5.547  12.451  0.00  0.00    +0.000 A 
ATOM      2  C   UNL     1      47.055   6.325  13.159  0.00  0.00    +0.000 A 
ATOM      3  C   UNL     1      47.555   5.906  14.397  0.00  0.00    +0.000 A 
ATOM      4  C   UNL     1      47.126   4.670  14.851  0.00  0.00    +0.000 A 
ATOM      5  N   UNL     1      46.262   3.872  14.182  0.00  0.00    +0.000 NA
ATOM      6  C   UNL     1      45.763   4.302  12.985  0.00  0.00    +0.000 A 
ENDROOT
BRANCH   1   8
ATOM      7  C   UNL     1      44.900   7.261  11.332  0.00  0.00    +0.000 C 
ATOM      8  O   UNL     1      45.722   6.101  11.264  0.00  0.00    +0.000 OA
ENDBRANCH   1   8
BRANCH   3   9
ATOM      9  C   UNL     1      48.516   6.732  15.206  0.00  0.00    +0.000 C 
BRANCH   9  10
ATOM     10  N   UNL     1      49.576   5.933  15.769  0.00  0.00    +0.000 N 
ATOM     11  C   UNL     1      49.797   5.884  17.121  0.00  0.00    +0.000 C 
ATOM     12  O   UNL     1      49.088   6.490  17.923  0.00  0.00    +0.000 OA
ATOM     13  H   UNL     1      50.302   5.612  15.133  0.00  0.00    +0.000 HD
BRANCH  11  14
ATOM     14  C   UNL     1      50.908   5.027  17.574  0.00  0.00    +0.000 A 
ATOM     15  C   UNL     1      52.036   5.604  18.143  0.00  0.00    +0.000 A 
ATOM     16  S   UNL     1      53.197   4.471  18.671  0.00  0.00    +0.000 S 
ATOM     17  C   UNL     1      52.262   3.167  18.105  0.00  0.00    +0.000 A 
ATOM     18  N   UNL     1      52.704   1.886  18.225  0.00  0.00    +0.000 NA
ATOM     19  C   UNL     1      51.906   1.000  17.732  0.00  0.00    +0.000 A 
ATOM     20  N   UNL     1      50.706   1.272  17.136  0.00  0.00    +0.000 N 
ATOM     21  C   UNL     1      50.203   2.550  17.019  0.00  0.00    +0.000 A 
ATOM     22  O   UNL     1      49.102   2.758  16.520  0.00  0.00    +0.000 OA
ATOM     23  C   UNL     1      51.069   3.589  17.543  0.00  0.00    +0.000 A 
ATOM     24  H   UNL     1      50.120   0.533  16.779  0.00  0.00    +0.000 HD
ENDBRANCH  11  14
ENDBRANCH   9  10
ENDBRANCH   3   9
BRANCH   6  25
ATOM     25  C   UNL     1      44.846   3.309  12.306  0.00  0.00    +0.000 C 
BRANCH  25  26
ATOM     26  N   UNL     1      45.235   2.991  10.948  0.00  0.00    +0.000 N 
ATOM     27  C   UNL     1      44.507   3.425   9.862  0.00  0.00    +0.000 C 
ATOM     28  O   UNL     1      43.442   4.027   9.957  0.00  0.00    +0.000 OA
ATOM     29  H   UNL     1      46.187   2.695  10.747  0.00  0.00    +0.000 HD
BRANCH  27  30
ATOM     30  C   UNL     1      45.144   3.063   8.503  0.00  0.00    +0.000 C 
ATOM     31  C   UNL     1      45.902   1.740   8.649  0.00  0.00    +0.000 C 
ATOM     32  C   UNL     1      46.674   1.384   7.382  0.00  0.00    +0.000 C 
ATOM     33  C   UNL     1      47.537   2.555   6.926  0.00  0.00    +0.000 C 
ATOM     34  C   UNL     1      46.710   3.833   6.810  0.00  0.00    +0.000 C 
ATOM     35  N   UNL     1      46.055   4.162   8.078  0.00  0.00    +0.000 NA
ATOM     36  H   UNL     1      45.496   5.006   7.945  0.00  0.00    +0.000 HD
ENDBRANCH  27  30
ENDBRANCH  25  26
ENDBRANCH   6  25
TORSDOF 7
ENDMDL
MODEL 2
REMARK VINA RESULT:    -8.263      2.364      2.716
REMARK INTER + INTRA:         -12.994
REMARK INTER:                 -11.882
REMARK INTRA:                  -1.112
REMARK UNBOUND:                -1.349
REMARK  Name = 
REMARK  8 active torsions:
REMARK  status: ('A' for Active; 'I' for Inactive)
REMARK    1  A    between atoms: C_1  and  O_2
REMARK    2  A    between atoms: O_2  and  C_3
REMARK    3  A    between atoms: C_5  and  C_6
REMARK    4  A    between atoms: C_6  and  N_7
REMARK    5  A    between atoms: C_8  and  C_10
REMARK    6  A    between atoms: C_22  and  C_23
REMARK    7  A    between atoms: C_23  and  N_24
REMARK    8  A    between atoms: C_25  and  C_27
REMARK                            x       y       z     vdW  Elec       q    Type
REMARK                         _______ _______ _______ _____ _____    ______ ____
ROOT
ATOM      1  C   UNL     1      44.461   7.673  11.517  0.00  0.00    +0.000 A 
ATOM      2  C   UNL     1      45.430   8.357  12.274  0.00  0.00    +0.000 A 
ATOM      3  C   UNL     1      46.483   7.672  12.890  0.00  0.00    +0.000 A 
ATOM      4  C   UNL     1      46.548   6.307  12.666  0.00  0.00    +0.000 A 
ATOM      5  N   UNL     1      45.662   5.618  11.911  0.00  0.00    +0.000 NA
ATOM      6  C   UNL     1      44.625   6.293  11.333  0.00  0.00    +0.000 A 
ENDROOT
BRANCH   1   8
ATOM      7  C   UNL     1      43.788   9.874  10.899  0.00  0.00    +0.000 C 
ATOM      8  O   UNL     1      43.492   8.484  10.991  0.00  0.00    +0.000 OA
ENDBRANCH   1   8
BRANCH   3   9
ATOM      9  C   UNL     1      47.509   8.362  13.746  0.00  0.00    +0.000 C 
BRANCH   9  10
ATOM     10  N   UNL     1      47.837   7.595  14.922  0.00  0.00    +0.000 N 
ATOM     11  C   UNL     1      49.054   6.979  15.061  0.00  0.00    +0.000 C 
ATOM     12  O   UNL     1      49.937   7.074  14.211  0.00  0.00    +0.000 OA
ATOM     13  H   UNL     1      47.065   7.315  15.522  0.00  0.00    +0.000 HD
BRANCH  11  14
ATOM     14  C   UNL     1      49.271   6.228  16.312  0.00  0.00    +0.000 A 
ATOM     15  C   UNL     1      50.258   6.637  17.199  0.00  0.00    +0.000 A 
ATOM     16  S   UNL     1      50.336   5.701  18.623  0.00  0.00    +0.000 S 
ATOM     17  C   UNL     1      49.091   4.676  18.081  0.00  0.00    +0.000 A 
ATOM     18  N   UNL     1      48.676   3.622  18.835  0.00  0.00    +0.000 NA
ATOM     19  C   UNL     1      47.741   2.915  18.292  0.00  0.00    +0.000 A 
ATOM     20  N   UNL     1      47.180   3.166  17.071  0.00  0.00    +0.000 N 
ATOM     21  C   UNL     1      47.547   4.238  16.286  0.00  0.00    +0.000 A 
ATOM     22  O   UNL     1      46.992   4.462  15.215  0.00  0.00    +0.000 OA
ATOM     23  C   UNL     1      48.606   5.057  16.842  0.00  0.00    +0.000 A 
ATOM     24  H   UNL     1      46.444   2.581  16.705  0.00  0.00    +0.000 HD
ENDBRANCH  11  14
ENDBRANCH   9  10
ENDBRANCH   3   9
BRANCH   6  25
ATOM     25  C   UNL     1      43.728   5.430  10.475  0.00  0.00    +0.000 C 
BRANCH  25  26
ATOM     26  N   UNL     1      44.424   4.751   9.402  0.00  0.00    +0.000 N 
ATOM     27  C   UNL     1      44.517   3.378   9.348  0.00  0.00    +0.000 C 
ATOM     28  O   UNL     1      44.103   2.635  10.233  0.00  0.00    +0.000 OA
ATOM     29  H   UNL     1      44.609   5.237   8.528  0.00  0.00    +0.000 HD
BRANCH  27  30
ATOM     30  C   UNL     1      45.213   2.852   8.074  0.00  0.00    +0.000 C 
ATOM     31  C   UNL     1      46.047   1.621   8.439  0.00  0.00    +0.000 C 
ATOM     32  C   UNL     1      46.875   1.124   7.258  0.00  0.00    +0.000 C 
ATOM     33  C   UNL     1      47.676   2.264   6.640  0.00  0.00    +0.000 C 
ATOM     34  C   UNL     1      46.776   3.451   6.310  0.00  0.00    +0.000 C 
ATOM     35  N   UNL     1      46.066   3.929   7.500  0.00  0.00    +0.000 NA
ATOM     36  H   UNL     1      45.460   4.704   7.226  0.00  0.00    +0.000 HD
ENDBRANCH  27  30
ENDBRANCH  25  26
ENDBRANCH   6  25
TORSDOF 7
ENDMDL
MODEL 3
REMARK VINA RESULT:    -8.260      2.833      4.159
REMARK INTER + INTRA:         -12.989
REMARK INTER:                 -11.755
REMARK INTRA:                  -1.234
REMARK UNBOUND:                -1.349
REMARK  Name = 
REMARK  8 active torsions:
REMARK  status: ('A' for Active; 'I' for Inactive)
REMARK    1  A    between atoms: C_1  and  O_2
REMARK    2  A    between atoms: O_2  and  C_3
REMARK    3  A    between atoms: C_5  and  C_6
REMARK    4  A    between atoms: C_6  and  N_7
REMARK    5  A    between atoms: C_8  and  C_10
REMARK    6  A    between atoms: C_22  and  C_23
REMARK    7  A    between atoms: C_23  and  N_24
REMARK    8  A    between atoms: C_25  and  C_27
REMARK                            x       y       z     vdW  Elec       q    Type
REMARK                         _______ _______ _______ _____ _____    ______ ____
ROOT
ATOM      1  C   UNL     1      45.120   5.854  12.435  0.00  0.00    +0.000 A 
ATOM      2  C   UNL     1      46.035   5.643  13.483  0.00  0.00    +0.000 A 
ATOM      3  C   UNL     1      46.455   4.353  13.828  0.00  0.00    +0.000 A 
ATOM      4  C   UNL     1      45.969   3.316  13.050  0.00  0.00    +0.000 A 
ATOM      5  N   UNL     1      45.122   3.479  12.008  0.00  0.00    +0.000 NA
ATOM      6  C   UNL     1      44.701   4.740  11.695  0.00  0.00    +0.000 A 
ENDROOT
BRANCH   1   8
ATOM      7  C   UNL     1      45.883   8.094  12.156  0.00  0.00    +0.000 C 
ATOM      8  O   UNL     1      44.803   7.170  12.230  0.00  0.00    +0.000 OA
ENDBRANCH   1   8
BRANCH   3   9
ATOM      9  C   UNL     1      47.393   4.085  14.972  0.00  0.00    +0.000 C 
BRANCH   9  10
ATOM     10  N   UNL     1      47.515   5.221  15.850  0.00  0.00    +0.000 N 
ATOM     11  C   UNL     1      48.614   5.392  16.653  0.00  0.00    +0.000 C 
ATOM     12  O   UNL     1      49.560   4.608  16.645  0.00  0.00    +0.000 OA
ATOM     13  H   UNL     1      46.669   5.750  16.043  0.00  0.00    +0.000 HD
BRANCH  11  14
ATOM     14  C   UNL     1      48.624   6.598  17.503  0.00  0.00    +0.000 A 
ATOM     15  C   UNL     1      48.700   6.467  18.884  0.00  0.00    +0.000 A 
ATOM     16  S   UNL     1      48.766   7.955  19.714  0.00  0.00    +0.000 S 
ATOM     17  C   UNL     1      48.637   8.833  18.263  0.00  0.00    +0.000 A 
ATOM     18  N   UNL     1      48.608  10.193  18.269  0.00  0.00    +0.000 NA
ATOM     19  C   UNL     1      48.483  10.727  17.100  0.00  0.00    +0.000 A 
ATOM     20  N   UNL     1      48.390  10.031  15.928  0.00  0.00    +0.000 N 
ATOM     21  C   UNL     1      48.445   8.656  15.869  0.00  0.00    +0.000 A 
ATOM     22  O   UNL     1      48.404   8.061  14.797  0.00  0.00    +0.000 OA
ATOM     23  C   UNL     1      48.569   8.002  17.158  0.00  0.00    +0.000 A 
ATOM     24  H   UNL     1      48.304  10.508  15.043  0.00  0.00    +0.000 HD
ENDBRANCH  11  14
ENDBRANCH   9  10
ENDBRANCH   3   9
BRANCH   6  25
ATOM     25  C   UNL     1      43.797   4.806  10.485  0.00  0.00    +0.000 C 
BRANCH  25  26
ATOM     26  N   UNL     1      44.253   3.999   9.371  0.00  0.00    +0.000 N 
ATOM     27  C   UNL     1      45.345   4.358   8.612  0.00  0.00    +0.000 C 
ATOM     28  O   UNL     1      45.955   5.413   8.757  0.00  0.00    +0.000 OA
ATOM     29  H   UNL     1      43.969   3.025   9.298  0.00  0.00    +0.000 HD
BRANCH  27  30
ATOM     30  C   UNL     1      45.725   3.315   7.539  0.00  0.00    +0.000 C 
ATOM     31  C   UNL     1      46.333   2.092   8.232  0.00  0.00    +0.000 C 
ATOM     32  C   UNL     1      46.859   1.072   7.226  0.00  0.00    +0.000 C 
ATOM     33  C   UNL     1      47.777   1.738   6.208  0.00  0.00    +0.000 C 
ATOM     34  C   UNL     1      47.101   2.947   5.568  0.00  0.00    +0.000 C 
ATOM     35  N   UNL     1      46.686   3.924   6.579  0.00  0.00    +0.000 NA
ATOM     36  H   UNL     1      46.217   4.699   6.107  0.00  0.00    +0.000 HD
ENDBRANCH  27  30
ENDBRANCH  25  26
ENDBRANCH   6  25
TORSDOF 7
ENDMDL
MODEL 4
REMARK VINA RESULT:    -7.999      2.488      3.355
REMARK INTER + INTRA:         -12.621
REMARK INTER:                 -11.200
REMARK INTRA:                  -1.420
REMARK UNBOUND:                -1.349
REMARK  Name = 
REMARK  8 active torsions:
REMARK  status: ('A' for Active; 'I' for Inactive)
REMARK    1  A    between atoms: C_1  and  O_2
REMARK    2  A    between atoms: O_2  and  C_3
REMARK    3  A    between atoms: C_5  and  C_6
REMARK    4  A    between atoms: C_6  and  N_7
REMARK    5  A    between atoms: C_8  and  C_10
REMARK    6  A    between atoms: C_22  and  C_23
REMARK    7  A    between atoms: C_23  and  N_24
REMARK    8  A    between atoms: C_25  and  C_27
REMARK                            x       y       z     vdW  Elec       q    Type
REMARK                         _______ _______ _______ _____ _____    ______ ____
ROOT
ATOM      1  C   UNL     1      45.833   5.714  12.288  0.00  0.00    +0.000 A 
ATOM      2  C   UNL     1      46.588   6.591  13.088  0.00  0.00    +0.000 A 
ATOM      3  C   UNL     1      46.431   7.978  12.988  0.00  0.00    +0.000 A 
ATOM      4  C   UNL     1      45.459   8.428  12.110  0.00  0.00    +0.000 A 
ATOM      5  N   UNL     1      44.683   7.618  11.354  0.00  0.00    +0.000 NA
ATOM      6  C   UNL     1      44.862   6.267  11.443  0.00  0.00    +0.000 A 
ENDROOT
BRANCH   1   8
ATOM      7  C   UNL     1      46.733   4.045  13.732  0.00  0.00    +0.000 C 
ATOM      8  O   UNL     1      46.114   4.390  12.497  0.00  0.00    +0.000 OA
ENDBRANCH   1   8
BRANCH   3   9
ATOM      9  C   UNL     1      47.253   8.948  13.791  0.00  0.00    +0.000 C 
BRANCH   9  10
ATOM     10  N   UNL     1      47.562   8.439  15.104  0.00  0.00    +0.000 N 
ATOM     11  C   UNL     1      48.471   9.062  15.919  0.00  0.00    +0.000 C 
ATOM     12  O   UNL     1      49.045  10.099  15.589  0.00  0.00    +0.000 OA
ATOM     13  H   UNL     1      47.283   7.482  15.307  0.00  0.00    +0.000 HD
BRANCH  11  14
ATOM     14  C   UNL     1      48.698   8.448  17.241  0.00  0.00    +0.000 A 
ATOM     15  C   UNL     1      48.595   9.224  18.388  0.00  0.00    +0.000 A 
ATOM     16  S   UNL     1      48.822   8.348  19.834  0.00  0.00    +0.000 S 
ATOM     17  C   UNL     1      49.125   6.909  18.979  0.00  0.00    +0.000 A 
ATOM     18  N   UNL     1      49.422   5.755  19.636  0.00  0.00    +0.000 NA
ATOM     19  C   UNL     1      49.653   4.747  18.862  0.00  0.00    +0.000 A 
ATOM     20  N   UNL     1      49.609   4.783  17.497  0.00  0.00    +0.000 N 
ATOM     21  C   UNL     1      49.283   5.920  16.789  0.00  0.00    +0.000 A 
ATOM     22  O   UNL     1      49.208   5.909  15.565  0.00  0.00    +0.000 OA
ATOM     23  C   UNL     1      49.030   7.088  17.610  0.00  0.00    +0.000 A 
ATOM     24  H   UNL     1      49.788   3.957  16.947  0.00  0.00    +0.000 HD
ENDBRANCH  11  14
ENDBRANCH   9  10
ENDBRANCH   3   9
BRANCH   6  25
ATOM     25  C   UNL     1      43.908   5.461  10.590  0.00  0.00    +0.000 C 
BRANCH  25  26
ATOM     26  N   UNL     1      44.555   4.746   9.509  0.00  0.00    +0.000 N 
ATOM     27  C   UNL     1      44.460   3.377   9.382  0.00  0.00    +0.000 C 
ATOM     28  O   UNL     1      43.907   2.656  10.207  0.00  0.00    +0.000 OA
ATOM     29  H   UNL     1      44.846   5.244   8.671  0.00  0.00    +0.000 HD
BRANCH  27  30
ATOM     30  C   UNL     1      45.136   2.824   8.109  0.00  0.00    +0.000 C 
ATOM     31  C   UNL     1      46.020   1.634   8.497  0.00  0.00    +0.000 C 
ATOM     32  C   UNL     1      46.830   1.117   7.311  0.00  0.00    +0.000 C 
ATOM     33  C   UNL     1      47.576   2.256   6.627  0.00  0.00    +0.000 C 
ATOM     34  C   UNL     1      46.629   3.401   6.278  0.00  0.00    +0.000 C 
ATOM     35  N   UNL     1      45.937   3.903   7.469  0.00  0.00    +0.000 NA
ATOM     36  H   UNL     1      45.298   4.647   7.183  0.00  0.00    +0.000 HD
ENDBRANCH  27  30
ENDBRANCH  25  26
ENDBRANCH   6  25
TORSDOF 7
ENDMDL
MODEL 5
REMARK VINA RESULT:    -7.599      2.288      3.026
REMARK INTER + INTRA:         -12.057
REMARK INTER:                 -10.979
REMARK INTRA:                  -1.079
REMARK UNBOUND:                -1.349
REMARK  Name = 
REMARK  8 active torsions:
REMARK  status: ('A' for Active; 'I' for Inactive)
REMARK    1  A    between atoms: C_1  and  O_2
REMARK    2  A    between atoms: O_2  and  C_3
REMARK    3  A    between atoms: C_5  and  C_6
REMARK    4  A    between atoms: C_6  and  N_7
REMARK    5  A    between atoms: C_8  and  C_10
REMARK    6  A    between atoms: C_22  and  C_23
REMARK    7  A    between atoms: C_23  and  N_24
REMARK    8  A    between atoms: C_25  and  C_27
REMARK                            x       y       z     vdW  Elec       q    Type
REMARK                         _______ _______ _______ _____ _____    ______ ____
ROOT
ATOM      1  C   UNL     1      46.777   6.393  12.384  0.00  0.00    +0.000 A 
ATOM      2  C   UNL     1      47.238   5.886  13.613  0.00  0.00    +0.000 A 
ATOM      3  C   UNL     1      46.738   4.688  14.135  0.00  0.00    +0.000 A 
ATOM      4  C   UNL     1      45.817   4.011  13.354  0.00  0.00    +0.000 A 
ATOM      5  N   UNL     1      45.379   4.441  12.148  0.00  0.00    +0.000 NA
ATOM      6  C   UNL     1      45.857   5.623  11.659  0.00  0.00    +0.000 A 
ENDROOT
BRANCH   1   8
ATOM      7  C   UNL     1      48.762   7.569  11.785  0.00  0.00    +0.000 C 
ATOM      8  O   UNL     1      47.357   7.578  12.019  0.00  0.00    +0.000 OA
ENDBRANCH   1   8
BRANCH   3   9
ATOM      9  C   UNL     1      47.170   4.139  15.466  0.00  0.00    +0.000 C 
BRANCH   9  10
ATOM     10  N   UNL     1      47.978   5.079  16.202  0.00  0.00    +0.000 N 
ATOM     11  C   UNL     1      47.736   5.353  17.524  0.00  0.00    +0.000 C 
ATOM     12  O   UNL     1      46.843   4.792  18.157  0.00  0.00    +0.000 OA
ATOM     13  H   UNL     1      48.562   5.712  15.661  0.00  0.00    +0.000 HD
BRANCH  11  14
ATOM     14  C   UNL     1      48.636   6.328  18.168  0.00  0.00    +0.000 A 
ATOM     15  C   UNL     1      48.100   7.422  18.835  0.00  0.00    +0.000 A 
ATOM     16  S   UNL     1      49.271   8.417  19.577  0.00  0.00    +0.000 S 
ATOM     17  C   UNL     1      50.543   7.455  18.984  0.00  0.00    +0.000 A 
ATOM     18  N   UNL     1      51.840   7.775  19.242  0.00  0.00    +0.000 NA
ATOM     19  C   UNL     1      52.701   6.972  18.710  0.00  0.00    +0.000 A 
ATOM     20  N   UNL     1      52.388   5.879  17.952  0.00  0.00    +0.000 N 
ATOM     21  C   UNL     1      51.089   5.499  17.691  0.00  0.00    +0.000 A 
ATOM     22  O   UNL     1      50.840   4.486  17.045  0.00  0.00    +0.000 OA
ATOM     23  C   UNL     1      50.080   6.376  18.251  0.00  0.00    +0.000 A 
ATOM     24  H   UNL     1      53.108   5.283  17.573  0.00  0.00    +0.000 HD
ENDBRANCH  11  14
ENDBRANCH   9  10
ENDBRANCH   3   9
BRANCH   6  25
ATOM     25  C   UNL     1      45.335   5.980  10.286  0.00  0.00    +0.000 C 
BRANCH  25  26
ATOM     26  N   UNL     1      45.755   5.063   9.246  0.00  0.00    +0.000 N 
ATOM     27  C   UNL     1      44.964   4.011   8.839  0.00  0.00    +0.000 C 
ATOM     28  O   UNL     1      43.900   3.716   9.375  0.00  0.00    +0.000 OA
ATOM     29  H   UNL     1      46.495   5.330   8.601  0.00  0.00    +0.000 HD
BRANCH  27  30
ATOM     30  C   UNL     1      45.551   3.215   7.654  0.00  0.00    +0.000 C 
ATOM     31  C   UNL     1      46.217   1.946   8.192  0.00  0.00    +0.000 C 
ATOM     32  C   UNL     1      46.941   1.173   7.093  0.00  0.00    +0.000 C 
ATOM     33  C   UNL     1      47.875   2.090   6.312  0.00  0.00    +0.000 C 
ATOM     34  C   UNL     1      47.138   3.330   5.815  0.00  0.00    +0.000 C 
ATOM     35  N   UNL     1      46.528   4.069   6.924  0.00  0.00    +0.000 NA
ATOM     36  H   UNL     1      46.027   4.872   6.542  0.00  0.00    +0.000 HD
ENDBRANCH  27  30
ENDBRANCH  25  26
ENDBRANCH   6  25
TORSDOF 7
ENDMDL
MODEL 6
REMARK VINA RESULT:    -7.402      3.059      3.510
REMARK INTER + INTRA:         -11.780
REMARK INTER:                 -11.045
REMARK INTRA:                  -0.735
REMARK UNBOUND:                -1.349
REMARK  Name = 
REMARK  8 active torsions:
REMARK  status: ('A' for Active; 'I' for Inactive)
REMARK    1  A    between atoms: C_1  and  O_2
REMARK    2  A    between atoms: O_2  and  C_3
REMARK    3  A    between atoms: C_5  and  C_6
REMARK    4  A    between atoms: C_6  and  N_7
REMARK    5  A    between atoms: C_8  and  C_10
REMARK    6  A    between atoms: C_22  and  C_23
REMARK    7  A    between atoms: C_23  and  N_24
REMARK    8  A    between atoms: C_25  and  C_27
REMARK                            x       y       z     vdW  Elec       q    Type
REMARK                         _______ _______ _______ _____ _____    ______ ____
ROOT
ATOM      1  C   UNL     1      45.361   5.944  12.539  0.00  0.00    +0.000 A 
ATOM      2  C   UNL     1      46.414   6.735  13.034  0.00  0.00    +0.000 A 
ATOM      3  C   UNL     1      47.486   6.161  13.727  0.00  0.00    +0.000 A 
ATOM      4  C   UNL     1      47.478   4.782  13.845  0.00  0.00    +0.000 A 
ATOM      5  N   UNL     1      46.507   3.982  13.348  0.00  0.00    +0.000 NA
ATOM      6  C   UNL     1      45.454   4.554  12.693  0.00  0.00    +0.000 A 
ENDROOT
BRANCH   1   8
ATOM      7  C   UNL     1      44.728   7.962  11.440  0.00  0.00    +0.000 C 
ATOM      8  O   UNL     1      44.385   6.657  11.895  0.00  0.00    +0.000 OA
ENDBRANCH   1   8
BRANCH   3   9
ATOM      9  C   UNL     1      48.604   6.978  14.312  0.00  0.00    +0.000 C 
BRANCH   9  10
ATOM     10  N   UNL     1      48.452   7.165  15.733  0.00  0.00    +0.000 N 
ATOM     11  C   UNL     1      48.335   8.415  16.284  0.00  0.00    +0.000 C 
ATOM     12  O   UNL     1      48.322   9.435  15.598  0.00  0.00    +0.000 OA
ATOM     13  H   UNL     1      48.684   6.375  16.331  0.00  0.00    +0.000 HD
BRANCH  11  14
ATOM     14  C   UNL     1      48.179   8.474  17.750  0.00  0.00    +0.000 A 
ATOM     15  C   UNL     1      48.283   9.695  18.405  0.00  0.00    +0.000 A 
ATOM     16  S   UNL     1      48.014   9.599  20.087  0.00  0.00    +0.000 S 
ATOM     17  C   UNL     1      47.808   7.912  20.012  0.00  0.00    +0.000 A 
ATOM     18  N   UNL     1      47.567   7.187  21.138  0.00  0.00    +0.000 NA
ATOM     19  C   UNL     1      47.456   5.916  20.939  0.00  0.00    +0.000 A 
ATOM     20  N   UNL     1      47.556   5.304  19.721  0.00  0.00    +0.000 N 
ATOM     21  C   UNL     1      47.768   5.999  18.550  0.00  0.00    +0.000 A 
ATOM     22  O   UNL     1      47.808   5.425  17.467  0.00  0.00    +0.000 OA
ATOM     23  C   UNL     1      47.918   7.431  18.719  0.00  0.00    +0.000 A 
ATOM     24  H   UNL     1      47.448   4.305  19.628  0.00  0.00    +0.000 HD
ENDBRANCH  11  14
ENDBRANCH   9  10
ENDBRANCH   3   9
BRANCH   6  25
ATOM     25  C   UNL     1      44.457   3.561  12.140  0.00  0.00    +0.000 C 
BRANCH  25  26
ATOM     26  N   UNL     1      44.826   3.023  10.846  0.00  0.00    +0.000 N 
ATOM     27  C   UNL     1      44.383   3.588   9.670  0.00  0.00    +0.000 C 
ATOM     28  O   UNL     1      43.584   4.518   9.623  0.00  0.00    +0.000 OA
ATOM     29  H   UNL     1      45.633   2.411  10.761  0.00  0.00    +0.000 HD
BRANCH  27  30
ATOM     30  C   UNL     1      44.969   2.926   8.405  0.00  0.00    +0.000 C 
ATOM     31  C   UNL     1      45.804   1.712   8.823  0.00  0.00    +0.000 C 
ATOM     32  C   UNL     1      46.529   1.084   7.637  0.00  0.00    +0.000 C 
ATOM     33  C   UNL     1      47.303   2.138   6.855  0.00  0.00    +0.000 C 
ATOM     34  C   UNL     1      46.404   3.313   6.480  0.00  0.00    +0.000 C 
ATOM     35  N   UNL     1      45.797   3.920   7.667  0.00  0.00    +0.000 NA
ATOM     36  H   UNL     1      45.187   4.682   7.366  0.00  0.00    +0.000 HD
ENDBRANCH  27  30
ENDBRANCH  25  26
ENDBRANCH   6  25
TORSDOF 7
ENDMDL
MODEL 7
REMARK VINA RESULT:    -7.395      2.839      3.906
REMARK INTER + INTRA:         -11.770
REMARK INTER:                 -11.059
REMARK INTRA:                  -0.710
REMARK UNBOUND:                -1.349
REMARK  Name = 
REMARK  8 active torsions:
REMARK  status: ('A' for Active; 'I' for Inactive)
REMARK    1  A    between atoms: C_1  and  O_2
REMARK    2  A    between atoms: O_2  and  C_3
REMARK    3  A    between atoms: C_5  and  C_6
REMARK    4  A    between atoms: C_6  and  N_7
REMARK    5  A    between atoms: C_8  and  C_10
REMARK    6  A    between atoms: C_22  and  C_23
REMARK    7  A    between atoms: C_23  and  N_24
REMARK    8  A    between atoms: C_25  and  C_27
REMARK                            x       y       z     vdW  Elec       q    Type
REMARK                         _______ _______ _______ _____ _____    ______ ____
ROOT
ATOM      1  C   UNL     1      45.555   4.874  12.560  0.00  0.00    +0.000 A 
ATOM      2  C   UNL     1      46.554   5.354  13.427  0.00  0.00    +0.000 A 
ATOM      3  C   UNL     1      47.120   6.621  13.247  0.00  0.00    +0.000 A 
ATOM      4  C   UNL     1      46.605   7.387  12.215  0.00  0.00    +0.000 A 
ATOM      5  N   UNL     1      45.617   6.979  11.385  0.00  0.00    +0.000 NA
ATOM      6  C   UNL     1      45.088   5.732  11.556  0.00  0.00    +0.000 A 
ENDROOT
BRANCH   1   8
ATOM      7  C   UNL     1      43.750   3.479  13.251  0.00  0.00    +0.000 C 
ATOM      8  O   UNL     1      45.114   3.614  12.865  0.00  0.00    +0.000 OA
ENDBRANCH   1   8
BRANCH   3   9
ATOM      9  C   UNL     1      48.222   7.149  14.123  0.00  0.00    +0.000 C 
BRANCH   9  10
ATOM     10  N   UNL     1      48.051   6.763  15.500  0.00  0.00    +0.000 N 
ATOM     11  C   UNL     1      49.111   6.350  16.267  0.00  0.00    +0.000 C 
ATOM     12  O   UNL     1      50.260   6.317  15.832  0.00  0.00    +0.000 OA
ATOM     13  H   UNL     1      47.103   6.565  15.812  0.00  0.00    +0.000 HD
BRANCH  11  14
ATOM     14  C   UNL     1      48.808   5.986  17.664  0.00  0.00    +0.000 A 
ATOM     15  C   UNL     1      49.021   4.684  18.098  0.00  0.00    +0.000 A 
ATOM     16  S   UNL     1      48.683   4.446  19.753  0.00  0.00    +0.000 S 
ATOM     17  C   UNL     1      48.182   6.061  19.939  0.00  0.00    +0.000 A 
ATOM     18  N   UNL     1      47.734   6.520  21.139  0.00  0.00    +0.000 NA
ATOM     19  C   UNL     1      47.364   7.757  21.130  0.00  0.00    +0.000 A 
ATOM     20  N   UNL     1      47.407   8.579  20.039  0.00  0.00    +0.000 N 
ATOM     21  C   UNL     1      47.881   8.168  18.812  0.00  0.00    +0.000 A 
ATOM     22  O   UNL     1      47.949   8.942  17.863  0.00  0.00    +0.000 OA
ATOM     23  C   UNL     1      48.295   6.779  18.760  0.00  0.00    +0.000 A 
ATOM     24  H   UNL     1      47.114   9.542  20.099  0.00  0.00    +0.000 HD
ENDBRANCH  11  14
ENDBRANCH   9  10
ENDBRANCH   3   9
BRANCH   6  25
ATOM     25  C   UNL     1      43.959   5.405  10.604  0.00  0.00    +0.000 C 
BRANCH  25  26
ATOM     26  N   UNL     1      44.288   4.370   9.645  0.00  0.00    +0.000 N 
ATOM     27  C   UNL     1      45.358   4.489   8.785  0.00  0.00    +0.000 C 
ATOM     28  O   UNL     1      46.052   5.497   8.701  0.00  0.00    +0.000 OA
ATOM     29  H   UNL     1      43.929   3.427   9.770  0.00  0.00    +0.000 HD
BRANCH  27  30
ATOM     30  C   UNL     1      45.594   3.237   7.913  0.00  0.00    +0.000 C 
ATOM     31  C   UNL     1      45.686   2.009   8.824  0.00  0.00    +0.000 C 
ATOM     32  C   UNL     1      46.056   0.750   8.047  0.00  0.00    +0.000 C 
ATOM     33  C   UNL     1      47.292   0.987   7.187  0.00  0.00    +0.000 C 
ATOM     34  C   UNL     1      47.123   2.227   6.314  0.00  0.00    +0.000 C 
ATOM     35  N   UNL     1      46.844   3.416   7.124  0.00  0.00    +0.000 NA
ATOM     36  H   UNL     1      46.714   4.212   6.497  0.00  0.00    +0.000 HD
ENDBRANCH  27  30
ENDBRANCH  25  26
ENDBRANCH   6  25
TORSDOF 7
ENDMDL
MODEL 8
REMARK VINA RESULT:    -7.392      4.082      5.782
REMARK INTER + INTRA:         -11.766
REMARK INTER:                 -10.519
REMARK INTRA:                  -1.248
REMARK UNBOUND:                -1.349
REMARK  Name = 
REMARK  8 active torsions:
REMARK  status: ('A' for Active; 'I' for Inactive)
REMARK    1  A    between atoms: C_1  and  O_2
REMARK    2  A    between atoms: O_2  and  C_3
REMARK    3  A    between atoms: C_5  and  C_6
REMARK    4  A    between atoms: C_6  and  N_7
REMARK    5  A    between atoms: C_8  and  C_10
REMARK    6  A    between atoms: C_22  and  C_23
REMARK    7  A    between atoms: C_23  and  N_24
REMARK    8  A    between atoms: C_25  and  C_27
REMARK                            x       y       z     vdW  Elec       q    Type
REMARK                         _______ _______ _______ _____ _____    ______ ____
ROOT
ATOM      1  C   UNL     1      46.553   4.797  13.312  0.00  0.00    +0.000 A 
ATOM      2  C   UNL     1      47.036   6.052  13.726  0.00  0.00    +0.000 A 
ATOM      3  C   UNL     1      46.458   7.239  13.263  0.00  0.00    +0.000 A 
ATOM      4  C   UNL     1      45.361   7.107  12.429  0.00  0.00    +0.000 A 
ATOM      5  N   UNL     1      44.839   5.921  12.040  0.00  0.00    +0.000 NA
ATOM      6  C   UNL     1      45.425   4.769  12.480  0.00  0.00    +0.000 A 
ENDROOT
BRANCH   1   8
ATOM      7  C   UNL     1      47.434   3.736  15.255  0.00  0.00    +0.000 C 
ATOM      8  O   UNL     1      47.232   3.735  13.846  0.00  0.00    +0.000 OA
ENDBRANCH   1   8
BRANCH   3   9
ATOM      9  C   UNL     1      46.977   8.597  13.645  0.00  0.00    +0.000 C 
BRANCH   9  10
ATOM     10  N   UNL     1      48.210   8.915  12.970  0.00  0.00    +0.000 N 
ATOM     11  C   UNL     1      48.255   9.832  11.952  0.00  0.00    +0.000 C 
ATOM     12  O   UNL     1      47.258  10.451  11.583  0.00  0.00    +0.000 OA
ATOM     13  H   UNL     1      48.986   8.269  13.094  0.00  0.00    +0.000 HD
BRANCH  11  14
ATOM     14  C   UNL     1      49.577  10.075  11.344  0.00  0.00    +0.000 A 
ATOM     15  C   UNL     1      49.930  11.360  10.953  0.00  0.00    +0.000 A 
ATOM     16  S   UNL     1      51.513  11.478  10.329  0.00  0.00    +0.000 S 
ATOM     17  C   UNL     1      51.765   9.805  10.502  0.00  0.00    +0.000 A 
ATOM     18  N   UNL     1      52.939   9.232  10.119  0.00  0.00    +0.000 NA
ATOM     19  C   UNL     1      52.984   7.952  10.285  0.00  0.00    +0.000 A 
ATOM     20  N   UNL     1      51.971   7.194  10.801  0.00  0.00    +0.000 N 
ATOM     21  C   UNL     1      50.777   7.733  11.229  0.00  0.00    +0.000 A 
ATOM     22  O   UNL     1      49.905   7.032  11.730  0.00  0.00    +0.000 OA
ATOM     23  C   UNL     1      50.666   9.168  11.051  0.00  0.00    +0.000 A 
ATOM     24  H   UNL     1      52.072   6.196  10.916  0.00  0.00    +0.000 HD
ENDBRANCH  11  14
ENDBRANCH   9  10
ENDBRANCH   3   9
BRANCH   6  25
ATOM     25  C   UNL     1      44.729   3.508  12.021  0.00  0.00    +0.000 C 
BRANCH  25  26
ATOM     26  N   UNL     1      45.149   3.054  10.712  0.00  0.00    +0.000 N 
ATOM     27  C   UNL     1      44.577   3.539   9.555  0.00  0.00    +0.000 C 
ATOM     28  O   UNL     1      43.624   4.312   9.543  0.00  0.00    +0.000 OA
ATOM     29  H   UNL     1      46.049   2.596  10.596  0.00  0.00    +0.000 HD
BRANCH  27  30
ATOM     30  C   UNL     1      45.234   3.001   8.266  0.00  0.00    +0.000 C 
ATOM     31  C   UNL     1      45.977   1.702   8.594  0.00  0.00    +0.000 C 
ATOM     32  C   UNL     1      46.767   1.181   7.397  0.00  0.00    +0.000 C 
ATOM     33  C   UNL     1      47.648   2.278   6.811  0.00  0.00    +0.000 C 
ATOM     34  C   UNL     1      46.836   3.535   6.516  0.00  0.00    +0.000 C 
ATOM     35  N   UNL     1      46.162   4.029   7.720  0.00  0.00    +0.000 NA
ATOM     36  H   UNL     1      45.613   4.853   7.470  0.00  0.00    +0.000 HD
ENDBRANCH  27  30
ENDBRANCH  25  26
ENDBRANCH   6  25
TORSDOF 7
ENDMDL
MODEL 9
REMARK VINA RESULT:    -7.075      2.002      3.725
REMARK INTER + INTRA:         -11.319
REMARK INTER:                 -10.231
REMARK INTRA:                  -1.088
REMARK UNBOUND:                -1.349
REMARK  Name = 
REMARK  8 active torsions:
REMARK  status: ('A' for Active; 'I' for Inactive)
REMARK    1  A    between atoms: C_1  and  O_2
REMARK    2  A    between atoms: O_2  and  C_3
REMARK    3  A    between atoms: C_5  and  C_6
REMARK    4  A    between atoms: C_6  and  N_7
REMARK    5  A    between atoms: C_8  and  C_10
REMARK    6  A    between atoms: C_22  and  C_23
REMARK    7  A    between atoms: C_23  and  N_24
REMARK    8  A    between atoms: C_25  and  C_27
REMARK                            x       y       z     vdW  Elec       q    Type
REMARK                         _______ _______ _______ _____ _____    ______ ____
ROOT
ATOM      1  C   UNL     1      48.520   6.317  15.408  0.00  0.00    +0.000 A 
ATOM      2  C   UNL     1      48.783   5.529  16.543  0.00  0.00    +0.000 A 
ATOM      3  C   UNL     1      48.171   4.282  16.714  0.00  0.00    +0.000 A 
ATOM      4  C   UNL     1      47.349   3.850  15.687  0.00  0.00    +0.000 A 
ATOM      5  N   UNL     1      47.104   4.558  14.561  0.00  0.00    +0.000 NA
ATOM      6  C   UNL     1      47.687   5.784  14.415  0.00  0.00    +0.000 A 
ENDROOT
BRANCH   1   8
ATOM      7  C   UNL     1      48.536   8.626  16.000  0.00  0.00    +0.000 C 
ATOM      8  O   UNL     1      49.187   7.513  15.396  0.00  0.00    +0.000 OA
ENDBRANCH   1   8
BRANCH   3   9
ATOM      9  C   UNL     1      48.389   3.432  17.936  0.00  0.00    +0.000 C 
BRANCH   9  10
ATOM     10  N   UNL     1      49.782   3.117  18.134  0.00  0.00    +0.000 N 
ATOM     11  C   UNL     1      50.453   2.268  17.292  0.00  0.00    +0.000 C 
ATOM     12  O   UNL     1      49.915   1.758  16.311  0.00  0.00    +0.000 OA
ATOM     13  H   UNL     1      50.181   3.336  19.044  0.00  0.00    +0.000 HD
BRANCH  11  14
ATOM     14  C   UNL     1      51.876   2.029  17.597  0.00  0.00    +0.000 A 
ATOM     15  C   UNL     1      52.339   0.728  17.746  0.00  0.00    +0.000 A 
ATOM     16  S   UNL     1      54.018   0.624  18.032  0.00  0.00    +0.000 S 
ATOM     17  C   UNL     1      54.179   2.317  18.027  0.00  0.00    +0.000 A 
ATOM     18  N   UNL     1      55.387   2.905  18.245  0.00  0.00    +0.000 NA
ATOM     19  C   UNL     1      55.359   4.196  18.237  0.00  0.00    +0.000 A 
ATOM     20  N   UNL     1      54.241   4.953  18.027  0.00  0.00    +0.000 N 
ATOM     21  C   UNL     1      53.003   4.403  17.772  0.00  0.00    +0.000 A 
ATOM     22  O   UNL     1      52.027   5.109  17.542  0.00  0.00    +0.000 OA
ATOM     23  C   UNL     1      52.973   2.953  17.786  0.00  0.00    +0.000 A 
ATOM     24  H   UNL     1      54.286   5.961  18.022  0.00  0.00    +0.000 HD
ENDBRANCH  11  14
ENDBRANCH   9  10
ENDBRANCH   3   9
BRANCH   6  25
ATOM     25  C   UNL     1      47.380   6.462  13.099  0.00  0.00    +0.000 C 
BRANCH  25  26
ATOM     26  N   UNL     1      46.563   5.663  12.208  0.00  0.00    +0.000 N 
ATOM     27  C   UNL     1      45.461   6.184  11.568  0.00  0.00    +0.000 C 
ATOM     28  O   UNL     1      45.035   7.318  11.765  0.00  0.00    +0.000 OA
ATOM     29  H   UNL     1      46.934   4.803  11.812  0.00  0.00    +0.000 HD
BRANCH  27  30
ATOM     30  C   UNL     1      44.788   5.198  10.589  0.00  0.00    +0.000 C 
ATOM     31  C   UNL     1      44.716   3.818  11.249  0.00  0.00    +0.000 C 
ATOM     32  C   UNL     1      44.187   2.755  10.290  0.00  0.00    +0.000 C 
ATOM     33  C   UNL     1      44.955   2.783   8.973  0.00  0.00    +0.000 C 
ATOM     34  C   UNL     1      44.983   4.190   8.384  0.00  0.00    +0.000 C 
ATOM     35  N   UNL     1      45.571   5.149   9.323  0.00  0.00    +0.000 NA
ATOM     36  H   UNL     1      45.545   6.078   8.897  0.00  0.00    +0.000 HD
ENDBRANCH  27  30
ENDBRANCH  25  26
ENDBRANCH   6  25
TORSDOF 7
ENDMDL
