MODEL 1
REMARK VINA RESULT:    -6.672      0.000      0.000
REMARK INTER + INTRA:          -9.058
REMARK INTER:                  -8.622
REMARK INTRA:                  -0.436
REMARK UNBOUND:                -0.436
REMARK  Name = 
REMARK  6 active torsions:
REMARK  status: ('A' for Active; 'I' for Inactive)
REMARK    1  A    between atoms: N_1  and  C_2
REMARK    2  A    between atoms: C_2  and  C_3
REMARK    3  A    between atoms: C_7  and  C_8
REMARK    4  A    between atoms: C_9  and  C_10
REMARK    5  A    between atoms: C_14  and  C_15
REMARK    6  A    between atoms: C_15  and  N_16
REMARK                            x       y       z     vdW  Elec       q    Type
REMARK                         _______ _______ _______ _____ _____    ______ ____
ROOT
ATOM      1  C   UNL     1      45.504   5.342   9.449  0.00  0.00    +0.000 C 
ATOM      2  C   UNL     1      45.637   5.550  10.768  0.00  0.00    +0.000 C 
ENDROOT
BRANCH   1   7
ATOM      3  C   UNL     1      46.638   2.735   6.958  0.00  0.00    +0.000 A 
ATOM      4  C   UNL     1      46.184   1.557   7.565  0.00  0.00    +0.000 A 
ATOM      5  C   UNL     1      45.480   1.610   8.766  0.00  0.00    +0.000 A 
ATOM      6  C   UNL     1      45.230   2.838   9.381  0.00  0.00    +0.000 A 
ATOM      7  C   UNL     1      45.668   4.032   8.795  0.00  0.00    +0.000 A 
ATOM      8  C   UNL     1      46.367   3.967   7.582  0.00  0.00    +0.000 A 
BRANCH   3   9
ATOM      9  C   UNL     1      47.403   2.689   5.661  0.00  0.00    +0.000 C 
BRANCH   9  10
ATOM     10  N   UNL     1      48.568   1.817   5.757  0.00  0.00    +0.000 NA
ATOM     11  H   UNL     1      48.322   0.890   5.415  0.00  0.00    +0.000 HD
ATOM     12  H   UNL     1      48.814   1.708   6.740  0.00  0.00    +0.000 HD
ENDBRANCH   9  10
ENDBRANCH   3   9
ENDBRANCH   1   7
BRANCH   2  13
ATOM     13  C   UNL     1      45.506   6.855  11.437  0.00  0.00    +0.000 A 
ATOM     14  C   UNL     1      46.362   7.285  12.456  0.00  0.00    +0.000 A 
ATOM     15  C   UNL     1      46.220   8.559  13.012  0.00  0.00    +0.000 A 
ATOM     16  C   UNL     1      45.233   9.428  12.540  0.00  0.00    +0.000 A 
ATOM     17  C   UNL     1      44.375   9.026  11.511  0.00  0.00    +0.000 A 
ATOM     18  C   UNL     1      44.516   7.735  10.978  0.00  0.00    +0.000 A 
BRANCH  17  19
ATOM     19  C   UNL     1      43.312   9.951  10.975  0.00  0.00    +0.000 C 
BRANCH  19  20
ATOM     20  N   UNL     1      42.011   9.292  10.917  0.00  0.00    +0.000 NA
ATOM     21  H   UNL     1      41.340   9.847  11.443  0.00  0.00    +0.000 HD
ATOM     22  H   UNL     1      42.071   8.387  11.380  0.00  0.00    +0.000 HD
ENDBRANCH  19  20
ENDBRANCH  17  19
ENDBRANCH   2  13
TORSDOF 6
ENDMDL
MODEL 2
REMARK VINA RESULT:    -6.260      1.797      2.445
REMARK INTER + INTRA:          -8.526
REMARK INTER:                  -8.135
REMARK INTRA:                  -0.391
REMARK UNBOUND:                -0.436
REMARK  Name = 
REMARK  6 active torsions:
REMARK  status: ('A' for Active; 'I' for Inactive)
REMARK    1  A    between atoms: N_1  and  C_2
REMARK    2  A    between atoms: C_2  and  C_3
REMARK    3  A    between atoms: C_7  and  C_8
REMARK    4  A    between atoms: C_9  and  C_10
REMARK    5  A    between atoms: C_14  and  C_15
REMARK    6  A    between atoms: C_15  and  N_16
REMARK                            x       y       z     vdW  Elec       q    Type
REMARK                         _______ _______ _______ _____ _____    ______ ____
ROOT
ATOM      1  C   UNL     1      45.680   5.430   9.425  0.00  0.00    +0.000 C 
ATOM      2  C   UNL     1      45.769   5.648  10.746  0.00  0.00    +0.000 C 
ENDROOT
BRANCH   1   7
ATOM      3  C   UNL     1      46.634   2.728   6.961  0.00  0.00    +0.000 A 
ATOM      4  C   UNL     1      46.148   1.583   7.604  0.00  0.00    +0.000 A 
ATOM      5  C   UNL     1      45.479   1.690   8.822  0.00  0.00    +0.000 A 
ATOM      6  C   UNL     1      45.298   2.940   9.417  0.00  0.00    +0.000 A 
ATOM      7  C   UNL     1      45.771   4.102   8.794  0.00  0.00    +0.000 A 
ATOM      8  C   UNL     1      46.433   3.982   7.565  0.00  0.00    +0.000 A 
BRANCH   3   9
ATOM      9  C   UNL     1      47.362   2.622   5.645  0.00  0.00    +0.000 C 
BRANCH   9  10
ATOM     10  N   UNL     1      48.540   1.771   5.751  0.00  0.00    +0.000 NA
ATOM     11  H   UNL     1      48.999   1.719   4.844  0.00  0.00    +0.000 HD
ATOM     12  H   UNL     1      48.239   0.823   5.978  0.00  0.00    +0.000 HD
ENDBRANCH   9  10
ENDBRANCH   3   9
ENDBRANCH   1   7
BRANCH   2  13
ATOM     13  C   UNL     1      45.711   6.970  11.393  0.00  0.00    +0.000 A 
ATOM     14  C   UNL     1      44.623   7.839  11.267  0.00  0.00    +0.000 A 
ATOM     15  C   UNL     1      44.605   9.056  11.952  0.00  0.00    +0.000 A 
ATOM     16  C   UNL     1      45.665   9.410  12.791  0.00  0.00    +0.000 A 
ATOM     17  C   UNL     1      46.758   8.549  12.945  0.00  0.00    +0.000 A 
ATOM     18  C   UNL     1      46.771   7.339  12.233  0.00  0.00    +0.000 A 
BRANCH  17  19
ATOM     19  C   UNL     1      47.907   8.901  13.855  0.00  0.00    +0.000 C 
BRANCH  19  20
ATOM     20  N   UNL     1      47.878   8.108  15.081  0.00  0.00    +0.000 NA
ATOM     21  H   UNL     1      46.910   7.901  15.313  0.00  0.00    +0.000 HD
ATOM     22  H   UNL     1      48.253   8.662  15.849  0.00  0.00    +0.000 HD
ENDBRANCH  19  20
ENDBRANCH  17  19
ENDBRANCH   2  13
TORSDOF 6
ENDMDL
MODEL 3
REMARK VINA RESULT:    -6.234      1.659      7.682
REMARK INTER + INTRA:          -8.492
REMARK INTER:                  -8.102
REMARK INTRA:                  -0.390
REMARK UNBOUND:                -0.436
REMARK  Name = 
REMARK  6 active torsions:
REMARK  status: ('A' for Active; 'I' for Inactive)
REMARK    1  A    between atoms: N_1  and  C_2
REMARK    2  A    between atoms: C_2  and  C_3
REMARK    3  A    between atoms: C_7  and  C_8
REMARK    4  A    between atoms: C_9  and  C_10
REMARK    5  A    between atoms: C_14  and  C_15
REMARK    6  A    between atoms: C_15  and  N_16
REMARK                            x       y       z     vdW  Elec       q    Type
REMARK                         _______ _______ _______ _____ _____    ______ ____
ROOT
ATOM      1  C   UNL     1      45.747   5.671  10.795  0.00  0.00    +0.000 C 
ATOM      2  C   UNL     1      45.508   5.361   9.511  0.00  0.00    +0.000 C 
ENDROOT
BRANCH   1   7
ATOM      3  C   UNL     1      46.472   8.849  12.708  0.00  0.00    +0.000 A 
ATOM      4  C   UNL     1      45.356   9.629  12.382  0.00  0.00    +0.000 A 
ATOM      5  C   UNL     1      44.349   9.112  11.569  0.00  0.00    +0.000 A 
ATOM      6  C   UNL     1      44.451   7.815  11.062  0.00  0.00    +0.000 A 
ATOM      7  C   UNL     1      45.555   7.012  11.375  0.00  0.00    +0.000 A 
ATOM      8  C   UNL     1      46.556   7.539  12.201  0.00  0.00    +0.000 A 
BRANCH   3   9
ATOM      9  C   UNL     1      47.568   9.400  13.584  0.00  0.00    +0.000 C 
BRANCH   9  10
ATOM     10  N   UNL     1      47.450   8.918  14.956  0.00  0.00    +0.000 NA
ATOM     11  H   UNL     1      47.964   8.045  15.049  0.00  0.00    +0.000 HD
ATOM     12  H   UNL     1      46.472   8.700  15.142  0.00  0.00    +0.000 HD
ENDBRANCH   9  10
ENDBRANCH   3   9
ENDBRANCH   1   7
BRANCH   2  13
ATOM     13  C   UNL     1      45.723   4.037   8.905  0.00  0.00    +0.000 A 
ATOM     14  C   UNL     1      45.204   2.854   9.440  0.00  0.00    +0.000 A 
ATOM     15  C   UNL     1      45.396   1.635   8.786  0.00  0.00    +0.000 A 
ATOM     16  C   UNL     1      46.090   1.586   7.575  0.00  0.00    +0.000 A 
ATOM     17  C   UNL     1      46.605   2.759   7.011  0.00  0.00    +0.000 A 
ATOM     18  C   UNL     1      46.423   3.973   7.692  0.00  0.00    +0.000 A 
BRANCH  17  19
ATOM     19  C   UNL     1      47.346   2.734   5.698  0.00  0.00    +0.000 C 
BRANCH  19  20
ATOM     20  N   UNL     1      48.465   1.798   5.735  0.00  0.00    +0.000 NA
ATOM     21  H   UNL     1      49.315   2.296   5.481  0.00  0.00    +0.000 HD
ATOM     22  H   UNL     1      48.325   1.078   5.029  0.00  0.00    +0.000 HD
ENDBRANCH  19  20
ENDBRANCH  17  19
ENDBRANCH   2  13
TORSDOF 6
ENDMDL
MODEL 4
REMARK VINA RESULT:    -5.881      5.228      8.236
REMARK INTER + INTRA:          -8.036
REMARK INTER:                  -7.573
REMARK INTRA:                  -0.463
REMARK UNBOUND:                -0.436
REMARK  Name = 
REMARK  6 active torsions:
REMARK  status: ('A' for Active; 'I' for Inactive)
REMARK    1  A    between atoms: N_1  and  C_2
REMARK    2  A    between atoms: C_2  and  C_3
REMARK    3  A    between atoms: C_7  and  C_8
REMARK    4  A    between atoms: C_9  and  C_10
REMARK    5  A    between atoms: C_14  and  C_15
REMARK    6  A    between atoms: C_15  and  N_16
REMARK                            x       y       z     vdW  Elec       q    Type
REMARK                         _______ _______ _______ _____ _____    ______ ____
ROOT
ATOM      1  C   UNL     1      47.060   3.856  14.822  0.00  0.00    +0.000 C 
ATOM      2  C   UNL     1      46.690   4.972  14.175  0.00  0.00    +0.000 C 
ENDROOT
BRANCH   1   7
ATOM      3  C   UNL     1      47.794   4.842  18.396  0.00  0.00    +0.000 A 
ATOM      4  C   UNL     1      48.612   3.785  18.812  0.00  0.00    +0.000 A 
ATOM      5  C   UNL     1      48.955   2.767  17.924  0.00  0.00    +0.000 A 
ATOM      6  C   UNL     1      48.476   2.789  16.612  0.00  0.00    +0.000 A 
ATOM      7  C   UNL     1      47.659   3.836  16.168  0.00  0.00    +0.000 A 
ATOM      8  C   UNL     1      47.329   4.858  17.069  0.00  0.00    +0.000 A 
BRANCH   3   9
ATOM      9  C   UNL     1      47.415   5.946  19.350  0.00  0.00    +0.000 C 
BRANCH   9  10
ATOM     10  N   UNL     1      47.231   7.215  18.657  0.00  0.00    +0.000 NA
ATOM     11  H   UNL     1      46.930   7.033  17.701  0.00  0.00    +0.000 HD
ATOM     12  H   UNL     1      48.133   7.685  18.592  0.00  0.00    +0.000 HD
ENDBRANCH   9  10
ENDBRANCH   3   9
ENDBRANCH   1   7
BRANCH   2  13
ATOM     13  C   UNL     1      46.119   5.016  12.819  0.00  0.00    +0.000 A 
ATOM     14  C   UNL     1      46.355   6.060  11.920  0.00  0.00    +0.000 A 
ATOM     15  C   UNL     1      45.829   6.015  10.626  0.00  0.00    +0.000 A 
ATOM     16  C   UNL     1      45.079   4.913  10.208  0.00  0.00    +0.000 A 
ATOM     17  C   UNL     1      44.842   3.848  11.085  0.00  0.00    +0.000 A 
ATOM     18  C   UNL     1      45.359   3.919  12.388  0.00  0.00    +0.000 A 
BRANCH  17  19
ATOM     19  C   UNL     1      44.048   2.642  10.653  0.00  0.00    +0.000 C 
BRANCH  19  20
ATOM     20  N   UNL     1      43.050   2.275  11.653  0.00  0.00    +0.000 NA
ATOM     21  H   UNL     1      42.670   1.362  11.414  0.00  0.00    +0.000 HD
ATOM     22  H   UNL     1      42.276   2.935  11.614  0.00  0.00    +0.000 HD
ENDBRANCH  19  20
ENDBRANCH  17  19
ENDBRANCH   2  13
TORSDOF 6
ENDMDL
MODEL 5
REMARK VINA RESULT:    -5.754      5.127      6.670
REMARK INTER + INTRA:          -7.871
REMARK INTER:                  -7.416
REMARK INTRA:                  -0.455
REMARK UNBOUND:                -0.436
REMARK  Name = 
REMARK  6 active torsions:
REMARK  status: ('A' for Active; 'I' for Inactive)
REMARK    1  A    between atoms: N_1  and  C_2
REMARK    2  A    between atoms: C_2  and  C_3
REMARK    3  A    between atoms: C_7  and  C_8
REMARK    4  A    between atoms: C_9  and  C_10
REMARK    5  A    between atoms: C_14  and  C_15
REMARK    6  A    between atoms: C_15  and  N_16
REMARK                            x       y       z     vdW  Elec       q    Type
REMARK                         _______ _______ _______ _____ _____    ______ ____
ROOT
ATOM      1  C   UNL     1      46.593   5.009  14.195  0.00  0.00    +0.000 C 
ATOM      2  C   UNL     1      47.147   3.970  14.839  0.00  0.00    +0.000 C 
ENDROOT
BRANCH   1   7
ATOM      3  C   UNL     1      44.843   3.817  11.064  0.00  0.00    +0.000 A 
ATOM      4  C   UNL     1      45.070   4.891  10.195  0.00  0.00    +0.000 A 
ATOM      5  C   UNL     1      45.819   5.990  10.613  0.00  0.00    +0.000 A 
ATOM      6  C   UNL     1      46.343   6.032  11.907  0.00  0.00    +0.000 A 
ATOM      7  C   UNL     1      46.135   4.970  12.795  0.00  0.00    +0.000 A 
ATOM      8  C   UNL     1      45.387   3.868  12.360  0.00  0.00    +0.000 A 
BRANCH   3   9
ATOM      9  C   UNL     1      44.031   2.627  10.623  0.00  0.00    +0.000 C 
BRANCH   9  10
ATOM     10  N   UNL     1      43.026   2.266  11.616  0.00  0.00    +0.000 NA
ATOM     11  H   UNL     1      43.293   1.389  12.060  0.00  0.00    +0.000 HD
ATOM     12  H   UNL     1      42.143   2.092  11.138  0.00  0.00    +0.000 HD
ENDBRANCH   9  10
ENDBRANCH   3   9
ENDBRANCH   1   7
BRANCH   2  13
ATOM     13  C   UNL     1      47.639   3.997  16.226  0.00  0.00    +0.000 A 
ATOM     14  C   UNL     1      47.987   2.846  16.940  0.00  0.00    +0.000 A 
ATOM     15  C   UNL     1      48.502   2.944  18.236  0.00  0.00    +0.000 A 
ATOM     16  C   UNL     1      48.695   4.195  18.825  0.00  0.00    +0.000 A 
ATOM     17  C   UNL     1      48.369   5.362  18.125  0.00  0.00    +0.000 A 
ATOM     18  C   UNL     1      47.832   5.247  16.833  0.00  0.00    +0.000 A 
BRANCH  17  19
ATOM     19  C   UNL     1      48.582   6.724  18.734  0.00  0.00    +0.000 C 
BRANCH  19  20
ATOM     20  N   UNL     1      47.508   7.645  18.371  0.00  0.00    +0.000 NA
ATOM     21  H   UNL     1      46.619   7.159  18.460  0.00  0.00    +0.000 HD
ATOM     22  H   UNL     1      47.604   7.904  17.392  0.00  0.00    +0.000 HD
ENDBRANCH  19  20
ENDBRANCH  17  19
ENDBRANCH   2  13
TORSDOF 6
ENDMDL
MODEL 6
REMARK VINA RESULT:    -5.722      5.841      7.939
REMARK INTER + INTRA:          -7.830
REMARK INTER:                  -7.380
REMARK INTRA:                  -0.450
REMARK UNBOUND:                -0.436
REMARK  Name = 
REMARK  6 active torsions:
REMARK  status: ('A' for Active; 'I' for Inactive)
REMARK    1  A    between atoms: N_1  and  C_2
REMARK    2  A    between atoms: C_2  and  C_3
REMARK    3  A    between atoms: C_7  and  C_8
REMARK    4  A    between atoms: C_9  and  C_10
REMARK    5  A    between atoms: C_14  and  C_15
REMARK    6  A    between atoms: C_15  and  N_16
REMARK                            x       y       z     vdW  Elec       q    Type
REMARK                         _______ _______ _______ _____ _____    ______ ____
ROOT
ATOM      1  C   UNL     1      46.911   3.961  15.109  0.00  0.00    +0.000 C 
ATOM      2  C   UNL     1      47.045   4.952  14.214  0.00  0.00    +0.000 C 
ENDROOT
BRANCH   1   7
ATOM      3  C   UNL     1      49.646   2.762  17.425  0.00  0.00    +0.000 A 
ATOM      4  C   UNL     1      49.465   3.607  18.527  0.00  0.00    +0.000 A 
ATOM      5  C   UNL     1      48.434   4.545  18.534  0.00  0.00    +0.000 A 
ATOM      6  C   UNL     1      47.578   4.656  17.437  0.00  0.00    +0.000 A 
ATOM      7  C   UNL     1      47.733   3.821  16.323  0.00  0.00    +0.000 A 
ATOM      8  C   UNL     1      48.769   2.877  16.332  0.00  0.00    +0.000 A 
BRANCH   3   9
ATOM      9  C   UNL     1      50.761   1.748  17.407  0.00  0.00    +0.000 C 
BRANCH   9  10
ATOM     10  N   UNL     1      51.924   2.217  18.149  0.00  0.00    +0.000 NA
ATOM     11  H   UNL     1      52.261   3.083  17.732  0.00  0.00    +0.000 HD
ATOM     12  H   UNL     1      52.674   1.534  18.046  0.00  0.00    +0.000 HD
ENDBRANCH   9  10
ENDBRANCH   3   9
ENDBRANCH   1   7
BRANCH   2  13
ATOM     13  C   UNL     1      46.254   5.093  12.980  0.00  0.00    +0.000 A 
ATOM     14  C   UNL     1      46.474   6.101  12.038  0.00  0.00    +0.000 A 
ATOM     15  C   UNL     1      45.726   6.146  10.859  0.00  0.00    +0.000 A 
ATOM     16  C   UNL     1      44.762   5.169  10.597  0.00  0.00    +0.000 A 
ATOM     17  C   UNL     1      44.534   4.141  11.518  0.00  0.00    +0.000 A 
ATOM     18  C   UNL     1      45.279   4.122  12.708  0.00  0.00    +0.000 A 
BRANCH  17  19
ATOM     19  C   UNL     1      43.510   3.067  11.252  0.00  0.00    +0.000 C 
BRANCH  19  20
ATOM     20  N   UNL     1      43.472   2.087  12.334  0.00  0.00    +0.000 NA
ATOM     21  H   UNL     1      43.998   2.453  13.124  0.00  0.00    +0.000 HD
ATOM     22  H   UNL     1      43.945   1.237  12.034  0.00  0.00    +0.000 HD
ENDBRANCH  19  20
ENDBRANCH  17  19
ENDBRANCH   2  13
TORSDOF 6
ENDMDL
MODEL 7
REMARK VINA RESULT:    -5.517      5.715      7.517
REMARK INTER + INTRA:          -7.566
REMARK INTER:                  -7.131
REMARK INTRA:                  -0.435
REMARK UNBOUND:                -0.436
REMARK  Name = 
REMARK  6 active torsions:
REMARK  status: ('A' for Active; 'I' for Inactive)
REMARK    1  A    between atoms: N_1  and  C_2
REMARK    2  A    between atoms: C_2  and  C_3
REMARK    3  A    between atoms: C_7  and  C_8
REMARK    4  A    between atoms: C_9  and  C_10
REMARK    5  A    between atoms: C_14  and  C_15
REMARK    6  A    between atoms: C_15  and  N_16
REMARK                            x       y       z     vdW  Elec       q    Type
REMARK                         _______ _______ _______ _____ _____    ______ ____
ROOT
ATOM      1  C   UNL     1      47.045   4.904  14.090  0.00  0.00    +0.000 C 
ATOM      2  C   UNL     1      46.681   4.267  15.213  0.00  0.00    +0.000 C 
ENDROOT
BRANCH   1   7
ATOM      3  C   UNL     1      44.672   4.008  11.288  0.00  0.00    +0.000 A 
ATOM      4  C   UNL     1      44.385   5.270  10.754  0.00  0.00    +0.000 A 
ATOM      5  C   UNL     1      44.987   6.411  11.281  0.00  0.00    +0.000 A 
ATOM      6  C   UNL     1      45.875   6.306  12.354  0.00  0.00    +0.000 A 
ATOM      7  C   UNL     1      46.183   5.055  12.905  0.00  0.00    +0.000 A 
ATOM      8  C   UNL     1      45.578   3.915  12.360  0.00  0.00    +0.000 A 
BRANCH   3   9
ATOM      9  C   UNL     1      44.023   2.769  10.728  0.00  0.00    +0.000 C 
BRANCH   9  10
ATOM     10  N   UNL     1      43.022   2.228  11.640  0.00  0.00    +0.000 NA
ATOM     11  H   UNL     1      43.013   1.213  11.564  0.00  0.00    +0.000 HD
ATOM     12  H   UNL     1      42.101   2.550  11.342  0.00  0.00    +0.000 HD
ENDBRANCH   9  10
ENDBRANCH   3   9
ENDBRANCH   1   7
BRANCH   2  13
ATOM     13  C   UNL     1      47.537   4.078  16.396  0.00  0.00    +0.000 A 
ATOM     14  C   UNL     1      47.287   4.686  17.630  0.00  0.00    +0.000 A 
ATOM     15  C   UNL     1      48.106   4.422  18.730  0.00  0.00    +0.000 A 
ATOM     16  C   UNL     1      49.173   3.527  18.616  0.00  0.00    +0.000 A 
ATOM     17  C   UNL     1      49.434   2.894  17.396  0.00  0.00    +0.000 A 
ATOM     18  C   UNL     1      48.615   3.187  16.294  0.00  0.00    +0.000 A 
BRANCH  17  19
ATOM     19  C   UNL     1      50.571   1.915  17.252  0.00  0.00    +0.000 C 
BRANCH  19  20
ATOM     20  N   UNL     1      51.770   2.385  17.939  0.00  0.00    +0.000 NA
ATOM     21  H   UNL     1      51.988   1.738  18.693  0.00  0.00    +0.000 HD
ATOM     22  H   UNL     1      51.579   3.287  18.371  0.00  0.00    +0.000 HD
ENDBRANCH  19  20
ENDBRANCH  17  19
ENDBRANCH   2  13
TORSDOF 6
ENDMDL
MODEL 8
REMARK VINA RESULT:    -5.458      3.461      4.960
REMARK INTER + INTRA:          -7.489
REMARK INTER:                  -7.059
REMARK INTRA:                  -0.430
REMARK UNBOUND:                -0.436
REMARK  Name = 
REMARK  6 active torsions:
REMARK  status: ('A' for Active; 'I' for Inactive)
REMARK    1  A    between atoms: N_1  and  C_2
REMARK    2  A    between atoms: C_2  and  C_3
REMARK    3  A    between atoms: C_7  and  C_8
REMARK    4  A    between atoms: C_9  and  C_10
REMARK    5  A    between atoms: C_14  and  C_15
REMARK    6  A    between atoms: C_15  and  N_16
REMARK                            x       y       z     vdW  Elec       q    Type
REMARK                         _______ _______ _______ _____ _____    ______ ____
ROOT
ATOM      1  C   UNL     1      45.816   6.752  11.688  0.00  0.00    +0.000 C 
ATOM      2  C   UNL     1      47.147   6.751  11.862  0.00  0.00    +0.000 C 
ENDROOT
BRANCH   1   7
ATOM      3  C   UNL     1      44.353   3.481  10.488  0.00  0.00    +0.000 A 
ATOM      4  C   UNL     1      43.561   3.114  11.583  0.00  0.00    +0.000 A 
ATOM      5  C   UNL     1      43.475   3.944  12.700  0.00  0.00    +0.000 A 
ATOM      6  C   UNL     1      44.186   5.145  12.739  0.00  0.00    +0.000 A 
ATOM      7  C   UNL     1      44.982   5.539  11.656  0.00  0.00    +0.000 A 
ATOM      8  C   UNL     1      45.054   4.700  10.536  0.00  0.00    +0.000 A 
BRANCH   3   9
ATOM      9  C   UNL     1      44.456   2.589   9.278  0.00  0.00    +0.000 C 
BRANCH   9  10
ATOM     10  N   UNL     1      44.434   3.359   8.040  0.00  0.00    +0.000 NA
ATOM     11  H   UNL     1      44.938   2.848   7.319  0.00  0.00    +0.000 HD
ATOM     12  H   UNL     1      44.943   4.230   8.189  0.00  0.00    +0.000 HD
ENDBRANCH   9  10
ENDBRANCH   3   9
ENDBRANCH   1   7
BRANCH   2  13
ATOM     13  C   UNL     1      48.003   7.950  11.867  0.00  0.00    +0.000 A 
ATOM     14  C   UNL     1      47.560   9.207  12.289  0.00  0.00    +0.000 A 
ATOM     15  C   UNL     1      48.438  10.293  12.323  0.00  0.00    +0.000 A 
ATOM     16  C   UNL     1      49.776  10.130  11.956  0.00  0.00    +0.000 A 
ATOM     17  C   UNL     1      50.246   8.878  11.545  0.00  0.00    +0.000 A 
ATOM     18  C   UNL     1      49.347   7.801  11.495  0.00  0.00    +0.000 A 
BRANCH  17  19
ATOM     19  C   UNL     1      51.689   8.673  11.158  0.00  0.00    +0.000 C 
BRANCH  19  20
ATOM     20  N   UNL     1      51.979   7.265  10.906  0.00  0.00    +0.000 NA
ATOM     21  H   UNL     1      52.922   7.188  10.532  0.00  0.00    +0.000 HD
ATOM     22  H   UNL     1      51.349   6.915  10.187  0.00  0.00    +0.000 HD
ENDBRANCH  19  20
ENDBRANCH  17  19
ENDBRANCH   2  13
TORSDOF 6
ENDMDL
MODEL 9
REMARK VINA RESULT:    -5.336      4.638      6.107
REMARK INTER + INTRA:          -7.332
REMARK INTER:                  -6.891
REMARK INTRA:                  -0.440
REMARK UNBOUND:                -0.436
REMARK  Name = 
REMARK  6 active torsions:
REMARK  status: ('A' for Active; 'I' for Inactive)
REMARK    1  A    between atoms: N_1  and  C_2
REMARK    2  A    between atoms: C_2  and  C_3
REMARK    3  A    between atoms: C_7  and  C_8
REMARK    4  A    between atoms: C_9  and  C_10
REMARK    5  A    between atoms: C_14  and  C_15
REMARK    6  A    between atoms: C_15  and  N_16
REMARK                            x       y       z     vdW  Elec       q    Type
REMARK                         _______ _______ _______ _____ _____    ______ ____
ROOT
ATOM      1  C   UNL     1      45.870   4.876  13.738  0.00  0.00    +0.000 C 
ATOM      2  C   UNL     1      47.035   5.525  13.885  0.00  0.00    +0.000 C 
ENDROOT
BRANCH   1   7
ATOM      3  C   UNL     1      44.579   4.033  10.288  0.00  0.00    +0.000 A 
ATOM      4  C   UNL     1      43.418   4.814  10.229  0.00  0.00    +0.000 A 
ATOM      5  C   UNL     1      43.070   5.640  11.295  0.00  0.00    +0.000 A 
ATOM      6  C   UNL     1      43.872   5.690  12.437  0.00  0.00    +0.000 A 
ATOM      7  C   UNL     1      45.041   4.922  12.522  0.00  0.00    +0.000 A 
ATOM      8  C   UNL     1      45.384   4.102  11.439  0.00  0.00    +0.000 A 
BRANCH   3   9
ATOM      9  C   UNL     1      44.962   3.133   9.141  0.00  0.00    +0.000 C 
BRANCH   9  10
ATOM     10  N   UNL     1      44.630   1.741   9.419  0.00  0.00    +0.000 NA
ATOM     11  H   UNL     1      43.981   1.403   8.710  0.00  0.00    +0.000 HD
ATOM     12  H   UNL     1      44.135   1.694  10.309  0.00  0.00    +0.000 HD
ENDBRANCH   9  10
ENDBRANCH   3   9
ENDBRANCH   1   7
BRANCH   2  13
ATOM     13  C   UNL     1      47.863   5.516  15.102  0.00  0.00    +0.000 A 
ATOM     14  C   UNL     1      48.793   6.515  15.406  0.00  0.00    +0.000 A 
ATOM     15  C   UNL     1      49.508   6.479  16.606  0.00  0.00    +0.000 A 
ATOM     16  C   UNL     1      49.285   5.453  17.528  0.00  0.00    +0.000 A 
ATOM     17  C   UNL     1      48.348   4.450  17.253  0.00  0.00    +0.000 A 
ATOM     18  C   UNL     1      47.654   4.489  16.034  0.00  0.00    +0.000 A 
BRANCH  17  19
ATOM     19  C   UNL     1      48.080   3.341  18.239  0.00  0.00    +0.000 C 
BRANCH  19  20
ATOM     20  N   UNL     1      46.826   2.656  17.942  0.00  0.00    +0.000 NA
ATOM     21  H   UNL     1      46.546   2.885  16.991  0.00  0.00    +0.000 HD
ATOM     22  H   UNL     1      46.096   3.010  18.556  0.00  0.00    +0.000 HD
ENDBRANCH  19  20
ENDBRANCH  17  19
ENDBRANCH   2  13
TORSDOF 6
ENDMDL
