MODEL 1
REMARK VINA RESULT:    -8.800      0.000      0.000
REMARK INTER + INTRA:         -12.137
REMARK INTER:                 -11.373
REMARK INTRA:                  -0.764
REMARK UNBOUND:                -0.764
REMARK  Name = 
REMARK  5 active torsions:
REMARK  status: ('A' for Active; 'I' for Inactive)
REMARK    1  A    between atoms: C_2  and  C_4
REMARK    2  A    between atoms: C_7  and  O_8
REMARK    3  A    between atoms: O_8  and  C_9
REMARK    4  A    between atoms: C_9  and  C_10
REMARK    5  A    between atoms: C_12  and  C_13
REMARK                            x       y       z     vdW  Elec       q    Type
REMARK                         _______ _______ _______ _____ _____    ______ ____
ROOT
ATOM      1  C   UNL     1      43.637   3.302  11.644  0.00  0.00    +0.000 C 
ENDROOT
BRANCH   1   2
ATOM      2  C   UNL     1      44.806   4.021  12.280  0.00  0.00    +0.000 A 
ATOM      3  C   UNL     1      45.018   5.380  12.052  0.00  0.00    +0.000 A 
ATOM      4  C   UNL     1      46.134   6.025  12.603  0.00  0.00    +0.000 A 
ATOM      5  C   UNL     1      47.023   5.236  13.343  0.00  0.00    +0.000 A 
ATOM      6  C   UNL     1      46.754   3.890  13.514  0.00  0.00    +0.000 A 
ATOM      7  N   UNL     1      45.670   3.268  13.003  0.00  0.00    +0.000 NA
BRANCH   4   8
ATOM      8  C   UNL     1      46.371   7.466  12.401  0.00  0.00    +0.000 A 
ATOM      9  C   UNL     1      47.653   8.007  12.279  0.00  0.00    +0.000 A 
ATOM     10  C   UNL     1      47.805   9.381  12.118  0.00  0.00    +0.000 A 
ATOM     11  C   UNL     1      46.676  10.187  12.074  0.00  0.00    +0.000 A 
ATOM     12  C   UNL     1      45.438   9.579  12.185  0.00  0.00    +0.000 A 
ATOM     13  N   UNL     1      45.262   8.247  12.340  0.00  0.00    +0.000 NA
ENDBRANCH   4   8
ENDBRANCH   1   2
BRANCH   1  14
ATOM     14  O   UNL     1      43.475   3.675  10.269  0.00  0.00    +0.000 OA
BRANCH  14  18
ATOM     15  C   UNL     1      46.417   2.591   7.517  0.00  0.00    +0.000 A 
ATOM     16  C   UNL     1      45.892   1.605   8.358  0.00  0.00    +0.000 A 
ATOM     17  C   UNL     1      44.906   1.930   9.295  0.00  0.00    +0.000 A 
ATOM     18  C   UNL     1      44.441   3.242   9.403  0.00  0.00    +0.000 A 
ATOM     19  C   UNL     1      44.983   4.230   8.574  0.00  0.00    +0.000 A 
ATOM     20  C   UNL     1      45.972   3.911   7.639  0.00  0.00    +0.000 A 
BRANCH  15  22
ATOM     21  N   UNL     1      47.470   3.032   5.369  0.00  0.00    +0.000 N 
ATOM     22  C   UNL     1      47.456   2.271   6.505  0.00  0.00    +0.000 C 
ATOM     23  O   UNL     1      48.288   1.393   6.690  0.00  0.00    +0.000 OA
ATOM     24  H   UNL     1      48.243   2.878   4.734  0.00  0.00    +0.000 HD
ATOM     25  H   UNL     1      46.980   3.912   5.303  0.00  0.00    +0.000 HD
ENDBRANCH  15  22
ENDBRANCH  14  18
ENDBRANCH   1  14
TORSDOF 5
ENDMDL
MODEL 2
REMARK VINA RESULT:    -8.597      2.035      4.001
REMARK INTER + INTRA:         -11.874
REMARK INTER:                 -11.354
REMARK INTRA:                  -0.520
REMARK UNBOUND:                -0.764
REMARK  Name = 
REMARK  5 active torsions:
REMARK  status: ('A' for Active; 'I' for Inactive)
REMARK    1  A    between atoms: C_2  and  C_4
REMARK    2  A    between atoms: C_7  and  O_8
REMARK    3  A    between atoms: O_8  and  C_9
REMARK    4  A    between atoms: C_9  and  C_10
REMARK    5  A    between atoms: C_12  and  C_13
REMARK                            x       y       z     vdW  Elec       q    Type
REMARK                         _______ _______ _______ _____ _____    ______ ____
ROOT
ATOM      1  C   UNL     1      43.949   4.100  11.640  0.00  0.00    +0.000 C 
ENDROOT
BRANCH   1   2
ATOM      2  C   UNL     1      45.149   4.719  12.323  0.00  0.00    +0.000 A 
ATOM      3  C   UNL     1      45.674   4.160  13.486  0.00  0.00    +0.000 A 
ATOM      4  C   UNL     1      46.753   4.772  14.140  0.00  0.00    +0.000 A 
ATOM      5  C   UNL     1      47.232   5.968  13.594  0.00  0.00    +0.000 A 
ATOM      6  C   UNL     1      46.649   6.470  12.444  0.00  0.00    +0.000 A 
ATOM      7  N   UNL     1      45.624   5.874  11.799  0.00  0.00    +0.000 NA
BRANCH   4   8
ATOM      8  C   UNL     1      47.348   4.191  15.358  0.00  0.00    +0.000 A 
ATOM      9  C   UNL     1      47.403   4.882  16.571  0.00  0.00    +0.000 A 
ATOM     10  C   UNL     1      48.004   4.283  17.675  0.00  0.00    +0.000 A 
ATOM     11  C   UNL     1      48.532   3.007  17.548  0.00  0.00    +0.000 A 
ATOM     12  C   UNL     1      48.427   2.377  16.321  0.00  0.00    +0.000 A 
ATOM     13  N   UNL     1      47.846   2.934  15.234  0.00  0.00    +0.000 NA
ENDBRANCH   4   8
ENDBRANCH   1   2
BRANCH   1  14
ATOM     14  O   UNL     1      43.860   4.501  10.267  0.00  0.00    +0.000 OA
BRANCH  14  18
ATOM     15  C   UNL     1      46.467   2.443   7.742  0.00  0.00    +0.000 A 
ATOM     16  C   UNL     1      46.409   3.837   7.651  0.00  0.00    +0.000 A 
ATOM     17  C   UNL     1      45.546   4.562   8.479  0.00  0.00    +0.000 A 
ATOM     18  C   UNL     1      44.732   3.900   9.400  0.00  0.00    +0.000 A 
ATOM     19  C   UNL     1      44.777   2.504   9.474  0.00  0.00    +0.000 A 
ATOM     20  C   UNL     1      45.635   1.775   8.645  0.00  0.00    +0.000 A 
BRANCH  15  22
ATOM     21  N   UNL     1      48.510   2.280   6.431  0.00  0.00    +0.000 N 
ATOM     22  C   UNL     1      47.384   1.650   6.883  0.00  0.00    +0.000 C 
ATOM     23  O   UNL     1      47.165   0.476   6.619  0.00  0.00    +0.000 OA
ATOM     24  H   UNL     1      49.179   1.705   5.936  0.00  0.00    +0.000 HD
ATOM     25  H   UNL     1      48.845   3.143   6.835  0.00  0.00    +0.000 HD
ENDBRANCH  15  22
ENDBRANCH  14  18
ENDBRANCH   1  14
TORSDOF 5
ENDMDL
MODEL 3
REMARK VINA RESULT:    -8.513      1.148      1.712
REMARK INTER + INTRA:         -11.766
REMARK INTER:                 -11.063
REMARK INTRA:                  -0.703
REMARK UNBOUND:                -0.764
REMARK  Name = 
REMARK  5 active torsions:
REMARK  status: ('A' for Active; 'I' for Inactive)
REMARK    1  A    between atoms: C_2  and  C_4
REMARK    2  A    between atoms: C_7  and  O_8
REMARK    3  A    between atoms: O_8  and  C_9
REMARK    4  A    between atoms: C_9  and  C_10
REMARK    5  A    between atoms: C_12  and  C_13
REMARK                            x       y       z     vdW  Elec       q    Type
REMARK                         _______ _______ _______ _____ _____    ______ ____
ROOT
ATOM      1  C   UNL     1      43.546   4.247  11.435  0.00  0.00    +0.000 C 
ENDROOT
BRANCH   1   2
ATOM      2  C   UNL     1      44.785   4.704  12.172  0.00  0.00    +0.000 A 
ATOM      3  C   UNL     1      45.378   5.931  11.880  0.00  0.00    +0.000 A 
ATOM      4  C   UNL     1      46.555   6.322  12.531  0.00  0.00    +0.000 A 
ATOM      5  C   UNL     1      47.112   5.413  13.440  0.00  0.00    +0.000 A 
ATOM      6  C   UNL     1      46.474   4.206  13.668  0.00  0.00    +0.000 A 
ATOM      7  N   UNL     1      45.328   3.834  13.058  0.00  0.00    +0.000 NA
BRANCH   4   8
ATOM      8  C   UNL     1      47.192   7.624  12.262  0.00  0.00    +0.000 A 
ATOM      9  C   UNL     1      46.521   8.838  12.428  0.00  0.00    +0.000 A 
ATOM     10  C   UNL     1      47.174  10.030  12.128  0.00  0.00    +0.000 A 
ATOM     11  C   UNL     1      48.486   9.988  11.677  0.00  0.00    +0.000 A 
ATOM     12  C   UNL     1      49.092   8.751  11.553  0.00  0.00    +0.000 A 
ATOM     13  N   UNL     1      48.482   7.578  11.839  0.00  0.00    +0.000 NA
ENDBRANCH   4   8
ENDBRANCH   1   2
BRANCH   1  14
ATOM     14  O   UNL     1      43.606   4.588  10.044  0.00  0.00    +0.000 OA
BRANCH  14  18
ATOM     15  C   UNL     1      46.305   2.274   7.863  0.00  0.00    +0.000 A 
ATOM     16  C   UNL     1      46.306   3.659   7.672  0.00  0.00    +0.000 A 
ATOM     17  C   UNL     1      45.414   4.468   8.384  0.00  0.00    +0.000 A 
ATOM     18  C   UNL     1      44.512   3.900   9.286  0.00  0.00    +0.000 A 
ATOM     19  C   UNL     1      44.500   2.512   9.459  0.00  0.00    +0.000 A 
ATOM     20  C   UNL     1      45.386   1.699   8.746  0.00  0.00    +0.000 A 
BRANCH  15  22
ATOM     21  N   UNL     1      48.353   1.986   6.583  0.00  0.00    +0.000 N 
ATOM     22  C   UNL     1      47.249   1.392   7.129  0.00  0.00    +0.000 C 
ATOM     23  O   UNL     1      47.071   0.185   7.045  0.00  0.00    +0.000 OA
ATOM     24  H   UNL     1      49.043   1.365   6.177  0.00  0.00    +0.000 HD
ATOM     25  H   UNL     1      48.658   2.910   6.852  0.00  0.00    +0.000 HD
ENDBRANCH  15  22
ENDBRANCH  14  18
ENDBRANCH   1  14
TORSDOF 5
ENDMDL
MODEL 4
REMARK VINA RESULT:    -7.690      2.852      6.606
REMARK INTER + INTRA:         -10.702
REMARK INTER:                  -9.861
REMARK INTRA:                  -0.841
REMARK UNBOUND:                -0.764
REMARK  Name = 
REMARK  5 active torsions:
REMARK  status: ('A' for Active; 'I' for Inactive)
REMARK    1  A    between atoms: C_2  and  C_4
REMARK    2  A    between atoms: C_7  and  O_8
REMARK    3  A    between atoms: O_8  and  C_9
REMARK    4  A    between atoms: C_9  and  C_10
REMARK    5  A    between atoms: C_12  and  C_13
REMARK                            x       y       z     vdW  Elec       q    Type
REMARK                         _______ _______ _______ _____ _____    ______ ____
ROOT
ATOM      1  C   UNL     1      44.116   6.410  11.593  0.00  0.00    +0.000 C 
ENDROOT
BRANCH   1   2
ATOM      2  C   UNL     1      44.158   4.961  11.162  0.00  0.00    +0.000 A 
ATOM      3  C   UNL     1      44.907   4.567  10.055  0.00  0.00    +0.000 A 
ATOM      4  C   UNL     1      44.897   3.231   9.632  0.00  0.00    +0.000 A 
ATOM      5  C   UNL     1      44.078   2.345  10.343  0.00  0.00    +0.000 A 
ATOM      6  C   UNL     1      43.350   2.813  11.423  0.00  0.00    +0.000 A 
ATOM      7  N   UNL     1      43.373   4.094  11.847  0.00  0.00    +0.000 NA
BRANCH   4   8
ATOM      8  C   UNL     1      45.699   2.778   8.481  0.00  0.00    +0.000 A 
ATOM      9  C   UNL     1      46.026   3.619   7.414  0.00  0.00    +0.000 A 
ATOM     10  C   UNL     1      46.763   3.117   6.346  0.00  0.00    +0.000 A 
ATOM     11  C   UNL     1      47.166   1.789   6.366  0.00  0.00    +0.000 A 
ATOM     12  C   UNL     1      46.820   1.020   7.462  0.00  0.00    +0.000 A 
ATOM     13  N   UNL     1      46.106   1.483   8.514  0.00  0.00    +0.000 NA
ENDBRANCH   4   8
ENDBRANCH   1   2
BRANCH   1  14
ATOM     14  O   UNL     1      44.794   6.607  12.841  0.00  0.00    +0.000 OA
BRANCH  14  18
ATOM     15  C   UNL     1      48.845   7.534  12.473  0.00  0.00    +0.000 A 
ATOM     16  C   UNL     1      48.485   6.368  13.157  0.00  0.00    +0.000 A 
ATOM     17  C   UNL     1      47.137   6.025  13.303  0.00  0.00    +0.000 A 
ATOM     18  C   UNL     1      46.140   6.845  12.772  0.00  0.00    +0.000 A 
ATOM     19  C   UNL     1      46.502   8.020  12.106  0.00  0.00    +0.000 A 
ATOM     20  C   UNL     1      47.849   8.370  11.962  0.00  0.00    +0.000 A 
BRANCH  15  22
ATOM     21  N   UNL     1      50.920   7.390  11.211  0.00  0.00    +0.000 N 
ATOM     22  C   UNL     1      50.270   7.915  12.294  0.00  0.00    +0.000 C 
ATOM     23  O   UNL     1      50.830   8.692  13.055  0.00  0.00    +0.000 OA
ATOM     24  H   UNL     1      51.855   7.737  11.037  0.00  0.00    +0.000 HD
ATOM     25  H   UNL     1      50.427   6.968  10.438  0.00  0.00    +0.000 HD
ENDBRANCH  15  22
ENDBRANCH  14  18
ENDBRANCH   1  14
TORSDOF 5
ENDMDL
MODEL 5
REMARK VINA RESULT:    -7.431      2.743      7.078
REMARK INTER + INTRA:         -10.367
REMARK INTER:                  -9.748
REMARK INTRA:                  -0.619
REMARK UNBOUND:                -0.764
REMARK  Name = 
REMARK  5 active torsions:
REMARK  status: ('A' for Active; 'I' for Inactive)
REMARK    1  A    between atoms: C_2  and  C_4
REMARK    2  A    between atoms: C_7  and  O_8
REMARK    3  A    between atoms: O_8  and  C_9
REMARK    4  A    between atoms: C_9  and  C_10
REMARK    5  A    between atoms: C_12  and  C_13
REMARK                            x       y       z     vdW  Elec       q    Type
REMARK                         _______ _______ _______ _____ _____    ______ ____
ROOT
ATOM      1  C   UNL     1      43.901   6.419  11.448  0.00  0.00    +0.000 C 
ENDROOT
BRANCH   1   2
ATOM      2  C   UNL     1      44.021   4.960  11.066  0.00  0.00    +0.000 A 
ATOM      3  C   UNL     1      44.786   4.570   9.969  0.00  0.00    +0.000 A 
ATOM      4  C   UNL     1      44.848   3.221   9.592  0.00  0.00    +0.000 A 
ATOM      5  C   UNL     1      44.081   2.317  10.337  0.00  0.00    +0.000 A 
ATOM      6  C   UNL     1      43.333   2.781  11.405  0.00  0.00    +0.000 A 
ATOM      7  N   UNL     1      43.288   4.076  11.785  0.00  0.00    +0.000 NA
BRANCH   4   8
ATOM      8  C   UNL     1      45.669   2.774   8.452  0.00  0.00    +0.000 A 
ATOM      9  C   UNL     1      45.996   3.614   7.384  0.00  0.00    +0.000 A 
ATOM     10  C   UNL     1      46.752   3.117   6.327  0.00  0.00    +0.000 A 
ATOM     11  C   UNL     1      47.174   1.795   6.359  0.00  0.00    +0.000 A 
ATOM     12  C   UNL     1      46.827   1.027   7.456  0.00  0.00    +0.000 A 
ATOM     13  N   UNL     1      46.095   1.485   8.498  0.00  0.00    +0.000 NA
ENDBRANCH   4   8
ENDBRANCH   1   2
BRANCH   1  14
ATOM     14  O   UNL     1      45.049   7.168  11.028  0.00  0.00    +0.000 OA
BRANCH  14  18
ATOM     15  C   UNL     1      48.113   7.574  13.830  0.00  0.00    +0.000 A 
ATOM     16  C   UNL     1      47.073   8.510  13.836  0.00  0.00    +0.000 A 
ATOM     17  C   UNL     1      46.030   8.408  12.910  0.00  0.00    +0.000 A 
ATOM     18  C   UNL     1      46.019   7.376  11.970  0.00  0.00    +0.000 A 
ATOM     19  C   UNL     1      47.071   6.454  11.954  0.00  0.00    +0.000 A 
ATOM     20  C   UNL     1      48.119   6.555  12.874  0.00  0.00    +0.000 A 
BRANCH  15  22
ATOM     21  N   UNL     1      49.538   8.891  15.297  0.00  0.00    +0.000 N 
ATOM     22  C   UNL     1      49.228   7.652  14.809  0.00  0.00    +0.000 C 
ATOM     23  O   UNL     1      49.821   6.653  15.192  0.00  0.00    +0.000 OA
ATOM     24  H   UNL     1      50.225   8.922  16.040  0.00  0.00    +0.000 HD
ATOM     25  H   UNL     1      48.913   9.679  15.206  0.00  0.00    +0.000 HD
ENDBRANCH  15  22
ENDBRANCH  14  18
ENDBRANCH   1  14
TORSDOF 5
ENDMDL
MODEL 6
REMARK VINA RESULT:    -7.420      2.933      6.735
REMARK INTER + INTRA:         -10.354
REMARK INTER:                  -9.577
REMARK INTRA:                  -0.776
REMARK UNBOUND:                -0.764
REMARK  Name = 
REMARK  5 active torsions:
REMARK  status: ('A' for Active; 'I' for Inactive)
REMARK    1  A    between atoms: C_2  and  C_4
REMARK    2  A    between atoms: C_7  and  O_8
REMARK    3  A    between atoms: O_8  and  C_9
REMARK    4  A    between atoms: C_9  and  C_10
REMARK    5  A    between atoms: C_12  and  C_13
REMARK                            x       y       z     vdW  Elec       q    Type
REMARK                         _______ _______ _______ _____ _____    ______ ____
ROOT
ATOM      1  C   UNL     1      44.296   6.848  11.486  0.00  0.00    +0.000 C 
ENDROOT
BRANCH   1   2
ATOM      2  C   UNL     1      44.266   5.382  11.116  0.00  0.00    +0.000 A 
ATOM      3  C   UNL     1      44.970   4.910  10.009  0.00  0.00    +0.000 A 
ATOM      4  C   UNL     1      44.892   3.559   9.644  0.00  0.00    +0.000 A 
ATOM      5  C   UNL     1      44.054   2.740  10.410  0.00  0.00    +0.000 A 
ATOM      6  C   UNL     1      43.374   3.283  11.486  0.00  0.00    +0.000 A 
ATOM      7  N   UNL     1      43.462   4.579  11.854  0.00  0.00    +0.000 NA
BRANCH   4   8
ATOM      8  C   UNL     1      45.646   3.025   8.495  0.00  0.00    +0.000 A 
ATOM      9  C   UNL     1      46.018   1.682   8.398  0.00  0.00    +0.000 A 
ATOM     10  C   UNL     1      46.753   1.252   7.297  0.00  0.00    +0.000 A 
ATOM     11  C   UNL     1      47.096   2.167   6.312  0.00  0.00    +0.000 A 
ATOM     12  C   UNL     1      46.679   3.476   6.467  0.00  0.00    +0.000 A 
ATOM     13  N   UNL     1      45.962   3.921   7.525  0.00  0.00    +0.000 NA
ENDBRANCH   4   8
ENDBRANCH   1   2
BRANCH   1  14
ATOM     14  O   UNL     1      45.014   7.067  12.707  0.00  0.00    +0.000 OA
BRANCH  14  18
ATOM     15  C   UNL     1      49.101   7.867  12.450  0.00  0.00    +0.000 A 
ATOM     16  C   UNL     1      48.199   8.869  12.079  0.00  0.00    +0.000 A 
ATOM     17  C   UNL     1      46.821   8.637  12.149  0.00  0.00    +0.000 A 
ATOM     18  C   UNL     1      46.335   7.404  12.585  0.00  0.00    +0.000 A 
ATOM     19  C   UNL     1      47.240   6.397  12.936  0.00  0.00    +0.000 A 
ATOM     20  C   UNL     1      48.618   6.622  12.862  0.00  0.00    +0.000 A 
BRANCH  15  22
ATOM     21  N   UNL     1      51.245   7.511  11.358  0.00  0.00    +0.000 N 
ATOM     22  C   UNL     1      50.568   8.090  12.396  0.00  0.00    +0.000 C 
ATOM     23  O   UNL     1      51.145   8.788  13.218  0.00  0.00    +0.000 OA
ATOM     24  H   UNL     1      52.224   7.753  11.268  0.00  0.00    +0.000 HD
ATOM     25  H   UNL     1      50.775   7.158  10.537  0.00  0.00    +0.000 HD
ENDBRANCH  15  22
ENDBRANCH  14  18
ENDBRANCH   1  14
TORSDOF 5
ENDMDL
MODEL 7
REMARK VINA RESULT:    -7.206      3.270      7.486
REMARK INTER + INTRA:         -10.077
REMARK INTER:                  -9.555
REMARK INTRA:                  -0.522
REMARK UNBOUND:                -0.764
REMARK  Name = 
REMARK  5 active torsions:
REMARK  status: ('A' for Active; 'I' for Inactive)
REMARK    1  A    between atoms: C_2  and  C_4
REMARK    2  A    between atoms: C_7  and  O_8
REMARK    3  A    between atoms: O_8  and  C_9
REMARK    4  A    between atoms: C_9  and  C_10
REMARK    5  A    between atoms: C_12  and  C_13
REMARK                            x       y       z     vdW  Elec       q    Type
REMARK                         _______ _______ _______ _____ _____    ______ ____
ROOT
ATOM      1  C   UNL     1      45.942   7.123  12.620  0.00  0.00    +0.000 C 
ENDROOT
BRANCH   1   2
ATOM      2  C   UNL     1      45.124   6.150  11.801  0.00  0.00    +0.000 A 
ATOM      3  C   UNL     1      45.717   5.389  10.796  0.00  0.00    +0.000 A 
ATOM      4  C   UNL     1      44.941   4.529  10.007  0.00  0.00    +0.000 A 
ATOM      5  C   UNL     1      43.562   4.511  10.253  0.00  0.00    +0.000 A 
ATOM      6  C   UNL     1      43.043   5.307  11.259  0.00  0.00    +0.000 A 
ATOM      7  N   UNL     1      43.790   6.121  12.035  0.00  0.00    +0.000 NA
BRANCH   4   8
ATOM      8  C   UNL     1      45.543   3.692   8.953  0.00  0.00    +0.000 A 
ATOM      9  C   UNL     1      45.577   2.297   9.028  0.00  0.00    +0.000 A 
ATOM     10  C   UNL     1      46.187   1.570   8.010  0.00  0.00    +0.000 A 
ATOM     11  C   UNL     1      46.743   2.247   6.934  0.00  0.00    +0.000 A 
ATOM     12  C   UNL     1      46.657   3.628   6.919  0.00  0.00    +0.000 A 
ATOM     13  N   UNL     1      46.069   4.359   7.894  0.00  0.00    +0.000 NA
ENDBRANCH   4   8
ENDBRANCH   1   2
BRANCH   1  14
ATOM     14  O   UNL     1      47.284   6.656  12.807  0.00  0.00    +0.000 OA
BRANCH  14  18
ATOM     15  C   UNL     1      47.974   4.769  16.463  0.00  0.00    +0.000 A 
ATOM     16  C   UNL     1      48.639   5.969  16.194  0.00  0.00    +0.000 A 
ATOM     17  C   UNL     1      48.435   6.630  14.978  0.00  0.00    +0.000 A 
ATOM     18  C   UNL     1      47.571   6.095  14.021  0.00  0.00    +0.000 A 
ATOM     19  C   UNL     1      46.923   4.884  14.285  0.00  0.00    +0.000 A 
ATOM     20  C   UNL     1      47.127   4.217  15.497  0.00  0.00    +0.000 A 
BRANCH  15  22
ATOM     21  N   UNL     1      47.347   2.982  17.989  0.00  0.00    +0.000 N 
ATOM     22  C   UNL     1      48.163   4.053  17.751  0.00  0.00    +0.000 C 
ATOM     23  O   UNL     1      49.031   4.378  18.548  0.00  0.00    +0.000 OA
ATOM     24  H   UNL     1      47.551   2.437  18.817  0.00  0.00    +0.000 HD
ATOM     25  H   UNL     1      46.812   2.536  17.257  0.00  0.00    +0.000 HD
ENDBRANCH  15  22
ENDBRANCH  14  18
ENDBRANCH   1  14
TORSDOF 5
ENDMDL
MODEL 8
REMARK VINA RESULT:    -6.653      1.635      2.577
REMARK INTER + INTRA:          -9.362
REMARK INTER:                  -8.744
REMARK INTRA:                  -0.618
REMARK UNBOUND:                -0.764
REMARK  Name = 
REMARK  5 active torsions:
REMARK  status: ('A' for Active; 'I' for Inactive)
REMARK    1  A    between atoms: C_2  and  C_4
REMARK    2  A    between atoms: C_7  and  O_8
REMARK    3  A    between atoms: O_8  and  C_9
REMARK    4  A    between atoms: C_9  and  C_10
REMARK    5  A    between atoms: C_12  and  C_13
REMARK                            x       y       z     vdW  Elec       q    Type
REMARK                         _______ _______ _______ _____ _____    ______ ____
ROOT
ATOM      1  C   UNL     1      44.527   4.145  11.826  0.00  0.00    +0.000 C 
ENDROOT
BRANCH   1   2
ATOM      2  C   UNL     1      45.079   5.529  12.084  0.00  0.00    +0.000 A 
ATOM      3  C   UNL     1      44.410   6.661  11.623  0.00  0.00    +0.000 A 
ATOM      4  C   UNL     1      44.956   7.937  11.821  0.00  0.00    +0.000 A 
ATOM      5  C   UNL     1      46.202   8.003  12.456  0.00  0.00    +0.000 A 
ATOM      6  C   UNL     1      46.814   6.834  12.874  0.00  0.00    +0.000 A 
ATOM      7  N   UNL     1      46.281   5.605  12.704  0.00  0.00    +0.000 NA
BRANCH   4   8
ATOM      8  C   UNL     1      44.261   9.155  11.368  0.00  0.00    +0.000 A 
ATOM      9  C   UNL     1      43.266   9.133  10.387  0.00  0.00    +0.000 A 
ATOM     10  C   UNL     1      42.671  10.325   9.987  0.00  0.00    +0.000 A 
ATOM     11  C   UNL     1      43.072  11.515  10.578  0.00  0.00    +0.000 A 
ATOM     12  C   UNL     1      44.050  11.458  11.555  0.00  0.00    +0.000 A 
ATOM     13  N   UNL     1      44.645  10.313  11.964  0.00  0.00    +0.000 NA
ENDBRANCH   4   8
ENDBRANCH   1   2
BRANCH   1  14
ATOM     14  O   UNL     1      43.954   4.043  10.516  0.00  0.00    +0.000 OA
BRANCH  14  18
ATOM     15  C   UNL     1      46.501   2.790   7.458  0.00  0.00    +0.000 A 
ATOM     16  C   UNL     1      46.516   4.138   7.832  0.00  0.00    +0.000 A 
ATOM     17  C   UNL     1      45.675   4.596   8.851  0.00  0.00    +0.000 A 
ATOM     18  C   UNL     1      44.810   3.714   9.501  0.00  0.00    +0.000 A 
ATOM     19  C   UNL     1      44.782   2.371   9.111  0.00  0.00    +0.000 A 
ATOM     20  C   UNL     1      45.617   1.910   8.089  0.00  0.00    +0.000 A 
BRANCH  15  22
ATOM     21  N   UNL     1      46.948   2.400   5.100  0.00  0.00    +0.000 N 
ATOM     22  C   UNL     1      47.392   2.275   6.387  0.00  0.00    +0.000 C 
ATOM     23  O   UNL     1      48.488   1.793   6.637  0.00  0.00    +0.000 OA
ATOM     24  H   UNL     1      47.604   2.144   4.372  0.00  0.00    +0.000 HD
ATOM     25  H   UNL     1      46.188   3.014   4.848  0.00  0.00    +0.000 HD
ENDBRANCH  15  22
ENDBRANCH  14  18
ENDBRANCH   1  14
TORSDOF 5
ENDMDL
MODEL 9
REMARK VINA RESULT:    -6.623      5.534      8.440
REMARK INTER + INTRA:          -9.323
REMARK INTER:                  -8.715
REMARK INTRA:                  -0.608
REMARK UNBOUND:                -0.764
REMARK  Name = 
REMARK  5 active torsions:
REMARK  status: ('A' for Active; 'I' for Inactive)
REMARK    1  A    between atoms: C_2  and  C_4
REMARK    2  A    between atoms: C_7  and  O_8
REMARK    3  A    between atoms: O_8  and  C_9
REMARK    4  A    between atoms: C_9  and  C_10
REMARK    5  A    between atoms: C_12  and  C_13
REMARK                            x       y       z     vdW  Elec       q    Type
REMARK                         _______ _______ _______ _____ _____    ______ ____
ROOT
ATOM      1  C   UNL     1      48.107   4.257  16.993  0.00  0.00    +0.000 C 
ENDROOT
BRANCH   1   2
ATOM      2  C   UNL     1      47.790   4.976  15.700  0.00  0.00    +0.000 A 
ATOM      3  C   UNL     1      46.790   4.509  14.850  0.00  0.00    +0.000 A 
ATOM      4  C   UNL     1      46.540   5.151  13.630  0.00  0.00    +0.000 A 
ATOM      5  C   UNL     1      47.362   6.237  13.303  0.00  0.00    +0.000 A 
ATOM      6  C   UNL     1      48.346   6.634  14.191  0.00  0.00    +0.000 A 
ATOM      7  N   UNL     1      48.576   6.031  15.377  0.00  0.00    +0.000 NA
BRANCH   4   8
ATOM      8  C   UNL     1      45.471   4.697  12.722  0.00  0.00    +0.000 A 
ATOM      9  C   UNL     1      45.352   5.160  11.409  0.00  0.00    +0.000 A 
ATOM     10  C   UNL     1      44.301   4.710  10.615  0.00  0.00    +0.000 A 
ATOM     11  C   UNL     1      43.396   3.800  11.143  0.00  0.00    +0.000 A 
ATOM     12  C   UNL     1      43.586   3.373  12.445  0.00  0.00    +0.000 A 
ATOM     13  N   UNL     1      44.599   3.793  13.238  0.00  0.00    +0.000 NA
ENDBRANCH   4   8
ENDBRANCH   1   2
BRANCH   1  14
ATOM     14  O   UNL     1      49.346   4.706  17.555  0.00  0.00    +0.000 OA
BRANCH  14  18
ATOM     15  C   UNL     1      52.249   1.714  17.697  0.00  0.00    +0.000 A 
ATOM     16  C   UNL     1      52.616   3.018  18.042  0.00  0.00    +0.000 A 
ATOM     17  C   UNL     1      51.672   4.049  18.005  0.00  0.00    +0.000 A 
ATOM     18  C   UNL     1      50.356   3.786  17.618  0.00  0.00    +0.000 A 
ATOM     19  C   UNL     1      49.997   2.484  17.254  0.00  0.00    +0.000 A 
ATOM     20  C   UNL     1      50.939   1.451  17.285  0.00  0.00    +0.000 A 
BRANCH  15  22
ATOM     21  N   UNL     1      52.901  -0.486  18.506  0.00  0.00    +0.000 N 
ATOM     22  C   UNL     1      53.229   0.598  17.740  0.00  0.00    +0.000 C 
ATOM     23  O   UNL     1      54.267   0.627  17.093  0.00  0.00    +0.000 OA
ATOM     24  H   UNL     1      53.522  -1.283  18.446  0.00  0.00    +0.000 HD
ATOM     25  H   UNL     1      51.960  -0.651  18.832  0.00  0.00    +0.000 HD
ENDBRANCH  15  22
ENDBRANCH  14  18
ENDBRANCH   1  14
TORSDOF 5
ENDMDL
