MODEL 1
REMARK VINA RESULT:    -6.733      0.000      0.000
REMARK INTER + INTRA:         -13.043
REMARK INTER:                 -11.063
REMARK INTRA:                  -1.981
REMARK UNBOUND:                -1.981
REMARK  Name = 
REMARK  15 active torsions:
REMARK  status: ('A' for Active; 'I' for Inactive)
REMARK    1  A    between atoms: C_1  and  N_2
REMARK    2  A    between atoms: N_2  and  C_3
REMARK    3  A    between atoms: N_2  and  C_4
REMARK    4  A    between atoms: C_4  and  C_5
REMARK    5  A    between atoms: C_5  and  C_6
REMARK    6  A    between atoms: C_6  and  C_7
REMARK    7  A    between atoms: C_7  and  N_8
REMARK    8  A    between atoms: C_9  and  C_11
REMARK    9  A    between atoms: C_16  and  N_17
REMARK   10  A    between atoms: N_17  and  C_18
REMARK   11  A    between atoms: C_18  and  C_19
REMARK   12  A    between atoms: C_19  and  C_20
REMARK   13  A    between atoms: C_19  and  C_21
REMARK   14  A    between atoms: C_19  and  C_22
REMARK   15  A    between atoms: C_26  and  C_27
REMARK                            x       y       z     vdW  Elec       q    Type
REMARK                         _______ _______ _______ _____ _____    ______ ____
ROOT
ATOM      1  C   UNL     1      47.086   6.384  13.064  0.00  0.00    +0.000 A 
ATOM      2  C   UNL     1      47.225   6.713  11.708  0.00  0.00    +0.000 A 
ATOM      3  C   UNL     1      48.254   7.550  11.300  0.00  0.00    +0.000 A 
ATOM      4  C   UNL     1      49.109   8.029  12.269  0.00  0.00    +0.000 A 
ATOM      5  N   UNL     1      49.000   7.736  13.585  0.00  0.00    +0.000 NA
ATOM      6  C   UNL     1      48.003   6.913  13.990  0.00  0.00    +0.000 A 
ENDROOT
BRANCH   1   8
ATOM      7  N   UNL     1      44.699   5.894  12.934  0.00  0.00    +0.000 N 
ATOM      8  C   UNL     1      45.931   5.519  13.415  0.00  0.00    +0.000 C 
ATOM      9  O   UNL     1      46.111   4.498  14.071  0.00  0.00    +0.000 OA
ATOM     10  H   UNL     1      44.656   6.690  12.301  0.00  0.00    +0.000 HD
BRANCH   7  11
ATOM     11  C   UNL     1      43.517   5.088  13.143  0.00  0.00    +0.000 C 
BRANCH  11  12
ATOM     12  C   UNL     1      42.988   4.551  11.822  0.00  0.00    +0.000 C 
BRANCH  12  13
ATOM     13  C   UNL     1      43.495   3.130  11.569  0.00  0.00    +0.000 C 
BRANCH  13  14
ATOM     14  C   UNL     1      44.772   3.098  10.719  0.00  0.00    +0.000 C 
BRANCH  14  16
ATOM     15  C   UNL     1      44.666   4.080   8.490  0.00  0.00    +0.000 C 
ATOM     16  N   UNL     1      44.534   2.858   9.285  0.00  0.00    +0.000 NA
ATOM     17  C   UNL     1      45.459   1.838   8.787  0.00  0.00    +0.000 C 
ENDBRANCH  14  16
ENDBRANCH  13  14
ENDBRANCH  12  13
ENDBRANCH  11  12
ENDBRANCH   7  11
ENDBRANCH   1   8
BRANCH   6  18
ATOM     18  N   UNL     1      47.919   6.607  15.356  0.00  0.00    +0.000 N 
ATOM     19  H   UNL     1      47.839   5.603  15.490  0.00  0.00    +0.000 HD
BRANCH  18  20
ATOM     20  C   UNL     1      48.825   7.313  16.276  0.00  0.00    +0.000 C 
BRANCH  20  21
ATOM     21  C   UNL     1      48.994   6.715  17.700  0.00  0.00    +0.000 C 
ATOM     22  C   UNL     1      50.458   6.848  18.174  0.00  0.00    +0.000 C 
ATOM     23  C   UNL     1      48.066   7.402  18.714  0.00  0.00    +0.000 C 
BRANCH  21  24
ATOM     24  C   UNL     1      48.626   5.221  17.654  0.00  0.00    +0.000 A 
ATOM     25  N   UNL     1      47.332   4.881  17.839  0.00  0.00    +0.000 NA
ATOM     26  C   UNL     1      47.009   3.575  17.741  0.00  0.00    +0.000 A 
ATOM     27  C   UNL     1      47.918   2.591  17.470  0.00  0.00    +0.000 A 
ATOM     28  C   UNL     1      49.209   3.025  17.304  0.00  0.00    +0.000 A 
ATOM     29  N   UNL     1      49.594   4.322  17.396  0.00  0.00    +0.000 NA
BRANCH  28  30
ATOM     30  C   UNL     1      50.284   2.034  16.990  0.00  0.00    +0.000 C 
ATOM     31  N   UNL     1      51.227   1.845  17.960  0.00  0.00    +0.000 N 
ATOM     32  O   UNL     1      50.322   1.431  15.927  0.00  0.00    +0.000 OA
ATOM     33  H   UNL     1      51.180   2.379  18.822  0.00  0.00    +0.000 HD
ATOM     34  H   UNL     1      51.988   1.205  17.797  0.00  0.00    +0.000 HD
ENDBRANCH  28  30
ENDBRANCH  21  24
ENDBRANCH  20  21
ENDBRANCH  18  20
ENDBRANCH   6  18
TORSDOF 11
ENDMDL
MODEL 2
REMARK VINA RESULT:    -6.720      1.139      1.771
REMARK INTER + INTRA:         -13.022
REMARK INTER:                 -11.431
REMARK INTRA:                  -1.590
REMARK UNBOUND:                -1.981
REMARK  Name = 
REMARK  15 active torsions:
REMARK  status: ('A' for Active; 'I' for Inactive)
REMARK    1  A    between atoms: C_1  and  N_2
REMARK    2  A    between atoms: N_2  and  C_3
REMARK    3  A    between atoms: N_2  and  C_4
REMARK    4  A    between atoms: C_4  and  C_5
REMARK    5  A    between atoms: C_5  and  C_6
REMARK    6  A    between atoms: C_6  and  C_7
REMARK    7  A    between atoms: C_7  and  N_8
REMARK    8  A    between atoms: C_9  and  C_11
REMARK    9  A    between atoms: C_16  and  N_17
REMARK   10  A    between atoms: N_17  and  C_18
REMARK   11  A    between atoms: C_18  and  C_19
REMARK   12  A    between atoms: C_19  and  C_20
REMARK   13  A    between atoms: C_19  and  C_21
REMARK   14  A    between atoms: C_19  and  C_22
REMARK   15  A    between atoms: C_26  and  C_27
REMARK                            x       y       z     vdW  Elec       q    Type
REMARK                         _______ _______ _______ _____ _____    ______ ____
ROOT
ATOM      1  C   UNL     1      47.310   6.264  13.256  0.00  0.00    +0.000 A 
ATOM      2  C   UNL     1      47.470   6.782  11.962  0.00  0.00    +0.000 A 
ATOM      3  C   UNL     1      48.556   7.595  11.672  0.00  0.00    +0.000 A 
ATOM      4  C   UNL     1      49.445   7.861  12.691  0.00  0.00    +0.000 A 
ATOM      5  N   UNL     1      49.317   7.382  13.950  0.00  0.00    +0.000 NA
ATOM      6  C   UNL     1      48.264   6.581  14.239  0.00  0.00    +0.000 A 
ENDROOT
BRANCH   1   8
ATOM      7  N   UNL     1      44.918   5.893  12.940  0.00  0.00    +0.000 N 
ATOM      8  C   UNL     1      46.094   5.441  13.488  0.00  0.00    +0.000 C 
ATOM      9  O   UNL     1      46.183   4.386  14.109  0.00  0.00    +0.000 OA
ATOM     10  H   UNL     1      44.955   6.716  12.341  0.00  0.00    +0.000 HD
BRANCH   7  11
ATOM     11  C   UNL     1      43.690   5.136  13.032  0.00  0.00    +0.000 C 
BRANCH  11  12
ATOM     12  C   UNL     1      42.976   5.098  11.688  0.00  0.00    +0.000 C 
BRANCH  12  13
ATOM     13  C   UNL     1      43.457   3.913  10.849  0.00  0.00    +0.000 C 
BRANCH  13  14
ATOM     14  C   UNL     1      44.310   4.344   9.649  0.00  0.00    +0.000 C 
BRANCH  14  16
ATOM     15  C   UNL     1      44.587   1.957   9.238  0.00  0.00    +0.000 C 
ATOM     16  N   UNL     1      45.193   3.285   9.128  0.00  0.00    +0.000 NA
ATOM     17  C   UNL     1      45.537   3.561   7.731  0.00  0.00    +0.000 C 
ENDBRANCH  14  16
ENDBRANCH  13  14
ENDBRANCH  12  13
ENDBRANCH  11  12
ENDBRANCH   7  11
ENDBRANCH   1   8
BRANCH   6  18
ATOM     18  N   UNL     1      48.160   6.080  15.544  0.00  0.00    +0.000 N 
ATOM     19  H   UNL     1      48.403   5.094  15.567  0.00  0.00    +0.000 HD
BRANCH  18  20
ATOM     20  C   UNL     1      48.692   6.904  16.642  0.00  0.00    +0.000 C 
BRANCH  20  21
ATOM     21  C   UNL     1      48.805   6.234  18.040  0.00  0.00    +0.000 C 
ATOM     22  C   UNL     1      49.056   7.296  19.132  0.00  0.00    +0.000 C 
ATOM     23  C   UNL     1      47.538   5.437  18.386  0.00  0.00    +0.000 C 
BRANCH  21  24
ATOM     24  C   UNL     1      49.993   5.255  18.022  0.00  0.00    +0.000 A 
ATOM     25  N   UNL     1      51.160   5.664  18.566  0.00  0.00    +0.000 NA
ATOM     26  C   UNL     1      52.178   4.781  18.597  0.00  0.00    +0.000 A 
ATOM     27  C   UNL     1      52.089   3.509  18.105  0.00  0.00    +0.000 A 
ATOM     28  C   UNL     1      50.872   3.182  17.563  0.00  0.00    +0.000 A 
ATOM     29  N   UNL     1      49.814   4.028  17.499  0.00  0.00    +0.000 NA
BRANCH  28  30
ATOM     30  C   UNL     1      50.659   1.809  17.006  0.00  0.00    +0.000 C 
ATOM     31  N   UNL     1      51.357   0.803  17.610  0.00  0.00    +0.000 N 
ATOM     32  O   UNL     1      49.908   1.600  16.064  0.00  0.00    +0.000 OA
ATOM     33  H   UNL     1      51.991   1.013  18.374  0.00  0.00    +0.000 HD
ATOM     34  H   UNL     1      51.270  -0.140  17.264  0.00  0.00    +0.000 HD
ENDBRANCH  28  30
ENDBRANCH  21  24
ENDBRANCH  20  21
ENDBRANCH  18  20
ENDBRANCH   6  18
TORSDOF 11
ENDMDL
MODEL 3
REMARK VINA RESULT:    -6.681      1.493      1.891
REMARK INTER + INTRA:         -12.958
REMARK INTER:                 -11.300
REMARK INTRA:                  -1.658
REMARK UNBOUND:                -1.981
REMARK  Name = 
REMARK  15 active torsions:
REMARK  status: ('A' for Active; 'I' for Inactive)
REMARK    1  A    between atoms: C_1  and  N_2
REMARK    2  A    between atoms: N_2  and  C_3
REMARK    3  A    between atoms: N_2  and  C_4
REMARK    4  A    between atoms: C_4  and  C_5
REMARK    5  A    between atoms: C_5  and  C_6
REMARK    6  A    between atoms: C_6  and  C_7
REMARK    7  A    between atoms: C_7  and  N_8
REMARK    8  A    between atoms: C_9  and  C_11
REMARK    9  A    between atoms: C_16  and  N_17
REMARK   10  A    between atoms: N_17  and  C_18
REMARK   11  A    between atoms: C_18  and  C_19
REMARK   12  A    between atoms: C_19  and  C_20
REMARK   13  A    between atoms: C_19  and  C_21
REMARK   14  A    between atoms: C_19  and  C_22
REMARK   15  A    between atoms: C_26  and  C_27
REMARK                            x       y       z     vdW  Elec       q    Type
REMARK                         _______ _______ _______ _____ _____    ______ ____
ROOT
ATOM      1  C   UNL     1      46.986   6.025  13.160  0.00  0.00    +0.000 A 
ATOM      2  C   UNL     1      47.127   6.667  11.921  0.00  0.00    +0.000 A 
ATOM      3  C   UNL     1      48.248   7.445  11.669  0.00  0.00    +0.000 A 
ATOM      4  C   UNL     1      49.189   7.553  12.671  0.00  0.00    +0.000 A 
ATOM      5  N   UNL     1      49.080   6.951  13.878  0.00  0.00    +0.000 NA
ATOM      6  C   UNL     1      47.993   6.183  14.128  0.00  0.00    +0.000 A 
ENDROOT
BRANCH   1   8
ATOM      7  N   UNL     1      44.569   5.811  12.893  0.00  0.00    +0.000 N 
ATOM      8  C   UNL     1      45.734   5.249  13.358  0.00  0.00    +0.000 C 
ATOM      9  O   UNL     1      45.781   4.138  13.878  0.00  0.00    +0.000 OA
ATOM     10  H   UNL     1      44.634   6.682  12.369  0.00  0.00    +0.000 HD
BRANCH   7  11
ATOM     11  C   UNL     1      43.304   5.115  12.957  0.00  0.00    +0.000 C 
BRANCH  11  12
ATOM     12  C   UNL     1      42.903   4.593  11.585  0.00  0.00    +0.000 C 
BRANCH  12  13
ATOM     13  C   UNL     1      43.377   3.151  11.391  0.00  0.00    +0.000 C 
BRANCH  13  14
ATOM     14  C   UNL     1      44.703   3.060  10.624  0.00  0.00    +0.000 C 
BRANCH  14  16
ATOM     15  C   UNL     1      44.717   3.988   8.371  0.00  0.00    +0.000 C 
ATOM     16  N   UNL     1      44.547   2.785   9.186  0.00  0.00    +0.000 NA
ATOM     17  C   UNL     1      45.505   1.759   8.765  0.00  0.00    +0.000 C 
ENDBRANCH  14  16
ENDBRANCH  13  14
ENDBRANCH  12  13
ENDBRANCH  11  12
ENDBRANCH   7  11
ENDBRANCH   1   8
BRANCH   6  18
ATOM     18  N   UNL     1      47.908   5.553  15.378  0.00  0.00    +0.000 N 
ATOM     19  H   UNL     1      47.934   4.543  15.269  0.00  0.00    +0.000 HD
BRANCH  18  20
ATOM     20  C   UNL     1      48.708   6.106  16.482  0.00  0.00    +0.000 C 
BRANCH  20  21
ATOM     21  C   UNL     1      48.717   5.311  17.818  0.00  0.00    +0.000 C 
ATOM     22  C   UNL     1      49.258   6.187  18.968  0.00  0.00    +0.000 C 
ATOM     23  C   UNL     1      47.314   4.803  18.180  0.00  0.00    +0.000 C 
BRANCH  21  24
ATOM     24  C   UNL     1      49.639   4.088  17.656  0.00  0.00    +0.000 A 
ATOM     25  N   UNL     1      49.168   3.026  16.967  0.00  0.00    +0.000 NA
ATOM     26  C   UNL     1      50.002   1.982  16.782  0.00  0.00    +0.000 A 
ATOM     27  C   UNL     1      51.284   1.947  17.256  0.00  0.00    +0.000 A 
ATOM     28  C   UNL     1      51.675   3.063  17.950  0.00  0.00    +0.000 A 
ATOM     29  N   UNL     1      50.881   4.140  18.172  0.00  0.00    +0.000 NA
BRANCH  28  30
ATOM     30  C   UNL     1      53.064   3.138  18.502  0.00  0.00    +0.000 C 
ATOM     31  N   UNL     1      54.003   3.703  17.688  0.00  0.00    +0.000 N 
ATOM     32  O   UNL     1      53.344   2.715  19.615  0.00  0.00    +0.000 OA
ATOM     33  H   UNL     1      53.743   4.022  16.760  0.00  0.00    +0.000 HD
ATOM     34  H   UNL     1      54.961   3.761  17.997  0.00  0.00    +0.000 HD
ENDBRANCH  28  30
ENDBRANCH  21  24
ENDBRANCH  20  21
ENDBRANCH  18  20
ENDBRANCH   6  18
TORSDOF 11
ENDMDL
MODEL 4
REMARK VINA RESULT:    -6.651      1.873      2.966
REMARK INTER + INTRA:         -12.909
REMARK INTER:                 -11.590
REMARK INTRA:                  -1.319
REMARK UNBOUND:                -1.981
REMARK  Name = 
REMARK  15 active torsions:
REMARK  status: ('A' for Active; 'I' for Inactive)
REMARK    1  A    between atoms: C_1  and  N_2
REMARK    2  A    between atoms: N_2  and  C_3
REMARK    3  A    between atoms: N_2  and  C_4
REMARK    4  A    between atoms: C_4  and  C_5
REMARK    5  A    between atoms: C_5  and  C_6
REMARK    6  A    between atoms: C_6  and  C_7
REMARK    7  A    between atoms: C_7  and  N_8
REMARK    8  A    between atoms: C_9  and  C_11
REMARK    9  A    between atoms: C_16  and  N_17
REMARK   10  A    between atoms: N_17  and  C_18
REMARK   11  A    between atoms: C_18  and  C_19
REMARK   12  A    between atoms: C_19  and  C_20
REMARK   13  A    between atoms: C_19  and  C_21
REMARK   14  A    between atoms: C_19  and  C_22
REMARK   15  A    between atoms: C_26  and  C_27
REMARK                            x       y       z     vdW  Elec       q    Type
REMARK                         _______ _______ _______ _____ _____    ______ ____
ROOT
ATOM      1  C   UNL     1      46.419   5.287  12.680  0.00  0.00    +0.000 A 
ATOM      2  C   UNL     1      46.768   6.209  11.682  0.00  0.00    +0.000 A 
ATOM      3  C   UNL     1      47.580   7.290  11.992  0.00  0.00    +0.000 A 
ATOM      4  C   UNL     1      48.015   7.409  13.295  0.00  0.00    +0.000 A 
ATOM      5  N   UNL     1      47.693   6.540  14.281  0.00  0.00    +0.000 NA
ATOM      6  C   UNL     1      46.906   5.479  13.984  0.00  0.00    +0.000 A 
ENDROOT
BRANCH   1   8
ATOM      7  N   UNL     1      44.825   4.349  11.086  0.00  0.00    +0.000 N 
ATOM      8  C   UNL     1      45.509   4.186  12.268  0.00  0.00    +0.000 C 
ATOM      9  O   UNL     1      45.430   3.172  12.954  0.00  0.00    +0.000 OA
ATOM     10  H   UNL     1      45.038   5.168  10.520  0.00  0.00    +0.000 HD
BRANCH   7  11
ATOM     11  C   UNL     1      43.976   3.312  10.545  0.00  0.00    +0.000 C 
BRANCH  11  12
ATOM     12  C   UNL     1      44.200   3.155   9.048  0.00  0.00    +0.000 C 
BRANCH  12  13
ATOM     13  C   UNL     1      45.515   3.811   8.623  0.00  0.00    +0.000 C 
BRANCH  13  14
ATOM     14  C   UNL     1      46.003   3.327   7.251  0.00  0.00    +0.000 C 
BRANCH  14  16
ATOM     15  C   UNL     1      46.739   1.042   7.674  0.00  0.00    +0.000 C 
ATOM     16  N   UNL     1      47.146   2.401   7.312  0.00  0.00    +0.000 NA
ATOM     17  C   UNL     1      47.847   2.383   6.025  0.00  0.00    +0.000 C 
ENDBRANCH  14  16
ENDBRANCH  13  14
ENDBRANCH  12  13
ENDBRANCH  11  12
ENDBRANCH   7  11
ENDBRANCH   1   8
BRANCH   6  18
ATOM     18  N   UNL     1      46.599   4.581  15.017  0.00  0.00    +0.000 N 
ATOM     19  H   UNL     1      45.700   4.139  14.848  0.00  0.00    +0.000 HD
BRANCH  18  20
ATOM     20  C   UNL     1      47.672   3.698  15.503  0.00  0.00    +0.000 C 
BRANCH  20  21
ATOM     21  C   UNL     1      48.006   3.759  17.020  0.00  0.00    +0.000 C 
ATOM     22  C   UNL     1      47.396   5.025  17.660  0.00  0.00    +0.000 C 
ATOM     23  C   UNL     1      47.492   2.515  17.760  0.00  0.00    +0.000 C 
BRANCH  21  24
ATOM     24  C   UNL     1      49.536   3.813  17.185  0.00  0.00    +0.000 A 
ATOM     25  N   UNL     1      50.128   5.026  17.218  0.00  0.00    +0.000 NA
ATOM     26  C   UNL     1      51.461   5.065  17.419  0.00  0.00    +0.000 A 
ATOM     27  C   UNL     1      52.233   3.949  17.584  0.00  0.00    +0.000 A 
ATOM     28  C   UNL     1      51.551   2.760  17.527  0.00  0.00    +0.000 A 
ATOM     29  N   UNL     1      50.214   2.658  17.323  0.00  0.00    +0.000 NA
BRANCH  28  30
ATOM     30  C   UNL     1      52.295   1.475  17.708  0.00  0.00    +0.000 C 
ATOM     31  N   UNL     1      51.541   0.390  18.054  0.00  0.00    +0.000 N 
ATOM     32  O   UNL     1      53.506   1.398  17.560  0.00  0.00    +0.000 OA
ATOM     33  H   UNL     1      50.540   0.492  18.193  0.00  0.00    +0.000 HD
ATOM     34  H   UNL     1      51.989  -0.499  18.210  0.00  0.00    +0.000 HD
ENDBRANCH  28  30
ENDBRANCH  21  24
ENDBRANCH  20  21
ENDBRANCH  18  20
ENDBRANCH   6  18
TORSDOF 11
ENDMDL
MODEL 5
REMARK VINA RESULT:    -6.226      2.048      2.836
REMARK INTER + INTRA:         -12.210
REMARK INTER:                 -10.744
REMARK INTRA:                  -1.465
REMARK UNBOUND:                -1.981
REMARK  Name = 
REMARK  15 active torsions:
REMARK  status: ('A' for Active; 'I' for Inactive)
REMARK    1  A    between atoms: C_1  and  N_2
REMARK    2  A    between atoms: N_2  and  C_3
REMARK    3  A    between atoms: N_2  and  C_4
REMARK    4  A    between atoms: C_4  and  C_5
REMARK    5  A    between atoms: C_5  and  C_6
REMARK    6  A    between atoms: C_6  and  C_7
REMARK    7  A    between atoms: C_7  and  N_8
REMARK    8  A    between atoms: C_9  and  C_11
REMARK    9  A    between atoms: C_16  and  N_17
REMARK   10  A    between atoms: N_17  and  C_18
REMARK   11  A    between atoms: C_18  and  C_19
REMARK   12  A    between atoms: C_19  and  C_20
REMARK   13  A    between atoms: C_19  and  C_21
REMARK   14  A    between atoms: C_19  and  C_22
REMARK   15  A    between atoms: C_26  and  C_27
REMARK                            x       y       z     vdW  Elec       q    Type
REMARK                         _______ _______ _______ _____ _____    ______ ____
ROOT
ATOM      1  C   UNL     1      45.244   7.737  12.514  0.00  0.00    +0.000 A 
ATOM      2  C   UNL     1      44.480   8.335  11.500  0.00  0.00    +0.000 A 
ATOM      3  C   UNL     1      44.768   9.628  11.089  0.00  0.00    +0.000 A 
ATOM      4  C   UNL     1      45.813  10.279  11.710  0.00  0.00    +0.000 A 
ATOM      5  N   UNL     1      46.565   9.733  12.694  0.00  0.00    +0.000 NA
ATOM      6  C   UNL     1      46.295   8.468  13.095  0.00  0.00    +0.000 A 
ENDROOT
BRANCH   1   8
ATOM      7  N   UNL     1      43.527   6.012  12.700  0.00  0.00    +0.000 N 
ATOM      8  C   UNL     1      44.836   6.367  12.921  0.00  0.00    +0.000 C 
ATOM      9  O   UNL     1      45.670   5.599  13.392  0.00  0.00    +0.000 OA
ATOM     10  H   UNL     1      42.932   6.668  12.198  0.00  0.00    +0.000 HD
BRANCH   7  11
ATOM     11  C   UNL     1      43.038   4.681  12.981  0.00  0.00    +0.000 C 
BRANCH  11  12
ATOM     12  C   UNL     1      44.032   3.629  12.512  0.00  0.00    +0.000 C 
BRANCH  12  13
ATOM     13  C   UNL     1      43.596   3.024  11.176  0.00  0.00    +0.000 C 
BRANCH  13  14
ATOM     14  C   UNL     1      44.127   3.807   9.969  0.00  0.00    +0.000 C 
BRANCH  14  16
ATOM     15  C   UNL     1      44.956   1.769   8.919  0.00  0.00    +0.000 C 
ATOM     16  N   UNL     1      45.254   3.156   9.279  0.00  0.00    +0.000 NA
ATOM     17  C   UNL     1      45.613   3.914   8.078  0.00  0.00    +0.000 C 
ENDBRANCH  14  16
ENDBRANCH  13  14
ENDBRANCH  12  13
ENDBRANCH  11  12
ENDBRANCH   7  11
ENDBRANCH   1   8
BRANCH   6  18
ATOM     18  N   UNL     1      47.098   7.915  14.103  0.00  0.00    +0.000 N 
ATOM     19  H   UNL     1      46.641   7.108  14.518  0.00  0.00    +0.000 HD
BRANCH  18  20
ATOM     20  C   UNL     1      48.538   7.776  13.836  0.00  0.00    +0.000 C 
BRANCH  20  21
ATOM     21  C   UNL     1      49.504   7.981  15.036  0.00  0.00    +0.000 C 
ATOM     22  C   UNL     1      50.974   7.893  14.572  0.00  0.00    +0.000 C 
ATOM     23  C   UNL     1      49.267   9.335  15.724  0.00  0.00    +0.000 C 
BRANCH  21  24
ATOM     24  C   UNL     1      49.247   6.870  16.071  0.00  0.00    +0.000 A 
ATOM     25  N   UNL     1      49.835   6.982  17.281  0.00  0.00    +0.000 NA
ATOM     26  C   UNL     1      49.560   6.034  18.200  0.00  0.00    +0.000 A 
ATOM     27  C   UNL     1      48.727   4.975  17.965  0.00  0.00    +0.000 A 
ATOM     28  C   UNL     1      48.180   4.936  16.708  0.00  0.00    +0.000 A 
ATOM     29  N   UNL     1      48.424   5.857  15.742  0.00  0.00    +0.000 NA
BRANCH  28  30
ATOM     30  C   UNL     1      47.242   3.828  16.346  0.00  0.00    +0.000 C 
ATOM     31  N   UNL     1      47.102   3.573  15.012  0.00  0.00    +0.000 N 
ATOM     32  O   UNL     1      46.633   3.190  17.193  0.00  0.00    +0.000 OA
ATOM     33  H   UNL     1      47.603   4.138  14.333  0.00  0.00    +0.000 HD
ATOM     34  H   UNL     1      46.467   2.852  14.707  0.00  0.00    +0.000 HD
ENDBRANCH  28  30
ENDBRANCH  21  24
ENDBRANCH  20  21
ENDBRANCH  18  20
ENDBRANCH   6  18
TORSDOF 11
ENDMDL
MODEL 6
REMARK VINA RESULT:    -6.158      2.065      3.381
REMARK INTER + INTRA:         -12.098
REMARK INTER:                 -10.617
REMARK INTRA:                  -1.481
REMARK UNBOUND:                -1.981
REMARK  Name = 
REMARK  15 active torsions:
REMARK  status: ('A' for Active; 'I' for Inactive)
REMARK    1  A    between atoms: C_1  and  N_2
REMARK    2  A    between atoms: N_2  and  C_3
REMARK    3  A    between atoms: N_2  and  C_4
REMARK    4  A    between atoms: C_4  and  C_5
REMARK    5  A    between atoms: C_5  and  C_6
REMARK    6  A    between atoms: C_6  and  C_7
REMARK    7  A    between atoms: C_7  and  N_8
REMARK    8  A    between atoms: C_9  and  C_11
REMARK    9  A    between atoms: C_16  and  N_17
REMARK   10  A    between atoms: N_17  and  C_18
REMARK   11  A    between atoms: C_18  and  C_19
REMARK   12  A    between atoms: C_19  and  C_20
REMARK   13  A    between atoms: C_19  and  C_21
REMARK   14  A    between atoms: C_19  and  C_22
REMARK   15  A    between atoms: C_26  and  C_27
REMARK                            x       y       z     vdW  Elec       q    Type
REMARK                         _______ _______ _______ _____ _____    ______ ____
ROOT
ATOM      1  C   UNL     1      46.540   5.511  12.981  0.00  0.00    +0.000 A 
ATOM      2  C   UNL     1      46.768   6.694  12.263  0.00  0.00    +0.000 A 
ATOM      3  C   UNL     1      47.750   7.580  12.683  0.00  0.00    +0.000 A 
ATOM      4  C   UNL     1      48.469   7.249  13.811  0.00  0.00    +0.000 A 
ATOM      5  N   UNL     1      48.271   6.119  14.529  0.00  0.00    +0.000 NA
ATOM      6  C   UNL     1      47.320   5.245  14.120  0.00  0.00    +0.000 A 
ENDROOT
BRANCH   1   8
ATOM      7  N   UNL     1      45.278   4.556  11.123  0.00  0.00    +0.000 N 
ATOM      8  C   UNL     1      45.440   4.644  12.485  0.00  0.00    +0.000 C 
ATOM      9  O   UNL     1      44.754   4.013  13.284  0.00  0.00    +0.000 OA
ATOM     10  H   UNL     1      45.964   5.018  10.529  0.00  0.00    +0.000 HD
BRANCH   7  11
ATOM     11  C   UNL     1      44.295   3.681  10.524  0.00  0.00    +0.000 C 
BRANCH  11  12
ATOM     12  C   UNL     1      44.276   3.845   9.011  0.00  0.00    +0.000 C 
BRANCH  12  13
ATOM     13  C   UNL     1      44.941   2.650   8.326  0.00  0.00    +0.000 C 
BRANCH  13  14
ATOM     14  C   UNL     1      46.056   3.067   7.357  0.00  0.00    +0.000 C 
BRANCH  14  16
ATOM     15  C   UNL     1      46.829   0.768   7.596  0.00  0.00    +0.000 C 
ATOM     16  N   UNL     1      47.214   2.157   7.347  0.00  0.00    +0.000 NA
ATOM     17  C   UNL     1      47.919   2.256   6.066  0.00  0.00    +0.000 C 
ENDBRANCH  14  16
ENDBRANCH  13  14
ENDBRANCH  12  13
ENDBRANCH  11  12
ENDBRANCH   7  11
ENDBRANCH   1   8
BRANCH   6  18
ATOM     18  N   UNL     1      47.144   4.072  14.867  0.00  0.00    +0.000 N 
ATOM     19  H   UNL     1      47.722   3.323  14.496  0.00  0.00    +0.000 HD
BRANCH  18  20
ATOM     20  C   UNL     1      47.101   4.189  16.334  0.00  0.00    +0.000 C 
BRANCH  20  21
ATOM     21  C   UNL     1      48.074   3.289  17.145  0.00  0.00    +0.000 C 
ATOM     22  C   UNL     1      47.324   2.569  18.286  0.00  0.00    +0.000 C 
ATOM     23  C   UNL     1      48.757   2.246  16.247  0.00  0.00    +0.000 C 
BRANCH  21  24
ATOM     24  C   UNL     1      49.170   4.179  17.760  0.00  0.00    +0.000 A 
ATOM     25  N   UNL     1      49.232   4.268  19.106  0.00  0.00    +0.000 NA
ATOM     26  C   UNL     1      50.229   5.004  19.638  0.00  0.00    +0.000 A 
ATOM     27  C   UNL     1      51.166   5.660  18.889  0.00  0.00    +0.000 A 
ATOM     28  C   UNL     1      51.022   5.521  17.531  0.00  0.00    +0.000 A 
ATOM     29  N   UNL     1      50.037   4.799  16.940  0.00  0.00    +0.000 NA
BRANCH  28  30
ATOM     30  C   UNL     1      52.000   6.185  16.615  0.00  0.00    +0.000 C 
ATOM     31  N   UNL     1      51.463   6.918  15.595  0.00  0.00    +0.000 N 
ATOM     32  O   UNL     1      53.208   6.077  16.765  0.00  0.00    +0.000 OA
ATOM     33  H   UNL     1      50.455   6.968  15.483  0.00  0.00    +0.000 HD
ATOM     34  H   UNL     1      52.073   7.371  14.933  0.00  0.00    +0.000 HD
ENDBRANCH  28  30
ENDBRANCH  21  24
ENDBRANCH  20  21
ENDBRANCH  18  20
ENDBRANCH   6  18
TORSDOF 11
ENDMDL
MODEL 7
REMARK VINA RESULT:    -6.136      1.361      1.794
REMARK INTER + INTRA:         -12.062
REMARK INTER:                 -10.207
REMARK INTRA:                  -1.855
REMARK UNBOUND:                -1.981
REMARK  Name = 
REMARK  15 active torsions:
REMARK  status: ('A' for Active; 'I' for Inactive)
REMARK    1  A    between atoms: C_1  and  N_2
REMARK    2  A    between atoms: N_2  and  C_3
REMARK    3  A    between atoms: N_2  and  C_4
REMARK    4  A    between atoms: C_4  and  C_5
REMARK    5  A    between atoms: C_5  and  C_6
REMARK    6  A    between atoms: C_6  and  C_7
REMARK    7  A    between atoms: C_7  and  N_8
REMARK    8  A    between atoms: C_9  and  C_11
REMARK    9  A    between atoms: C_16  and  N_17
REMARK   10  A    between atoms: N_17  and  C_18
REMARK   11  A    between atoms: C_18  and  C_19
REMARK   12  A    between atoms: C_19  and  C_20
REMARK   13  A    between atoms: C_19  and  C_21
REMARK   14  A    between atoms: C_19  and  C_22
REMARK   15  A    between atoms: C_26  and  C_27
REMARK                            x       y       z     vdW  Elec       q    Type
REMARK                         _______ _______ _______ _____ _____    ______ ____
ROOT
ATOM      1  C   UNL     1      49.056   7.323  13.240  0.00  0.00    +0.000 A 
ATOM      2  C   UNL     1      49.394   7.991  12.054  0.00  0.00    +0.000 A 
ATOM      3  C   UNL     1      50.521   8.798  12.010  0.00  0.00    +0.000 A 
ATOM      4  C   UNL     1      51.273   8.907  13.161  0.00  0.00    +0.000 A 
ATOM      5  N   UNL     1      50.972   8.281  14.322  0.00  0.00    +0.000 NA
ATOM      6  C   UNL     1      49.878   7.485  14.370  0.00  0.00    +0.000 A 
ENDROOT
BRANCH   1   8
ATOM      7  N   UNL     1      46.634   7.190  12.971  0.00  0.00    +0.000 N 
ATOM      8  C   UNL     1      47.808   6.516  13.208  0.00  0.00    +0.000 C 
ATOM      9  O   UNL     1      47.866   5.298  13.347  0.00  0.00    +0.000 OA
ATOM     10  H   UNL     1      46.689   8.182  12.749  0.00  0.00    +0.000 HD
BRANCH   7  11
ATOM     11  C   UNL     1      45.370   6.502  12.837  0.00  0.00    +0.000 C 
BRANCH  11  12
ATOM     12  C   UNL     1      44.804   6.676  11.435  0.00  0.00    +0.000 C 
BRANCH  12  13
ATOM     13  C   UNL     1      45.315   5.578  10.501  0.00  0.00    +0.000 C 
BRANCH  13  14
ATOM     14  C   UNL     1      44.226   4.563  10.127  0.00  0.00    +0.000 C 
BRANCH  14  16
ATOM     15  C   UNL     1      43.420   2.807  11.612  0.00  0.00    +0.000 C 
ATOM     16  N   UNL     1      44.456   3.210  10.661  0.00  0.00    +0.000 NA
ATOM     17  C   UNL     1      44.527   2.243   9.562  0.00  0.00    +0.000 C 
ENDBRANCH  14  16
ENDBRANCH  13  14
ENDBRANCH  12  13
ENDBRANCH  11  12
ENDBRANCH   7  11
ENDBRANCH   1   8
BRANCH   6  18
ATOM     18  N   UNL     1      49.595   6.831  15.577  0.00  0.00    +0.000 N 
ATOM     19  H   UNL     1      50.188   6.013  15.686  0.00  0.00    +0.000 HD
BRANCH  18  20
ATOM     20  C   UNL     1      49.405   7.658  16.780  0.00  0.00    +0.000 C 
BRANCH  20  21
ATOM     21  C   UNL     1      49.222   6.911  18.131  0.00  0.00    +0.000 C 
ATOM     22  C   UNL     1      50.555   6.861  18.909  0.00  0.00    +0.000 C 
ATOM     23  C   UNL     1      48.148   7.580  19.003  0.00  0.00    +0.000 C 
BRANCH  21  24
ATOM     24  C   UNL     1      48.768   5.469  17.839  0.00  0.00    +0.000 A 
ATOM     25  N   UNL     1      47.442   5.224  17.767  0.00  0.00    +0.000 NA
ATOM     26  C   UNL     1      47.054   3.970  17.455  0.00  0.00    +0.000 A 
ATOM     27  C   UNL     1      47.929   2.948  17.215  0.00  0.00    +0.000 A 
ATOM     28  C   UNL     1      49.255   3.284  17.317  0.00  0.00    +0.000 A 
ATOM     29  N   UNL     1      49.704   4.524  17.632  0.00  0.00    +0.000 NA
BRANCH  28  30
ATOM     30  C   UNL     1      50.300   2.245  17.061  0.00  0.00    +0.000 C 
ATOM     31  N   UNL     1      51.298   2.157  17.990  0.00  0.00    +0.000 N 
ATOM     32  O   UNL     1      50.268   1.518  16.078  0.00  0.00    +0.000 OA
ATOM     33  H   UNL     1      51.310   2.792  18.782  0.00  0.00    +0.000 HD
ATOM     34  H   UNL     1      52.043   1.490  17.859  0.00  0.00    +0.000 HD
ENDBRANCH  28  30
ENDBRANCH  21  24
ENDBRANCH  20  21
ENDBRANCH  18  20
ENDBRANCH   6  18
TORSDOF 11
ENDMDL
MODEL 8
REMARK VINA RESULT:    -6.130      2.035      7.770
REMARK INTER + INTRA:         -12.052
REMARK INTER:                 -10.168
REMARK INTRA:                  -1.884
REMARK UNBOUND:                -1.981
REMARK  Name = 
REMARK  15 active torsions:
REMARK  status: ('A' for Active; 'I' for Inactive)
REMARK    1  A    between atoms: C_1  and  N_2
REMARK    2  A    between atoms: N_2  and  C_3
REMARK    3  A    between atoms: N_2  and  C_4
REMARK    4  A    between atoms: C_4  and  C_5
REMARK    5  A    between atoms: C_5  and  C_6
REMARK    6  A    between atoms: C_6  and  C_7
REMARK    7  A    between atoms: C_7  and  N_8
REMARK    8  A    between atoms: C_9  and  C_11
REMARK    9  A    between atoms: C_16  and  N_17
REMARK   10  A    between atoms: N_17  and  C_18
REMARK   11  A    between atoms: C_18  and  C_19
REMARK   12  A    between atoms: C_19  and  C_20
REMARK   13  A    between atoms: C_19  and  C_21
REMARK   14  A    between atoms: C_19  and  C_22
REMARK   15  A    between atoms: C_26  and  C_27
REMARK                            x       y       z     vdW  Elec       q    Type
REMARK                         _______ _______ _______ _____ _____    ______ ____
ROOT
ATOM      1  C   UNL     1      47.847   6.503  13.748  0.00  0.00    +0.000 A 
ATOM      2  C   UNL     1      48.669   7.357  14.498  0.00  0.00    +0.000 A 
ATOM      3  C   UNL     1      49.010   8.605  13.998  0.00  0.00    +0.000 A 
ATOM      4  C   UNL     1      48.514   8.954  12.761  0.00  0.00    +0.000 A 
ATOM      5  N   UNL     1      47.724   8.153  12.009  0.00  0.00    +0.000 NA
ATOM      6  C   UNL     1      47.381   6.936  12.494  0.00  0.00    +0.000 A 
ENDROOT
BRANCH   1   8
ATOM      7  N   UNL     1      47.478   5.100  15.711  0.00  0.00    +0.000 N 
ATOM      8  C   UNL     1      47.571   5.169  14.341  0.00  0.00    +0.000 C 
ATOM      9  O   UNL     1      47.394   4.201  13.608  0.00  0.00    +0.000 OA
ATOM     10  H   UNL     1      47.521   5.970  16.237  0.00  0.00    +0.000 HD
BRANCH   7  11
ATOM     11  C   UNL     1      47.133   3.874  16.394  0.00  0.00    +0.000 C 
BRANCH  11  12
ATOM     12  C   UNL     1      48.363   3.246  17.034  0.00  0.00    +0.000 C 
BRANCH  12  13
ATOM     13  C   UNL     1      48.459   3.620  18.514  0.00  0.00    +0.000 C 
BRANCH  13  14
ATOM     14  C   UNL     1      49.577   4.632  18.799  0.00  0.00    +0.000 C 
BRANCH  14  16
ATOM     15  C   UNL     1      47.642   5.972  19.432  0.00  0.00    +0.000 C 
ATOM     16  N   UNL     1      49.096   5.942  19.270  0.00  0.00    +0.000 NA
ATOM     17  C   UNL     1      49.745   6.288  20.537  0.00  0.00    +0.000 C 
ENDBRANCH  14  16
ENDBRANCH  13  14
ENDBRANCH  12  13
ENDBRANCH  11  12
ENDBRANCH   7  11
ENDBRANCH   1   8
BRANCH   6  18
ATOM     18  N   UNL     1      46.546   6.128  11.708  0.00  0.00    +0.000 N 
ATOM     19  H   UNL     1      46.708   5.146  11.911  0.00  0.00    +0.000 HD
BRANCH  18  20
ATOM     20  C   UNL     1      45.140   6.534  11.558  0.00  0.00    +0.000 C 
BRANCH  20  21
ATOM     21  C   UNL     1      44.062   5.423  11.704  0.00  0.00    +0.000 C 
ATOM     22  C   UNL     1      44.058   4.857  13.140  0.00  0.00    +0.000 C 
ATOM     23  C   UNL     1      42.661   5.949  11.359  0.00  0.00    +0.000 C 
BRANCH  21  24
ATOM     24  C   UNL     1      44.397   4.282  10.726  0.00  0.00    +0.000 A 
ATOM     25  N   UNL     1      43.868   3.063  10.968  0.00  0.00    +0.000 NA
ATOM     26  C   UNL     1      44.120   2.084  10.076  0.00  0.00    +0.000 A 
ATOM     27  C   UNL     1      44.880   2.262   8.954  0.00  0.00    +0.000 A 
ATOM     28  C   UNL     1      45.384   3.528   8.792  0.00  0.00    +0.000 A 
ATOM     29  N   UNL     1      45.169   4.550   9.656  0.00  0.00    +0.000 NA
BRANCH  28  30
ATOM     30  C   UNL     1      46.219   3.839   7.590  0.00  0.00    +0.000 C 
ATOM     31  N   UNL     1      46.143   2.946   6.559  0.00  0.00    +0.000 N 
ATOM     32  O   UNL     1      46.932   4.831   7.534  0.00  0.00    +0.000 OA
ATOM     33  H   UNL     1      45.561   2.119   6.648  0.00  0.00    +0.000 HD
ATOM     34  H   UNL     1      46.700   3.092   5.732  0.00  0.00    +0.000 HD
ENDBRANCH  28  30
ENDBRANCH  21  24
ENDBRANCH  20  21
ENDBRANCH  18  20
ENDBRANCH   6  18
TORSDOF 11
ENDMDL
MODEL 9
REMARK VINA RESULT:    -6.018      1.917      5.422
REMARK INTER + INTRA:         -11.869
REMARK INTER:                 -10.102
REMARK INTRA:                  -1.767
REMARK UNBOUND:                -1.981
REMARK  Name = 
REMARK  15 active torsions:
REMARK  status: ('A' for Active; 'I' for Inactive)
REMARK    1  A    between atoms: C_1  and  N_2
REMARK    2  A    between atoms: N_2  and  C_3
REMARK    3  A    between atoms: N_2  and  C_4
REMARK    4  A    between atoms: C_4  and  C_5
REMARK    5  A    between atoms: C_5  and  C_6
REMARK    6  A    between atoms: C_6  and  C_7
REMARK    7  A    between atoms: C_7  and  N_8
REMARK    8  A    between atoms: C_9  and  C_11
REMARK    9  A    between atoms: C_16  and  N_17
REMARK   10  A    between atoms: N_17  and  C_18
REMARK   11  A    between atoms: C_18  and  C_19
REMARK   12  A    between atoms: C_19  and  C_20
REMARK   13  A    between atoms: C_19  and  C_21
REMARK   14  A    between atoms: C_19  and  C_22
REMARK   15  A    between atoms: C_26  and  C_27
REMARK                            x       y       z     vdW  Elec       q    Type
REMARK                         _______ _______ _______ _____ _____    ______ ____
ROOT
ATOM      1  C   UNL     1      47.672   4.054  16.280  0.00  0.00    +0.000 A 
ATOM      2  C   UNL     1      47.675   2.902  17.080  0.00  0.00    +0.000 A 
ATOM      3  C   UNL     1      48.212   2.948  18.359  0.00  0.00    +0.000 A 
ATOM      4  C   UNL     1      48.728   4.151  18.791  0.00  0.00    +0.000 A 
ATOM      5  N   UNL     1      48.745   5.279  18.044  0.00  0.00    +0.000 NA
ATOM      6  C   UNL     1      48.216   5.243  16.798  0.00  0.00    +0.000 A 
ENDROOT
BRANCH   1   8
ATOM      7  N   UNL     1      46.142   4.788  14.526  0.00  0.00    +0.000 N 
ATOM      8  C   UNL     1      47.119   3.901  14.910  0.00  0.00    +0.000 C 
ATOM      9  O   UNL     1      47.569   3.036  14.164  0.00  0.00    +0.000 OA
ATOM     10  H   UNL     1      45.910   5.547  15.163  0.00  0.00    +0.000 HD
BRANCH   7  11
ATOM     11  C   UNL     1      45.588   4.787  13.191  0.00  0.00    +0.000 C 
BRANCH  11  12
ATOM     12  C   UNL     1      44.093   4.505  13.226  0.00  0.00    +0.000 C 
BRANCH  12  13
ATOM     13  C   UNL     1      43.534   4.359  11.810  0.00  0.00    +0.000 C 
BRANCH  13  14
ATOM     14  C   UNL     1      43.848   2.993  11.185  0.00  0.00    +0.000 C 
BRANCH  14  16
ATOM     15  C   UNL     1      44.675   2.031   9.104  0.00  0.00    +0.000 C 
ATOM     16  N   UNL     1      44.893   3.033  10.148  0.00  0.00    +0.000 NA
ATOM     17  C   UNL     1      44.955   4.369   9.550  0.00  0.00    +0.000 C 
ENDBRANCH  14  16
ENDBRANCH  13  14
ENDBRANCH  12  13
ENDBRANCH  11  12
ENDBRANCH   7  11
ENDBRANCH   1   8
BRANCH   6  18
ATOM     18  N   UNL     1      48.228   6.427  16.046  0.00  0.00    +0.000 N 
ATOM     19  H   UNL     1      47.281   6.698  15.796  0.00  0.00    +0.000 HD
BRANCH  18  20
ATOM     20  C   UNL     1      49.116   7.514  16.488  0.00  0.00    +0.000 C 
BRANCH  20  21
ATOM     21  C   UNL     1      49.410   8.648  15.466  0.00  0.00    +0.000 C 
ATOM     22  C   UNL     1      48.823   9.988  15.960  0.00  0.00    +0.000 C 
ATOM     23  C   UNL     1      50.918   8.810  15.224  0.00  0.00    +0.000 C 
BRANCH  21  24
ATOM     24  C   UNL     1      48.748   8.285  14.124  0.00  0.00    +0.000 A 
ATOM     25  N   UNL     1      49.400   7.431  13.306  0.00  0.00    +0.000 NA
ATOM     26  C   UNL     1      48.788   7.075  12.159  0.00  0.00    +0.000 A 
ATOM     27  C   UNL     1      47.556   7.534  11.787  0.00  0.00    +0.000 A 
ATOM     28  C   UNL     1      46.970   8.402  12.673  0.00  0.00    +0.000 A 
ATOM     29  N   UNL     1      47.538   8.800  13.838  0.00  0.00    +0.000 NA
BRANCH  28  30
ATOM     30  C   UNL     1      45.613   8.957  12.373  0.00  0.00    +0.000 C 
ATOM     31  N   UNL     1      44.586   8.056  12.363  0.00  0.00    +0.000 N 
ATOM     32  O   UNL     1      45.432  10.145  12.146  0.00  0.00    +0.000 OA
ATOM     33  H   UNL     1      44.774   7.073  12.531  0.00  0.00    +0.000 HD
ATOM     34  H   UNL     1      43.652   8.368  12.145  0.00  0.00    +0.000 HD
ENDBRANCH  28  30
ENDBRANCH  21  24
ENDBRANCH  20  21
ENDBRANCH  18  20
ENDBRANCH   6  18
TORSDOF 11
ENDMDL
