MODEL 1
REMARK VINA RESULT:    -8.721      0.000      0.000
REMARK INTER + INTRA:         -11.625
REMARK INTER:                 -11.270
REMARK INTRA:                  -0.356
REMARK UNBOUND:                -0.356
REMARK  Name = 
REMARK  5 active torsions:
REMARK  status: ('A' for Active; 'I' for Inactive)
REMARK    1  A    between atoms: C_2  and  C_5
REMARK    2  A    between atoms: C_9  and  N_10
REMARK    3  A    between atoms: N_10  and  C_11
REMARK    4  A    between atoms: C_11  and  C_12
REMARK    5  A    between atoms: C_14  and  C_15
REMARK                            x       y       z     vdW  Elec       q    Type
REMARK                         _______ _______ _______ _____ _____    ______ ____
ROOT
ATOM      1  C   UNL     1      43.563   3.560  11.766  0.00  0.00    +0.000 C 
ENDROOT
BRANCH   1   2
ATOM      2  C   UNL     1      44.835   4.151  12.336  0.00  0.00    +0.000 A 
ATOM      3  C   UNL     1      45.137   5.500  12.127  0.00  0.00    +0.000 A 
ATOM      4  C   UNL     1      46.315   6.051  12.653  0.00  0.00    +0.000 A 
ATOM      5  C   UNL     1      47.143   5.185  13.381  0.00  0.00    +0.000 A 
ATOM      6  C   UNL     1      46.769   3.861  13.552  0.00  0.00    +0.000 A 
ATOM      7  N   UNL     1      45.635   3.330  13.056  0.00  0.00    +0.000 NA
BRANCH   4   8
ATOM      8  C   UNL     1      46.666   7.476  12.448  0.00  0.00    +0.000 A 
ATOM      9  C   UNL     1      45.690   8.484  12.474  0.00  0.00    +0.000 A 
ATOM     10  C   UNL     1      46.064   9.807  12.279  0.00  0.00    +0.000 A 
ATOM     11  N   UNL     1      47.334  10.204  12.067  0.00  0.00    +0.000 NA
ATOM     12  C   UNL     1      48.268   9.234  12.045  0.00  0.00    +0.000 A 
ATOM     13  C   UNL     1      47.989   7.885  12.220  0.00  0.00    +0.000 A 
ENDBRANCH   4   8
ENDBRANCH   1   2
BRANCH   1  14
ATOM     14  N   UNL     1      43.869   2.481  10.827  0.00  0.00    +0.000 N 
ATOM     15  H   UNL     1      44.246   1.663  11.304  0.00  0.00    +0.000 HD
BRANCH  14  20
ATOM     16  C   UNL     1      46.161   2.255   7.884  0.00  0.00    +0.000 A 
ATOM     17  C   UNL     1      46.033   3.557   7.435  0.00  0.00    +0.000 A 
ATOM     18  N   UNL     1      45.230   4.470   8.019  0.00  0.00    +0.000 NA
ATOM     19  C   UNL     1      44.527   4.060   9.106  0.00  0.00    +0.000 A 
ATOM     20  C   UNL     1      44.549   2.769   9.641  0.00  0.00    +0.000 A 
ATOM     21  C   UNL     1      45.407   1.871   9.003  0.00  0.00    +0.000 A 
BRANCH  16  23
ATOM     22  F   UNL     1      47.056   0.037   7.753  0.00  0.00    +0.000 F 
ATOM     23  C   UNL     1      47.085   1.288   7.217  0.00  0.00    +0.000 C 
ATOM     24  F   UNL     1      48.385   1.689   7.269  0.00  0.00    +0.000 F 
ATOM     25  F   UNL     1      46.801   1.131   5.893  0.00  0.00    +0.000 F 
ENDBRANCH  16  23
ENDBRANCH  14  20
ENDBRANCH   1  14
TORSDOF 5
ENDMDL
MODEL 2
REMARK VINA RESULT:    -8.140      1.399      2.066
REMARK INTER + INTRA:         -10.875
REMARK INTER:                 -10.163
REMARK INTRA:                  -0.711
REMARK UNBOUND:                -0.356
REMARK  Name = 
REMARK  5 active torsions:
REMARK  status: ('A' for Active; 'I' for Inactive)
REMARK    1  A    between atoms: C_2  and  C_5
REMARK    2  A    between atoms: C_9  and  N_10
REMARK    3  A    between atoms: N_10  and  C_11
REMARK    4  A    between atoms: C_11  and  C_12
REMARK    5  A    between atoms: C_14  and  C_15
REMARK                            x       y       z     vdW  Elec       q    Type
REMARK                         _______ _______ _______ _____ _____    ______ ____
ROOT
ATOM      1  C   UNL     1      43.651   5.278  11.319  0.00  0.00    +0.000 C 
ENDROOT
BRANCH   1   2
ATOM      2  C   UNL     1      44.951   5.474  12.072  0.00  0.00    +0.000 A 
ATOM      3  C   UNL     1      45.818   6.511  11.717  0.00  0.00    +0.000 A 
ATOM      4  C   UNL     1      47.023   6.694  12.410  0.00  0.00    +0.000 A 
ATOM      5  C   UNL     1      47.291   5.796  13.453  0.00  0.00    +0.000 A 
ATOM      6  C   UNL     1      46.375   4.798  13.750  0.00  0.00    +0.000 A 
ATOM      7  N   UNL     1      45.214   4.623  13.092  0.00  0.00    +0.000 NA
BRANCH   4   8
ATOM      8  C   UNL     1      47.966   7.783  12.058  0.00  0.00    +0.000 A 
ATOM      9  C   UNL     1      47.563   9.127  12.043  0.00  0.00    +0.000 A 
ATOM     10  C   UNL     1      48.480  10.114  11.709  0.00  0.00    +0.000 A 
ATOM     11  N   UNL     1      49.766   9.868  11.395  0.00  0.00    +0.000 NA
ATOM     12  C   UNL     1      50.150   8.577  11.413  0.00  0.00    +0.000 A 
ATOM     13  C   UNL     1      49.303   7.521  11.725  0.00  0.00    +0.000 A 
ENDBRANCH   4   8
ENDBRANCH   1   2
BRANCH   1  14
ATOM     14  N   UNL     1      43.899   5.147   9.885  0.00  0.00    +0.000 N 
ATOM     15  H   UNL     1      43.073   5.385   9.337  0.00  0.00    +0.000 HD
BRANCH  14  20
ATOM     16  C   UNL     1      45.971   2.853   7.786  0.00  0.00    +0.000 A 
ATOM     17  C   UNL     1      45.592   1.657   8.367  0.00  0.00    +0.000 A 
ATOM     18  N   UNL     1      44.735   1.574   9.407  0.00  0.00    +0.000 NA
ATOM     19  C   UNL     1      44.233   2.743   9.879  0.00  0.00    +0.000 A 
ATOM     20  C   UNL     1      44.556   4.015   9.396  0.00  0.00    +0.000 A 
ATOM     21  C   UNL     1      45.437   4.037   8.314  0.00  0.00    +0.000 A 
BRANCH  16  23
ATOM     22  F   UNL     1      46.746   3.978   5.818  0.00  0.00    +0.000 F 
ATOM     23  C   UNL     1      46.905   2.890   6.619  0.00  0.00    +0.000 C 
ATOM     24  F   UNL     1      46.768   1.804   5.809  0.00  0.00    +0.000 F 
ATOM     25  F   UNL     1      48.213   2.899   7.003  0.00  0.00    +0.000 F 
ENDBRANCH  16  23
ENDBRANCH  14  20
ENDBRANCH   1  14
TORSDOF 5
ENDMDL
MODEL 3
REMARK VINA RESULT:    -8.092      3.524      6.921
REMARK INTER + INTRA:         -10.813
REMARK INTER:                 -10.069
REMARK INTRA:                  -0.744
REMARK UNBOUND:                -0.356
REMARK  Name = 
REMARK  5 active torsions:
REMARK  status: ('A' for Active; 'I' for Inactive)
REMARK    1  A    between atoms: C_2  and  C_5
REMARK    2  A    between atoms: C_9  and  N_10
REMARK    3  A    between atoms: N_10  and  C_11
REMARK    4  A    between atoms: C_11  and  C_12
REMARK    5  A    between atoms: C_14  and  C_15
REMARK                            x       y       z     vdW  Elec       q    Type
REMARK                         _______ _______ _______ _____ _____    ______ ____
ROOT
ATOM      1  C   UNL     1      44.014   6.512  11.260  0.00  0.00    +0.000 C 
ENDROOT
BRANCH   1   2
ATOM      2  C   UNL     1      44.061   5.041  10.900  0.00  0.00    +0.000 A 
ATOM      3  C   UNL     1      44.846   4.605   9.829  0.00  0.00    +0.000 A 
ATOM      4  C   UNL     1      44.890   3.245   9.492  0.00  0.00    +0.000 A 
ATOM      5  C   UNL     1      44.120   2.378  10.278  0.00  0.00    +0.000 A 
ATOM      6  C   UNL     1      43.373   2.886  11.331  0.00  0.00    +0.000 A 
ATOM      7  N   UNL     1      43.334   4.190  11.662  0.00  0.00    +0.000 NA
BRANCH   4   8
ATOM      8  C   UNL     1      45.711   2.749   8.361  0.00  0.00    +0.000 A 
ATOM      9  C   UNL     1      46.044   3.576   7.278  0.00  0.00    +0.000 A 
ATOM     10  C   UNL     1      46.817   3.071   6.241  0.00  0.00    +0.000 A 
ATOM     11  N   UNL     1      47.288   1.810   6.203  0.00  0.00    +0.000 NA
ATOM     12  C   UNL     1      46.968   1.020   7.245  0.00  0.00    +0.000 A 
ATOM     13  C   UNL     1      46.193   1.432   8.321  0.00  0.00    +0.000 A 
ENDBRANCH   4   8
ENDBRANCH   1   2
BRANCH   1  14
ATOM     14  N   UNL     1      44.529   6.731  12.610  0.00  0.00    +0.000 N 
ATOM     15  H   UNL     1      44.051   7.501  13.075  0.00  0.00    +0.000 HD
BRANCH  14  20
ATOM     16  C   UNL     1      48.155   7.624  12.466  0.00  0.00    +0.000 A 
ATOM     17  C   UNL     1      48.657   6.519  13.128  0.00  0.00    +0.000 A 
ATOM     18  N   UNL     1      47.879   5.537  13.633  0.00  0.00    +0.000 NA
ATOM     19  C   UNL     1      46.539   5.668  13.458  0.00  0.00    +0.000 A 
ATOM     20  C   UNL     1      45.908   6.747  12.831  0.00  0.00    +0.000 A 
ATOM     21  C   UNL     1      46.764   7.725  12.320  0.00  0.00    +0.000 A 
BRANCH  16  23
ATOM     22  F   UNL     1      49.800   9.324  12.841  0.00  0.00    +0.000 F 
ATOM     23  C   UNL     1      49.060   8.672  11.903  0.00  0.00    +0.000 C 
ATOM     24  F   UNL     1      48.380   9.636  11.224  0.00  0.00    +0.000 F 
ATOM     25  F   UNL     1      49.956   8.158  11.014  0.00  0.00    +0.000 F 
ENDBRANCH  16  23
ENDBRANCH  14  20
ENDBRANCH   1  14
TORSDOF 5
ENDMDL
MODEL 4
REMARK VINA RESULT:    -7.929      1.411      2.006
REMARK INTER + INTRA:         -10.603
REMARK INTER:                 -10.109
REMARK INTRA:                  -0.493
REMARK UNBOUND:                -0.356
REMARK  Name = 
REMARK  5 active torsions:
REMARK  status: ('A' for Active; 'I' for Inactive)
REMARK    1  A    between atoms: C_2  and  C_5
REMARK    2  A    between atoms: C_9  and  N_10
REMARK    3  A    between atoms: N_10  and  C_11
REMARK    4  A    between atoms: C_11  and  C_12
REMARK    5  A    between atoms: C_14  and  C_15
REMARK                            x       y       z     vdW  Elec       q    Type
REMARK                         _______ _______ _______ _____ _____    ______ ____
ROOT
ATOM      1  C   UNL     1      45.150   3.108  12.237  0.00  0.00    +0.000 C 
ENDROOT
BRANCH   1   2
ATOM      2  C   UNL     1      45.335   4.600  12.424  0.00  0.00    +0.000 A 
ATOM      3  C   UNL     1      46.620   5.144  12.494  0.00  0.00    +0.000 A 
ATOM      4  C   UNL     1      46.795   6.524  12.670  0.00  0.00    +0.000 A 
ATOM      5  C   UNL     1      45.631   7.298  12.765  0.00  0.00    +0.000 A 
ATOM      6  C   UNL     1      44.390   6.685  12.677  0.00  0.00    +0.000 A 
ATOM      7  N   UNL     1      44.218   5.361  12.501  0.00  0.00    +0.000 NA
BRANCH   4   8
ATOM      8  C   UNL     1      48.144   7.134  12.750  0.00  0.00    +0.000 A 
ATOM      9  C   UNL     1      48.879   7.138  13.945  0.00  0.00    +0.000 A 
ATOM     10  C   UNL     1      50.140   7.718  13.974  0.00  0.00    +0.000 A 
ATOM     11  N   UNL     1      50.728   8.288  12.904  0.00  0.00    +0.000 NA
ATOM     12  C   UNL     1      50.021   8.280  11.758  0.00  0.00    +0.000 A 
ATOM     13  C   UNL     1      48.750   7.733  11.635  0.00  0.00    +0.000 A 
ENDBRANCH   4   8
ENDBRANCH   1   2
BRANCH   1  14
ATOM     14  N   UNL     1      44.329   2.833  11.059  0.00  0.00    +0.000 N 
ATOM     15  H   UNL     1      43.812   1.960  11.156  0.00  0.00    +0.000 HD
BRANCH  14  20
ATOM     16  C   UNL     1      46.241   2.256   7.900  0.00  0.00    +0.000 A 
ATOM     17  C   UNL     1      46.123   3.525   7.364  0.00  0.00    +0.000 A 
ATOM     18  N   UNL     1      45.438   4.524   7.960  0.00  0.00    +0.000 NA
ATOM     19  C   UNL     1      44.852   4.237   9.150  0.00  0.00    +0.000 A 
ATOM     20  C   UNL     1      44.876   2.991   9.783  0.00  0.00    +0.000 A 
ATOM     21  C   UNL     1      45.608   2.000   9.125  0.00  0.00    +0.000 A 
BRANCH  16  23
ATOM     22  F   UNL     1      46.821  -0.060   7.707  0.00  0.00    +0.000 F 
ATOM     23  C   UNL     1      47.032   1.190   7.212  0.00  0.00    +0.000 C 
ATOM     24  F   UNL     1      48.374   1.405   7.292  0.00  0.00    +0.000 F 
ATOM     25  F   UNL     1      46.750   1.115   5.881  0.00  0.00    +0.000 F 
ENDBRANCH  16  23
ENDBRANCH  14  20
ENDBRANCH   1  14
TORSDOF 5
ENDMDL
MODEL 5
REMARK VINA RESULT:    -7.885      2.261      3.826
REMARK INTER + INTRA:         -10.546
REMARK INTER:                  -9.912
REMARK INTRA:                  -0.634
REMARK UNBOUND:                -0.356
REMARK  Name = 
REMARK  5 active torsions:
REMARK  status: ('A' for Active; 'I' for Inactive)
REMARK    1  A    between atoms: C_2  and  C_5
REMARK    2  A    between atoms: C_9  and  N_10
REMARK    3  A    between atoms: N_10  and  C_11
REMARK    4  A    between atoms: C_11  and  C_12
REMARK    5  A    between atoms: C_14  and  C_15
REMARK                            x       y       z     vdW  Elec       q    Type
REMARK                         _______ _______ _______ _____ _____    ______ ____
ROOT
ATOM      1  C   UNL     1      44.298   5.590  11.505  0.00  0.00    +0.000 C 
ENDROOT
BRANCH   1   2
ATOM      2  C   UNL     1      45.646   5.921  12.111  0.00  0.00    +0.000 A 
ATOM      3  C   UNL     1      45.996   5.413  13.365  0.00  0.00    +0.000 A 
ATOM      4  C   UNL     1      47.242   5.720  13.930  0.00  0.00    +0.000 A 
ATOM      5  C   UNL     1      48.089   6.543  13.175  0.00  0.00    +0.000 A 
ATOM      6  C   UNL     1      47.673   7.000  11.934  0.00  0.00    +0.000 A 
ATOM      7  N   UNL     1      46.480   6.702  11.385  0.00  0.00    +0.000 NA
BRANCH   4   8
ATOM      8  C   UNL     1      47.644   5.199  15.259  0.00  0.00    +0.000 A 
ATOM      9  C   UNL     1      48.563   5.883  16.069  0.00  0.00    +0.000 A 
ATOM     10  C   UNL     1      48.909   5.359  17.308  0.00  0.00    +0.000 A 
ATOM     11  N   UNL     1      48.406   4.212  17.804  0.00  0.00    +0.000 NA
ATOM     12  C   UNL     1      47.522   3.561  17.025  0.00  0.00    +0.000 A 
ATOM     13  C   UNL     1      47.123   4.000  15.769  0.00  0.00    +0.000 A 
ENDBRANCH   4   8
ENDBRANCH   1   2
BRANCH   1  14
ATOM     14  N   UNL     1      44.409   5.424  10.057  0.00  0.00    +0.000 N 
ATOM     15  H   UNL     1      43.589   5.788   9.573  0.00  0.00    +0.000 HD
BRANCH  14  20
ATOM     16  C   UNL     1      46.019   2.850   7.879  0.00  0.00    +0.000 A 
ATOM     17  C   UNL     1      45.422   1.728   8.425  0.00  0.00    +0.000 A 
ATOM     18  N   UNL     1      44.563   1.774   9.466  0.00  0.00    +0.000 NA
ATOM     19  C   UNL     1      44.287   3.002   9.976  0.00  0.00    +0.000 A 
ATOM     20  C   UNL     1      44.843   4.205   9.531  0.00  0.00    +0.000 A 
ATOM     21  C   UNL     1      45.715   4.096   8.446  0.00  0.00    +0.000 A 
BRANCH  16  23
ATOM     22  F   UNL     1      48.258   2.902   7.030  0.00  0.00    +0.000 F 
ATOM     23  C   UNL     1      46.944   2.748   6.710  0.00  0.00    +0.000 C 
ATOM     24  F   UNL     1      46.679   3.680   5.753  0.00  0.00    +0.000 F 
ATOM     25  F   UNL     1      46.854   1.541   6.082  0.00  0.00    +0.000 F 
ENDBRANCH  16  23
ENDBRANCH  14  20
ENDBRANCH   1  14
TORSDOF 5
ENDMDL
MODEL 6
REMARK VINA RESULT:    -7.826      3.252      6.772
REMARK INTER + INTRA:         -10.468
REMARK INTER:                  -9.721
REMARK INTRA:                  -0.747
REMARK UNBOUND:                -0.356
REMARK  Name = 
REMARK  5 active torsions:
REMARK  status: ('A' for Active; 'I' for Inactive)
REMARK    1  A    between atoms: C_2  and  C_5
REMARK    2  A    between atoms: C_9  and  N_10
REMARK    3  A    between atoms: N_10  and  C_11
REMARK    4  A    between atoms: C_11  and  C_12
REMARK    5  A    between atoms: C_14  and  C_15
REMARK                            x       y       z     vdW  Elec       q    Type
REMARK                         _______ _______ _______ _____ _____    ______ ____
ROOT
ATOM      1  C   UNL     1      43.479   6.534  11.125  0.00  0.00    +0.000 C 
ENDROOT
BRANCH   1   2
ATOM      2  C   UNL     1      43.715   5.057  10.887  0.00  0.00    +0.000 A 
ATOM      3  C   UNL     1      44.523   4.638   9.826  0.00  0.00    +0.000 A 
ATOM      4  C   UNL     1      44.743   3.270   9.602  0.00  0.00    +0.000 A 
ATOM      5  C   UNL     1      44.118   2.381  10.486  0.00  0.00    +0.000 A 
ATOM      6  C   UNL     1      43.338   2.875  11.520  0.00  0.00    +0.000 A 
ATOM      7  N   UNL     1      43.131   4.187  11.744  0.00  0.00    +0.000 NA
BRANCH   4   8
ATOM      8  C   UNL     1      45.593   2.792   8.485  0.00  0.00    +0.000 A 
ATOM      9  C   UNL     1      45.998   3.649   7.451  0.00  0.00    +0.000 A 
ATOM     10  C   UNL     1      46.796   3.159   6.426  0.00  0.00    +0.000 A 
ATOM     11  N   UNL     1      47.226   1.885   6.355  0.00  0.00    +0.000 NA
ATOM     12  C   UNL     1      46.837   1.066   7.351  0.00  0.00    +0.000 A 
ATOM     13  C   UNL     1      46.033   1.462   8.411  0.00  0.00    +0.000 A 
ENDBRANCH   4   8
ENDBRANCH   1   2
BRANCH   1  14
ATOM     14  N   UNL     1      44.197   6.988  12.314  0.00  0.00    +0.000 N 
ATOM     15  H   UNL     1      43.560   7.350  13.023  0.00  0.00    +0.000 HD
BRANCH  14  20
ATOM     16  C   UNL     1      47.759   8.104  12.159  0.00  0.00    +0.000 A 
ATOM     17  C   UNL     1      47.538   9.469  12.142  0.00  0.00    +0.000 A 
ATOM     18  N   UNL     1      46.307  10.023  12.148  0.00  0.00    +0.000 NA
ATOM     19  C   UNL     1      45.252   9.168  12.179  0.00  0.00    +0.000 A 
ATOM     20  C   UNL     1      45.343   7.773  12.173  0.00  0.00    +0.000 A 
ATOM     21  C   UNL     1      46.641   7.258  12.178  0.00  0.00    +0.000 A 
BRANCH  16  23
ATOM     22  F   UNL     1      49.990   8.182  13.027  0.00  0.00    +0.000 F 
ATOM     23  C   UNL     1      49.144   7.540  12.177  0.00  0.00    +0.000 C 
ATOM     24  F   UNL     1      49.738   7.582  10.952  0.00  0.00    +0.000 F 
ATOM     25  F   UNL     1      49.163   6.230  12.551  0.00  0.00    +0.000 F 
ENDBRANCH  16  23
ENDBRANCH  14  20
ENDBRANCH   1  14
TORSDOF 5
ENDMDL
MODEL 7
REMARK VINA RESULT:    -7.476      3.739      7.175
REMARK INTER + INTRA:         -10.017
REMARK INTER:                  -9.378
REMARK INTRA:                  -0.638
REMARK UNBOUND:                -0.356
REMARK  Name = 
REMARK  5 active torsions:
REMARK  status: ('A' for Active; 'I' for Inactive)
REMARK    1  A    between atoms: C_2  and  C_5
REMARK    2  A    between atoms: C_9  and  N_10
REMARK    3  A    between atoms: N_10  and  C_11
REMARK    4  A    between atoms: C_11  and  C_12
REMARK    5  A    between atoms: C_14  and  C_15
REMARK                            x       y       z     vdW  Elec       q    Type
REMARK                         _______ _______ _______ _____ _____    ______ ____
ROOT
ATOM      1  C   UNL     1      45.045   6.362  11.747  0.00  0.00    +0.000 C 
ENDROOT
BRANCH   1   2
ATOM      2  C   UNL     1      44.718   5.005  11.159  0.00  0.00    +0.000 A 
ATOM      3  C   UNL     1      45.420   4.536  10.045  0.00  0.00    +0.000 A 
ATOM      4  C   UNL     1      45.117   3.281   9.497  0.00  0.00    +0.000 A 
ATOM      5  C   UNL     1      44.098   2.551  10.122  0.00  0.00    +0.000 A 
ATOM      6  C   UNL     1      43.454   3.082  11.230  0.00  0.00    +0.000 A 
ATOM      7  N   UNL     1      43.746   4.283  11.764  0.00  0.00    +0.000 NA
BRANCH   4   8
ATOM      8  C   UNL     1      45.841   2.754   8.315  0.00  0.00    +0.000 A 
ATOM      9  C   UNL     1      46.149   3.572   7.217  0.00  0.00    +0.000 A 
ATOM     10  C   UNL     1      46.830   3.036   6.132  0.00  0.00    +0.000 A 
ATOM     11  N   UNL     1      47.233   1.753   6.059  0.00  0.00    +0.000 NA
ATOM     12  C   UNL     1      46.938   0.972   7.115  0.00  0.00    +0.000 A 
ATOM     13  C   UNL     1      46.253   1.414   8.239  0.00  0.00    +0.000 A 
ENDBRANCH   4   8
ENDBRANCH   1   2
BRANCH   1  14
ATOM     14  N   UNL     1      46.488   6.595  11.740  0.00  0.00    +0.000 N 
ATOM     15  H   UNL     1      46.940   6.132  10.952  0.00  0.00    +0.000 HD
BRANCH  14  20
ATOM     16  C   UNL     1      47.781   5.339  15.014  0.00  0.00    +0.000 A 
ATOM     17  C   UNL     1      48.520   6.451  15.373  0.00  0.00    +0.000 A 
ATOM     18  N   UNL     1      48.635   7.551  14.599  0.00  0.00    +0.000 NA
ATOM     19  C   UNL     1      47.973   7.535  13.413  0.00  0.00    +0.000 A 
ATOM     20  C   UNL     1      47.216   6.466  12.925  0.00  0.00    +0.000 A 
ATOM     21  C   UNL     1      47.124   5.361  13.775  0.00  0.00    +0.000 A 
BRANCH  16  23
ATOM     22  F   UNL     1      46.576   4.188  16.733  0.00  0.00    +0.000 F 
ATOM     23  C   UNL     1      47.665   4.155  15.919  0.00  0.00    +0.000 C 
ATOM     24  F   UNL     1      48.744   4.020  16.739  0.00  0.00    +0.000 F 
ATOM     25  F   UNL     1      47.578   2.984  15.228  0.00  0.00    +0.000 F 
ENDBRANCH  16  23
ENDBRANCH  14  20
ENDBRANCH   1  14
TORSDOF 5
ENDMDL
MODEL 8
REMARK VINA RESULT:    -7.242      1.954      3.310
REMARK INTER + INTRA:          -9.714
REMARK INTER:                  -9.212
REMARK INTRA:                  -0.502
REMARK UNBOUND:                -0.356
REMARK  Name = 
REMARK  5 active torsions:
REMARK  status: ('A' for Active; 'I' for Inactive)
REMARK    1  A    between atoms: C_2  and  C_5
REMARK    2  A    between atoms: C_9  and  N_10
REMARK    3  A    between atoms: N_10  and  C_11
REMARK    4  A    between atoms: C_11  and  C_12
REMARK    5  A    between atoms: C_14  and  C_15
REMARK                            x       y       z     vdW  Elec       q    Type
REMARK                         _______ _______ _______ _____ _____    ______ ____
ROOT
ATOM      1  C   UNL     1      44.870   5.774  11.393  0.00  0.00    +0.000 C 
ENDROOT
BRANCH   1   2
ATOM      2  C   UNL     1      45.595   7.069  11.692  0.00  0.00    +0.000 A 
ATOM      3  C   UNL     1      46.983   7.075  11.853  0.00  0.00    +0.000 A 
ATOM      4  C   UNL     1      47.658   8.273  12.133  0.00  0.00    +0.000 A 
ATOM      5  C   UNL     1      46.871   9.428  12.234  0.00  0.00    +0.000 A 
ATOM      6  C   UNL     1      45.499   9.342  12.051  0.00  0.00    +0.000 A 
ATOM      7  N   UNL     1      44.848   8.196  11.776  0.00  0.00    +0.000 NA
BRANCH   4   8
ATOM      8  C   UNL     1      49.129   8.313  12.311  0.00  0.00    +0.000 A 
ATOM      9  C   UNL     1      50.006   8.039  11.250  0.00  0.00    +0.000 A 
ATOM     10  C   UNL     1      51.377   8.091  11.462  0.00  0.00    +0.000 A 
ATOM     11  N   UNL     1      51.942   8.400  12.645  0.00  0.00    +0.000 NA
ATOM     12  C   UNL     1      51.097   8.665  13.660  0.00  0.00    +0.000 A 
ATOM     13  C   UNL     1      49.714   8.629  13.547  0.00  0.00    +0.000 A 
ENDBRANCH   4   8
ENDBRANCH   1   2
BRANCH   1  14
ATOM     14  N   UNL     1      44.819   5.530   9.953  0.00  0.00    +0.000 N 
ATOM     15  H   UNL     1      43.981   5.929   9.533  0.00  0.00    +0.000 HD
BRANCH  14  20
ATOM     16  C   UNL     1      46.111   2.740   7.828  0.00  0.00    +0.000 A 
ATOM     17  C   UNL     1      45.405   1.705   8.412  0.00  0.00    +0.000 A 
ATOM     18  N   UNL     1      44.571   1.871   9.460  0.00  0.00    +0.000 NA
ATOM     19  C   UNL     1      44.436   3.134   9.940  0.00  0.00    +0.000 A 
ATOM     20  C   UNL     1      45.112   4.258   9.456  0.00  0.00    +0.000 A 
ATOM     21  C   UNL     1      45.951   4.027   8.364  0.00  0.00    +0.000 A 
BRANCH  16  23
ATOM     22  F   UNL     1      48.322   2.725   6.908  0.00  0.00    +0.000 F 
ATOM     23  C   UNL     1      47.004   2.509   6.652  0.00  0.00    +0.000 C 
ATOM     24  F   UNL     1      46.690   3.308   5.595  0.00  0.00    +0.000 F 
ATOM     25  F   UNL     1      46.920   1.231   6.184  0.00  0.00    +0.000 F 
ENDBRANCH  16  23
ENDBRANCH  14  20
ENDBRANCH   1  14
TORSDOF 5
ENDMDL
MODEL 9
REMARK VINA RESULT:    -6.991      4.649      7.738
REMARK INTER + INTRA:          -9.390
REMARK INTER:                  -8.933
REMARK INTRA:                  -0.456
REMARK UNBOUND:                -0.356
REMARK  Name = 
REMARK  5 active torsions:
REMARK  status: ('A' for Active; 'I' for Inactive)
REMARK    1  A    between atoms: C_2  and  C_5
REMARK    2  A    between atoms: C_9  and  N_10
REMARK    3  A    between atoms: N_10  and  C_11
REMARK    4  A    between atoms: C_11  and  C_12
REMARK    5  A    between atoms: C_14  and  C_15
REMARK                            x       y       z     vdW  Elec       q    Type
REMARK                         _______ _______ _______ _____ _____    ______ ____
ROOT
ATOM      1  C   UNL     1      45.381   4.769  14.042  0.00  0.00    +0.000 C 
ENDROOT
BRANCH   1   2
ATOM      2  C   UNL     1      44.707   4.746  12.685  0.00  0.00    +0.000 A 
ATOM      3  C   UNL     1      45.334   4.126  11.601  0.00  0.00    +0.000 A 
ATOM      4  C   UNL     1      44.714   4.105  10.343  0.00  0.00    +0.000 A 
ATOM      5  C   UNL     1      43.462   4.726  10.250  0.00  0.00    +0.000 A 
ATOM      6  C   UNL     1      42.901   5.313  11.374  0.00  0.00    +0.000 A 
ATOM      7  N   UNL     1      43.489   5.329  12.585  0.00  0.00    +0.000 NA
BRANCH   4   8
ATOM      8  C   UNL     1      45.352   3.457   9.173  0.00  0.00    +0.000 A 
ATOM      9  C   UNL     1      45.840   4.208   8.092  0.00  0.00    +0.000 A 
ATOM     10  C   UNL     1      46.432   3.559   7.017  0.00  0.00    +0.000 A 
ATOM     11  N   UNL     1      46.582   2.223   6.938  0.00  0.00    +0.000 NA
ATOM     12  C   UNL     1      46.114   1.506   7.977  0.00  0.00    +0.000 A 
ATOM     13  C   UNL     1      45.499   2.063   9.090  0.00  0.00    +0.000 A 
ENDBRANCH   4   8
ENDBRANCH   1   2
BRANCH   1  14
ATOM     14  N   UNL     1      46.580   5.604  14.010  0.00  0.00    +0.000 N 
ATOM     15  H   UNL     1      46.956   5.687  13.067  0.00  0.00    +0.000 HD
BRANCH  14  20
ATOM     16  C   UNL     1      48.510   4.345  16.952  0.00  0.00    +0.000 A 
ATOM     17  C   UNL     1      49.492   5.318  16.975  0.00  0.00    +0.000 A 
ATOM     18  N   UNL     1      49.565   6.323  16.076  0.00  0.00    +0.000 NA
ATOM     19  C   UNL     1      48.606   6.355  15.116  0.00  0.00    +0.000 A 
ATOM     20  C   UNL     1      47.578   5.418  14.970  0.00  0.00    +0.000 A 
ATOM     21  C   UNL     1      47.547   4.409  15.934  0.00  0.00    +0.000 A 
BRANCH  16  23
ATOM     22  F   UNL     1      48.395   3.729  19.263  0.00  0.00    +0.000 F 
ATOM     23  C   UNL     1      48.459   3.266  17.986  0.00  0.00    +0.000 C 
ATOM     24  F   UNL     1      49.545   2.446  17.936  0.00  0.00    +0.000 F 
ATOM     25  F   UNL     1      47.376   2.453  17.830  0.00  0.00    +0.000 F 
ENDBRANCH  16  23
ENDBRANCH  14  20
ENDBRANCH   1  14
TORSDOF 5
ENDMDL
