MODEL 1
REMARK VINA RESULT:    -7.742      0.000      0.000
REMARK INTER + INTRA:         -10.289
REMARK INTER:                  -9.779
REMARK INTRA:                  -0.511
REMARK UNBOUND:                -0.511
REMARK  Name = 
REMARK  5 active torsions:
REMARK  status: ('A' for Active; 'I' for Inactive)
REMARK    1  A    between atoms: N_1  and  C_2
REMARK    2  A    between atoms: C_2  and  C_3
REMARK    3  A    between atoms: C_3  and  C_4
REMARK    4  A    between atoms: C_7  and  C_8
REMARK    5  A    between atoms: C_8  and  N_9
REMARK                            x       y       z     vdW  Elec       q    Type
REMARK                         _______ _______ _______ _____ _____    ______ ____
ROOT
ATOM      1  C   UNL     1      45.837   2.970   7.862  0.00  0.00    +0.000 A 
ATOM      2  C   UNL     1      45.223   2.251   8.895  0.00  0.00    +0.000 A 
ATOM      3  C   UNL     1      44.774   2.902  10.047  0.00  0.00    +0.000 A 
ATOM      4  C   UNL     1      44.921   4.289  10.188  0.00  0.00    +0.000 A 
ATOM      5  C   UNL     1      45.516   5.010   9.143  0.00  0.00    +0.000 A 
ATOM      6  C   UNL     1      45.962   4.358   7.988  0.00  0.00    +0.000 A 
ENDROOT
BRANCH   1   7
ATOM      7  C   UNL     1      46.383   2.256   6.648  0.00  0.00    +0.000 C 
BRANCH   7   8
ATOM      8  C   UNL     1      47.845   1.827   6.807  0.00  0.00    +0.000 C 
BRANCH   8   9
ATOM      9  N   UNL     1      48.537   1.857   5.516  0.00  0.00    +0.000 NA
ATOM     10  H   UNL     1      48.732   0.903   5.215  0.00  0.00    +0.000 HD
ATOM     11  H   UNL     1      49.442   2.314   5.621  0.00  0.00    +0.000 HD
ENDBRANCH   8   9
ENDBRANCH   7   8
ENDBRANCH   1   7
BRANCH   4  12
ATOM     12  C   UNL     1      44.457   5.000  11.435  0.00  0.00    +0.000 C 
BRANCH  12  13
ATOM     13  N   UNL     1      45.488   5.067  12.466  0.00  0.00    +0.000 N 
ATOM     14  N   UNL     1      45.522   4.109  13.429  0.00  0.00    +0.000 NA
ATOM     15  C   UNL     1      46.654   4.379  14.095  0.00  0.00    +0.000 A 
ATOM     16  C   UNL     1      47.351   5.473  13.556  0.00  0.00    +0.000 A 
ATOM     17  N   UNL     1      48.533   6.036  13.906  0.00  0.00    +0.000 NA
ATOM     18  C   UNL     1      48.907   7.079  13.135  0.00  0.00    +0.000 A 
ATOM     19  C   UNL     1      48.185   7.590  12.064  0.00  0.00    +0.000 A 
ATOM     20  C   UNL     1      46.970   7.007  11.715  0.00  0.00    +0.000 A 
ATOM     21  C   UNL     1      46.570   5.918  12.495  0.00  0.00    +0.000 A 
ENDBRANCH  12  13
ENDBRANCH   4  12
TORSDOF 5
ENDMDL
MODEL 2
REMARK VINA RESULT:    -7.381      1.386      2.044
REMARK INTER + INTRA:          -9.833
REMARK INTER:                  -9.274
REMARK INTRA:                  -0.559
REMARK UNBOUND:                -0.511
REMARK  Name = 
REMARK  5 active torsions:
REMARK  status: ('A' for Active; 'I' for Inactive)
REMARK    1  A    between atoms: N_1  and  C_2
REMARK    2  A    between atoms: C_2  and  C_3
REMARK    3  A    between atoms: C_3  and  C_4
REMARK    4  A    between atoms: C_7  and  C_8
REMARK    5  A    between atoms: C_8  and  N_9
REMARK                            x       y       z     vdW  Elec       q    Type
REMARK                         _______ _______ _______ _____ _____    ______ ____
ROOT
ATOM      1  C   UNL     1      45.991   2.259   7.855  0.00  0.00    +0.000 A 
ATOM      2  C   UNL     1      45.226   1.704   8.888  0.00  0.00    +0.000 A 
ATOM      3  C   UNL     1      44.523   2.524   9.775  0.00  0.00    +0.000 A 
ATOM      4  C   UNL     1      44.564   3.919   9.644  0.00  0.00    +0.000 A 
ATOM      5  C   UNL     1      45.313   4.472   8.596  0.00  0.00    +0.000 A 
ATOM      6  C   UNL     1      46.012   3.650   7.705  0.00  0.00    +0.000 A 
ENDROOT
BRANCH   1   7
ATOM      7  C   UNL     1      46.804   1.375   6.940  0.00  0.00    +0.000 C 
BRANCH   7   8
ATOM      8  C   UNL     1      48.216   1.909   6.682  0.00  0.00    +0.000 C 
BRANCH   8   9
ATOM      9  N   UNL     1      48.416   2.174   5.255  0.00  0.00    +0.000 NA
ATOM     10  H   UNL     1      48.115   3.124   5.042  0.00  0.00    +0.000 HD
ATOM     11  H   UNL     1      47.821   1.557   4.704  0.00  0.00    +0.000 HD
ENDBRANCH   8   9
ENDBRANCH   7   8
ENDBRANCH   1   7
BRANCH   4  12
ATOM     12  C   UNL     1      43.824   4.815  10.606  0.00  0.00    +0.000 C 
BRANCH  12  13
ATOM     13  N   UNL     1      44.719   5.645  11.408  0.00  0.00    +0.000 N 
ATOM     14  N   UNL     1      44.598   6.998  11.346  0.00  0.00    +0.000 NA
ATOM     15  C   UNL     1      45.438   7.428  12.297  0.00  0.00    +0.000 A 
ATOM     16  C   UNL     1      46.069   6.375  12.979  0.00  0.00    +0.000 A 
ATOM     17  N   UNL     1      46.945   6.381  14.014  0.00  0.00    +0.000 NA
ATOM     18  C   UNL     1      47.330   5.156  14.430  0.00  0.00    +0.000 A 
ATOM     19  C   UNL     1      46.910   3.950  13.883  0.00  0.00    +0.000 A 
ATOM     20  C   UNL     1      46.012   3.954  12.818  0.00  0.00    +0.000 A 
ATOM     21  C   UNL     1      45.594   5.214  12.380  0.00  0.00    +0.000 A 
ENDBRANCH  12  13
ENDBRANCH   4  12
TORSDOF 5
ENDMDL
MODEL 3
REMARK VINA RESULT:    -6.232      1.971      2.342
REMARK INTER + INTRA:          -8.383
REMARK INTER:                  -8.102
REMARK INTRA:                  -0.281
REMARK UNBOUND:                -0.511
REMARK  Name = 
REMARK  5 active torsions:
REMARK  status: ('A' for Active; 'I' for Inactive)
REMARK    1  A    between atoms: N_1  and  C_2
REMARK    2  A    between atoms: C_2  and  C_3
REMARK    3  A    between atoms: C_3  and  C_4
REMARK    4  A    between atoms: C_7  and  C_8
REMARK    5  A    between atoms: C_8  and  N_9
REMARK                            x       y       z     vdW  Elec       q    Type
REMARK                         _______ _______ _______ _____ _____    ______ ____
ROOT
ATOM      1  C   UNL     1      45.578   3.623   8.147  0.00  0.00    +0.000 A 
ATOM      2  C   UNL     1      44.615   2.955   8.914  0.00  0.00    +0.000 A 
ATOM      3  C   UNL     1      44.153   3.503  10.114  0.00  0.00    +0.000 A 
ATOM      4  C   UNL     1      44.640   4.736  10.570  0.00  0.00    +0.000 A 
ATOM      5  C   UNL     1      45.588   5.413   9.790  0.00  0.00    +0.000 A 
ATOM      6  C   UNL     1      46.046   4.866   8.587  0.00  0.00    +0.000 A 
ENDROOT
BRANCH   1   7
ATOM      7  C   UNL     1      46.126   2.997   6.887  0.00  0.00    +0.000 C 
BRANCH   7   8
ATOM      8  C   UNL     1      47.647   2.820   6.912  0.00  0.00    +0.000 C 
BRANCH   8   9
ATOM      9  N   UNL     1      48.013   1.440   6.587  0.00  0.00    +0.000 NA
ATOM     10  H   UNL     1      48.869   1.437   6.035  0.00  0.00    +0.000 HD
ATOM     11  H   UNL     1      47.294   1.022   5.998  0.00  0.00    +0.000 HD
ENDBRANCH   8   9
ENDBRANCH   7   8
ENDBRANCH   1   7
BRANCH   4  12
ATOM     12  C   UNL     1      44.163   5.330  11.872  0.00  0.00    +0.000 C 
BRANCH  12  13
ATOM     13  N   UNL     1      45.067   6.349  12.395  0.00  0.00    +0.000 N 
ATOM     14  N   UNL     1      46.137   5.964  13.140  0.00  0.00    +0.000 NA
ATOM     15  C   UNL     1      46.819   7.104  13.315  0.00  0.00    +0.000 A 
ATOM     16  C   UNL     1      46.218   8.200  12.674  0.00  0.00    +0.000 A 
ATOM     17  N   UNL     1      46.601   9.496  12.577  0.00  0.00    +0.000 NA
ATOM     18  C   UNL     1      45.769  10.274  11.851  0.00  0.00    +0.000 A 
ATOM     19  C   UNL     1      44.599   9.847  11.236  0.00  0.00    +0.000 A 
ATOM     20  C   UNL     1      44.213   8.514  11.344  0.00  0.00    +0.000 A 
ATOM     21  C   UNL     1      45.066   7.690  12.083  0.00  0.00    +0.000 A 
ENDBRANCH  12  13
ENDBRANCH   4  12
TORSDOF 5
ENDMDL
MODEL 4
REMARK VINA RESULT:    -5.929      1.960      6.465
REMARK INTER + INTRA:          -8.000
REMARK INTER:                  -7.572
REMARK INTRA:                  -0.428
REMARK UNBOUND:                -0.511
REMARK  Name = 
REMARK  5 active torsions:
REMARK  status: ('A' for Active; 'I' for Inactive)
REMARK    1  A    between atoms: N_1  and  C_2
REMARK    2  A    between atoms: C_2  and  C_3
REMARK    3  A    between atoms: C_3  and  C_4
REMARK    4  A    between atoms: C_7  and  C_8
REMARK    5  A    between atoms: C_8  and  N_9
REMARK                            x       y       z     vdW  Elec       q    Type
REMARK                         _______ _______ _______ _____ _____    ______ ____
ROOT
ATOM      1  C   UNL     1      47.926   7.156  13.888  0.00  0.00    +0.000 A 
ATOM      2  C   UNL     1      47.158   8.178  13.317  0.00  0.00    +0.000 A 
ATOM      3  C   UNL     1      45.975   7.883  12.633  0.00  0.00    +0.000 A 
ATOM      4  C   UNL     1      45.531   6.559  12.511  0.00  0.00    +0.000 A 
ATOM      5  C   UNL     1      46.291   5.540  13.103  0.00  0.00    +0.000 A 
ATOM      6  C   UNL     1      47.471   5.836  13.791  0.00  0.00    +0.000 A 
ENDROOT
BRANCH   1   7
ATOM      7  C   UNL     1      49.238   7.469  14.568  0.00  0.00    +0.000 C 
BRANCH   7   8
ATOM      8  C   UNL     1      49.253   7.097  16.053  0.00  0.00    +0.000 C 
BRANCH   8   9
ATOM      9  N   UNL     1      50.155   5.970  16.296  0.00  0.00    +0.000 NA
ATOM     10  H   UNL     1      50.385   5.927  17.288  0.00  0.00    +0.000 HD
ATOM     11  H   UNL     1      51.036   6.123  15.806  0.00  0.00    +0.000 HD
ENDBRANCH   8   9
ENDBRANCH   7   8
ENDBRANCH   1   7
BRANCH   4  12
ATOM     12  C   UNL     1      44.266   6.227  11.759  0.00  0.00    +0.000 C 
BRANCH  12  13
ATOM     13  N   UNL     1      44.210   4.831  11.334  0.00  0.00    +0.000 N 
ATOM     14  N   UNL     1      43.440   3.957  12.035  0.00  0.00    +0.000 NA
ATOM     15  C   UNL     1      43.493   2.839  11.299  0.00  0.00    +0.000 A 
ATOM     16  C   UNL     1      44.260   2.993  10.133  0.00  0.00    +0.000 A 
ATOM     17  N   UNL     1      44.528   2.131   9.122  0.00  0.00    +0.000 NA
ATOM     18  C   UNL     1      45.298   2.642   8.138  0.00  0.00    +0.000 A 
ATOM     19  C   UNL     1      45.814   3.932   8.106  0.00  0.00    +0.000 A 
ATOM     20  C   UNL     1      45.534   4.809   9.151  0.00  0.00    +0.000 A 
ATOM     21  C   UNL     1      44.729   4.301  10.174  0.00  0.00    +0.000 A 
ENDBRANCH  12  13
ENDBRANCH   4  12
TORSDOF 5
ENDMDL
MODEL 5
REMARK VINA RESULT:    -5.823      1.905      6.395
REMARK INTER + INTRA:          -7.865
REMARK INTER:                  -7.325
REMARK INTRA:                  -0.540
REMARK UNBOUND:                -0.511
REMARK  Name = 
REMARK  5 active torsions:
REMARK  status: ('A' for Active; 'I' for Inactive)
REMARK    1  A    between atoms: N_1  and  C_2
REMARK    2  A    between atoms: C_2  and  C_3
REMARK    3  A    between atoms: C_3  and  C_4
REMARK    4  A    between atoms: C_7  and  C_8
REMARK    5  A    between atoms: C_8  and  N_9
REMARK                            x       y       z     vdW  Elec       q    Type
REMARK                         _______ _______ _______ _____ _____    ______ ____
ROOT
ATOM      1  C   UNL     1      46.268   6.045  12.168  0.00  0.00    +0.000 A 
ATOM      2  C   UNL     1      46.335   6.421  10.820  0.00  0.00    +0.000 A 
ATOM      3  C   UNL     1      45.748   5.629   9.829  0.00  0.00    +0.000 A 
ATOM      4  C   UNL     1      45.074   4.447  10.165  0.00  0.00    +0.000 A 
ATOM      5  C   UNL     1      44.990   4.084  11.517  0.00  0.00    +0.000 A 
ATOM      6  C   UNL     1      45.573   4.880  12.509  0.00  0.00    +0.000 A 
ENDROOT
BRANCH   1   7
ATOM      7  C   UNL     1      46.961   6.866  13.230  0.00  0.00    +0.000 C 
BRANCH   7   8
ATOM      8  C   UNL     1      48.398   6.411  13.503  0.00  0.00    +0.000 C 
BRANCH   8   9
ATOM      9  N   UNL     1      48.544   5.963  14.890  0.00  0.00    +0.000 NA
ATOM     10  H   UNL     1      47.692   6.176  15.406  0.00  0.00    +0.000 HD
ATOM     11  H   UNL     1      49.291   6.487  15.344  0.00  0.00    +0.000 HD
ENDBRANCH   8   9
ENDBRANCH   7   8
ENDBRANCH   1   7
BRANCH   4  12
ATOM     12  C   UNL     1      44.453   3.574   9.103  0.00  0.00    +0.000 C 
BRANCH  12  13
ATOM     13  N   UNL     1      45.382   2.582   8.570  0.00  0.00    +0.000 N 
ATOM     14  N   UNL     1      45.332   1.309   9.042  0.00  0.00    +0.000 NA
ATOM     15  C   UNL     1      46.185   0.649   8.247  0.00  0.00    +0.000 A 
ATOM     16  C   UNL     1      46.756   1.474   7.263  0.00  0.00    +0.000 A 
ATOM     17  N   UNL     1      47.623   1.193   6.260  0.00  0.00    +0.000 NA
ATOM     18  C   UNL     1      47.942   2.251   5.483  0.00  0.00    +0.000 A 
ATOM     19  C   UNL     1      47.465   3.546   5.648  0.00  0.00    +0.000 A 
ATOM     20  C   UNL     1      46.577   3.823   6.684  0.00  0.00    +0.000 A 
ATOM     21  C   UNL     1      46.227   2.738   7.493  0.00  0.00    +0.000 A 
ENDBRANCH  12  13
ENDBRANCH   4  12
TORSDOF 5
ENDMDL
MODEL 6
REMARK VINA RESULT:    -5.459      2.202      5.847
REMARK INTER + INTRA:          -7.406
REMARK INTER:                  -6.981
REMARK INTRA:                  -0.425
REMARK UNBOUND:                -0.511
REMARK  Name = 
REMARK  5 active torsions:
REMARK  status: ('A' for Active; 'I' for Inactive)
REMARK    1  A    between atoms: N_1  and  C_2
REMARK    2  A    between atoms: C_2  and  C_3
REMARK    3  A    between atoms: C_3  and  C_4
REMARK    4  A    between atoms: C_7  and  C_8
REMARK    5  A    between atoms: C_8  and  N_9
REMARK                            x       y       z     vdW  Elec       q    Type
REMARK                         _______ _______ _______ _____ _____    ______ ____
ROOT
ATOM      1  C   UNL     1      48.780   7.780  12.534  0.00  0.00    +0.000 A 
ATOM      2  C   UNL     1      47.762   8.694  12.239  0.00  0.00    +0.000 A 
ATOM      3  C   UNL     1      46.431   8.276  12.151  0.00  0.00    +0.000 A 
ATOM      4  C   UNL     1      46.088   6.933  12.365  0.00  0.00    +0.000 A 
ATOM      5  C   UNL     1      47.107   6.024  12.682  0.00  0.00    +0.000 A 
ATOM      6  C   UNL     1      48.438   6.444  12.774  0.00  0.00    +0.000 A 
ENDROOT
BRANCH   1   7
ATOM      7  C   UNL     1      50.224   8.220  12.562  0.00  0.00    +0.000 C 
BRANCH   7   8
ATOM      8  C   UNL     1      50.975   7.911  11.263  0.00  0.00    +0.000 C 
BRANCH   8   9
ATOM      9  N   UNL     1      51.465   9.144  10.642  0.00  0.00    +0.000 NA
ATOM     10  H   UNL     1      50.856   9.919  10.901  0.00  0.00    +0.000 HD
ATOM     11  H   UNL     1      51.408   9.064   9.627  0.00  0.00    +0.000 HD
ENDBRANCH   8   9
ENDBRANCH   7   8
ENDBRANCH   1   7
BRANCH   4  12
ATOM     12  C   UNL     1      44.658   6.466  12.255  0.00  0.00    +0.000 C 
BRANCH  12  13
ATOM     13  N   UNL     1      44.550   5.053  11.903  0.00  0.00    +0.000 N 
ATOM     14  N   UNL     1      43.983   4.193  12.790  0.00  0.00    +0.000 NA
ATOM     15  C   UNL     1      43.903   3.046  12.101  0.00  0.00    +0.000 A 
ATOM     16  C   UNL     1      44.382   3.169  10.787  0.00  0.00    +0.000 A 
ATOM     17  N   UNL     1      44.442   2.271   9.774  0.00  0.00    +0.000 NA
ATOM     18  C   UNL     1      44.956   2.758   8.623  0.00  0.00    +0.000 A 
ATOM     19  C   UNL     1      45.412   4.056   8.430  0.00  0.00    +0.000 A 
ATOM     20  C   UNL     1      45.349   4.969   9.479  0.00  0.00    +0.000 A 
ATOM     21  C   UNL     1      44.810   4.487  10.675  0.00  0.00    +0.000 A 
ENDBRANCH  12  13
ENDBRANCH   4  12
TORSDOF 5
ENDMDL
MODEL 7
REMARK VINA RESULT:    -5.426      2.016      2.868
REMARK INTER + INTRA:          -7.364
REMARK INTER:                  -6.718
REMARK INTRA:                  -0.646
REMARK UNBOUND:                -0.511
REMARK  Name = 
REMARK  5 active torsions:
REMARK  status: ('A' for Active; 'I' for Inactive)
REMARK    1  A    between atoms: N_1  and  C_2
REMARK    2  A    between atoms: C_2  and  C_3
REMARK    3  A    between atoms: C_3  and  C_4
REMARK    4  A    between atoms: C_7  and  C_8
REMARK    5  A    between atoms: C_8  and  N_9
REMARK                            x       y       z     vdW  Elec       q    Type
REMARK                         _______ _______ _______ _____ _____    ______ ____
ROOT
ATOM      1  C   UNL     1      44.542   3.072  10.053  0.00  0.00    +0.000 A 
ATOM      2  C   UNL     1      45.165   2.864  11.290  0.00  0.00    +0.000 A 
ATOM      3  C   UNL     1      45.223   3.888  12.240  0.00  0.00    +0.000 A 
ATOM      4  C   UNL     1      44.652   5.141  11.976  0.00  0.00    +0.000 A 
ATOM      5  C   UNL     1      44.010   5.339  10.746  0.00  0.00    +0.000 A 
ATOM      6  C   UNL     1      43.948   4.313   9.797  0.00  0.00    +0.000 A 
ENDROOT
BRANCH   1   7
ATOM      7  C   UNL     1      44.540   1.987   9.002  0.00  0.00    +0.000 C 
BRANCH   7   8
ATOM      8  C   UNL     1      45.937   1.667   8.462  0.00  0.00    +0.000 C 
BRANCH   8   9
ATOM      9  N   UNL     1      46.422   2.750   7.604  0.00  0.00    +0.000 NA
ATOM     10  H   UNL     1      45.864   2.783   6.752  0.00  0.00    +0.000 HD
ATOM     11  H   UNL     1      47.378   2.554   7.311  0.00  0.00    +0.000 HD
ENDBRANCH   8   9
ENDBRANCH   7   8
ENDBRANCH   1   7
BRANCH   4  12
ATOM     12  C   UNL     1      44.725   6.259  12.986  0.00  0.00    +0.000 C 
BRANCH  12  13
ATOM     13  N   UNL     1      45.538   7.382  12.530  0.00  0.00    +0.000 N 
ATOM     14  N   UNL     1      44.933   8.567  12.250  0.00  0.00    +0.000 NA
ATOM     15  C   UNL     1      45.962   9.394  12.021  0.00  0.00    +0.000 A 
ATOM     16  C   UNL     1      47.208   8.765  12.176  0.00  0.00    +0.000 A 
ATOM     17  N   UNL     1      48.469   9.249  12.072  0.00  0.00    +0.000 NA
ATOM     18  C   UNL     1      49.440   8.341  12.312  0.00  0.00    +0.000 A 
ATOM     19  C   UNL     1      49.233   7.006  12.634  0.00  0.00    +0.000 A 
ATOM     20  C   UNL     1      47.933   6.518  12.735  0.00  0.00    +0.000 A 
ATOM     21  C   UNL     1      46.914   7.445  12.500  0.00  0.00    +0.000 A 
ENDBRANCH  12  13
ENDBRANCH   4  12
TORSDOF 5
ENDMDL
MODEL 8
REMARK VINA RESULT:    -5.378      4.357      7.634
REMARK INTER + INTRA:          -7.303
REMARK INTER:                  -6.751
REMARK INTRA:                  -0.552
REMARK UNBOUND:                -0.511
REMARK  Name = 
REMARK  5 active torsions:
REMARK  status: ('A' for Active; 'I' for Inactive)
REMARK    1  A    between atoms: N_1  and  C_2
REMARK    2  A    between atoms: C_2  and  C_3
REMARK    3  A    between atoms: C_3  and  C_4
REMARK    4  A    between atoms: C_7  and  C_8
REMARK    5  A    between atoms: C_8  and  N_9
REMARK                            x       y       z     vdW  Elec       q    Type
REMARK                         _______ _______ _______ _____ _____    ______ ____
ROOT
ATOM      1  C   UNL     1      51.185   2.714  17.575  0.00  0.00    +0.000 A 
ATOM      2  C   UNL     1      50.196   1.914  16.991  0.00  0.00    +0.000 A 
ATOM      3  C   UNL     1      48.951   2.452  16.653  0.00  0.00    +0.000 A 
ATOM      4  C   UNL     1      48.670   3.805  16.887  0.00  0.00    +0.000 A 
ATOM      5  C   UNL     1      49.670   4.609  17.452  0.00  0.00    +0.000 A 
ATOM      6  C   UNL     1      50.918   4.071  17.785  0.00  0.00    +0.000 A 
ENDROOT
BRANCH   1   7
ATOM      7  C   UNL     1      52.505   2.115  18.001  0.00  0.00    +0.000 C 
BRANCH   7   8
ATOM      8  C   UNL     1      52.763   0.731  17.398  0.00  0.00    +0.000 C 
BRANCH   8   9
ATOM      9  N   UNL     1      52.702  -0.304  18.433  0.00  0.00    +0.000 NA
ATOM     10  H   UNL     1      53.533  -0.890  18.374  0.00  0.00    +0.000 HD
ATOM     11  H   UNL     1      51.908  -0.918  18.259  0.00  0.00    +0.000 HD
ENDBRANCH   8   9
ENDBRANCH   7   8
ENDBRANCH   1   7
BRANCH   4  12
ATOM     12  C   UNL     1      47.324   4.393  16.544  0.00  0.00    +0.000 C 
BRANCH  12  13
ATOM     13  N   UNL     1      47.175   4.676  15.120  0.00  0.00    +0.000 N 
ATOM     14  N   UNL     1      46.321   3.920  14.382  0.00  0.00    +0.000 NA
ATOM     15  C   UNL     1      46.311   4.535  13.191  0.00  0.00    +0.000 A 
ATOM     16  C   UNL     1      47.121   5.682  13.168  0.00  0.00    +0.000 A 
ATOM     17  N   UNL     1      47.354   6.588  12.188  0.00  0.00    +0.000 NA
ATOM     18  C   UNL     1      48.190   7.590  12.537  0.00  0.00    +0.000 A 
ATOM     19  C   UNL     1      48.802   7.733  13.776  0.00  0.00    +0.000 A 
ATOM     20  C   UNL     1      48.559   6.794  14.774  0.00  0.00    +0.000 A 
ATOM     21  C   UNL     1      47.687   5.756  14.436  0.00  0.00    +0.000 A 
ENDBRANCH  12  13
ENDBRANCH   4  12
TORSDOF 5
ENDMDL
MODEL 9
REMARK VINA RESULT:    -5.123      2.237      3.480
REMARK INTER + INTRA:          -6.981
REMARK INTER:                  -6.458
REMARK INTRA:                  -0.523
REMARK UNBOUND:                -0.511
REMARK  Name = 
REMARK  5 active torsions:
REMARK  status: ('A' for Active; 'I' for Inactive)
REMARK    1  A    between atoms: N_1  and  C_2
REMARK    2  A    between atoms: C_2  and  C_3
REMARK    3  A    between atoms: C_3  and  C_4
REMARK    4  A    between atoms: C_7  and  C_8
REMARK    5  A    between atoms: C_8  and  N_9
REMARK                            x       y       z     vdW  Elec       q    Type
REMARK                         _______ _______ _______ _____ _____    ______ ____
ROOT
ATOM      1  C   UNL     1      44.575   4.051  10.912  0.00  0.00    +0.000 A 
ATOM      2  C   UNL     1      44.231   4.292  12.248  0.00  0.00    +0.000 A 
ATOM      3  C   UNL     1      44.631   5.470  12.885  0.00  0.00    +0.000 A 
ATOM      4  C   UNL     1      45.378   6.437  12.198  0.00  0.00    +0.000 A 
ATOM      5  C   UNL     1      45.702   6.203  10.854  0.00  0.00    +0.000 A 
ATOM      6  C   UNL     1      45.298   5.026  10.215  0.00  0.00    +0.000 A 
ENDROOT
BRANCH   1   7
ATOM      7  C   UNL     1      44.201   2.748  10.245  0.00  0.00    +0.000 C 
BRANCH   7   8
ATOM      8  C   UNL     1      44.830   2.577   8.859  0.00  0.00    +0.000 C 
BRANCH   8   9
ATOM      9  N   UNL     1      45.676   1.381   8.818  0.00  0.00    +0.000 NA
ATOM     10  H   UNL     1      45.403   0.748   9.568  0.00  0.00    +0.000 HD
ATOM     11  H   UNL     1      46.645   1.639   9.002  0.00  0.00    +0.000 HD
ENDBRANCH   8   9
ENDBRANCH   7   8
ENDBRANCH   1   7
BRANCH   4  12
ATOM     12  C   UNL     1      45.831   7.703  12.881  0.00  0.00    +0.000 C 
BRANCH  12  13
ATOM     13  N   UNL     1      47.280   7.772  13.043  0.00  0.00    +0.000 N 
ATOM     14  N   UNL     1      47.918   6.781  13.720  0.00  0.00    +0.000 NA
ATOM     15  C   UNL     1      49.214   7.070  13.545  0.00  0.00    +0.000 A 
ATOM     16  C   UNL     1      49.412   8.209  12.748  0.00  0.00    +0.000 A 
ATOM     17  N   UNL     1      50.549   8.804  12.312  0.00  0.00    +0.000 NA
ATOM     18  C   UNL     1      50.350   9.890  11.533  0.00  0.00    +0.000 A 
ATOM     19  C   UNL     1      49.112  10.412  11.179  0.00  0.00    +0.000 A 
ATOM     20  C   UNL     1      47.951   9.794  11.635  0.00  0.00    +0.000 A 
ATOM     21  C   UNL     1      48.136   8.663  12.434  0.00  0.00    +0.000 A 
ENDBRANCH  12  13
ENDBRANCH   4  12
TORSDOF 5
ENDMDL
