MODEL 1
REMARK VINA RESULT:    -7.843      0.000      0.000
REMARK INTER + INTRA:         -11.436
REMARK INTER:                 -10.823
REMARK INTRA:                  -0.613
REMARK UNBOUND:                -0.613
REMARK  Name = 
REMARK  7 active torsions:
REMARK  status: ('A' for Active; 'I' for Inactive)
REMARK    1  A    between atoms: C_2  and  C_22
REMARK    2  A    between atoms: N_3  and  C_4
REMARK    3  A    between atoms: C_4  and  C_5
REMARK    4  A    between atoms: C_8  and  C_9
REMARK    5  A    between atoms: C_9  and  C_10
REMARK    6  A    between atoms: C_10  and  O_11
REMARK    7  A    between atoms: C_10  and  C_12
REMARK                            x       y       z     vdW  Elec       q    Type
REMARK                         _______ _______ _______ _____ _____    ______ ____
ROOT
ATOM      1  C   UNL     1      46.669   7.509  13.071  0.00  0.00    +0.000 A 
ATOM      2  C   UNL     1      45.589   8.078  12.388  0.00  0.00    +0.000 A 
ATOM      3  C   UNL     1      44.735   7.290  11.613  0.00  0.00    +0.000 A 
ATOM      4  C   UNL     1      44.939   5.909  11.501  0.00  0.00    +0.000 A 
ATOM      5  C   UNL     1      46.005   5.335  12.208  0.00  0.00    +0.000 A 
ATOM      6  C   UNL     1      46.858   6.123  12.990  0.00  0.00    +0.000 A 
ENDROOT
BRANCH   1   7
ATOM      7  C   UNL     1      47.591   8.391  13.868  0.00  0.00    +0.000 C 
BRANCH   7  10
ATOM      8  O   UNL     1      49.978   7.032  14.473  0.00  0.00    +0.000 OA
ATOM      9  C   UNL     1      49.146   7.219  15.363  0.00  0.00    +0.000 C 
ATOM     10  N   UNL     1      47.938   7.824  15.139  0.00  0.00    +0.000 N 
ATOM     11  H   UNL     1      47.393   8.150  15.929  0.00  0.00    +0.000 HD
BRANCH   9  12
ATOM     12  C   UNL     1      49.380   6.760  16.727  0.00  0.00    +0.000 A 
ATOM     13  C   UNL     1      50.053   7.537  17.662  0.00  0.00    +0.000 A 
ATOM     14  S   UNL     1      50.174   6.778  19.190  0.00  0.00    +0.000 S 
ATOM     15  C   UNL     1      49.311   5.415  18.646  0.00  0.00    +0.000 A 
ATOM     16  N   UNL     1      49.036   4.369  19.471  0.00  0.00    +0.000 NA
ATOM     17  C   UNL     1      48.350   3.423  18.922  0.00  0.00    +0.000 A 
ATOM     18  N   UNL     1      47.913   3.419  17.622  0.00  0.00    +0.000 N 
ATOM     19  C   UNL     1      48.227   4.408  16.735  0.00  0.00    +0.000 A 
ATOM     20  O   UNL     1      47.945   4.293  15.545  0.00  0.00    +0.000 OA
ATOM     21  C   UNL     1      48.958   5.519  17.316  0.00  0.00    +0.000 A 
ATOM     22  H   UNL     1      47.418   2.630  17.233  0.00  0.00    +0.000 HD
ENDBRANCH   9  12
ENDBRANCH   7  10
ENDBRANCH   1   7
BRANCH   4  23
ATOM     23  C   UNL     1      44.022   5.036  10.663  0.00  0.00    +0.000 C 
BRANCH  23  24
ATOM     24  C   UNL     1      44.624   4.606   9.314  0.00  0.00    +0.000 C 
BRANCH  24  25
ATOM     25  C   UNL     1      45.128   3.128   9.355  0.00  0.00    +0.000 C 
ATOM     26  O   UNL     1      45.164   2.510  10.422  0.00  0.00    +0.000 OA
ATOM     27  N   UNL     1      45.458   2.544   8.134  0.00  0.00    +0.000 N 
ATOM     28  C   UNL     1      45.747   1.111   8.083  0.00  0.00    +0.000 C 
ATOM     29  C   UNL     1      47.205   0.867   7.710  0.00  0.00    +0.000 C 
ATOM     30  C   UNL     1      47.569   1.592   6.413  0.00  0.00    +0.000 C 
ATOM     31  C   UNL     1      47.201   3.075   6.489  0.00  0.00    +0.000 C 
ATOM     32  C   UNL     1      45.737   3.262   6.888  0.00  0.00    +0.000 C 
ENDBRANCH  24  25
BRANCH  24  33
ATOM     33  O   UNL     1      45.640   5.536   8.937  0.00  0.00    +0.000 OA
ATOM     34  H   UNL     1      46.485   5.065   8.921  0.00  0.00    +0.000 HD
ENDBRANCH  24  33
ENDBRANCH  23  24
ENDBRANCH   4  23
TORSDOF 7
ENDMDL
MODEL 2
REMARK VINA RESULT:    -7.705      2.269      2.721
REMARK INTER + INTRA:         -11.245
REMARK INTER:                 -10.695
REMARK INTRA:                  -0.550
REMARK UNBOUND:                -0.613
REMARK  Name = 
REMARK  7 active torsions:
REMARK  status: ('A' for Active; 'I' for Inactive)
REMARK    1  A    between atoms: C_2  and  C_22
REMARK    2  A    between atoms: N_3  and  C_4
REMARK    3  A    between atoms: C_4  and  C_5
REMARK    4  A    between atoms: C_8  and  C_9
REMARK    5  A    between atoms: C_9  and  C_10
REMARK    6  A    between atoms: C_10  and  O_11
REMARK    7  A    between atoms: C_10  and  C_12
REMARK                            x       y       z     vdW  Elec       q    Type
REMARK                         _______ _______ _______ _____ _____    ______ ____
ROOT
ATOM      1  C   UNL     1      48.183   7.189  14.546  0.00  0.00    +0.000 A 
ATOM      2  C   UNL     1      47.825   5.853  14.338  0.00  0.00    +0.000 A 
ATOM      3  C   UNL     1      47.131   5.468  13.189  0.00  0.00    +0.000 A 
ATOM      4  C   UNL     1      46.775   6.411  12.216  0.00  0.00    +0.000 A 
ATOM      5  C   UNL     1      47.158   7.746  12.413  0.00  0.00    +0.000 A 
ATOM      6  C   UNL     1      47.861   8.131  13.561  0.00  0.00    +0.000 A 
ENDROOT
BRANCH   1   7
ATOM      7  C   UNL     1      48.900   7.577  15.812  0.00  0.00    +0.000 C 
BRANCH   7  10
ATOM      8  O   UNL     1      49.675   6.885  18.426  0.00  0.00    +0.000 OA
ATOM      9  C   UNL     1      50.221   6.336  17.466  0.00  0.00    +0.000 C 
ATOM     10  N   UNL     1      49.938   6.654  16.165  0.00  0.00    +0.000 N 
ATOM     11  H   UNL     1      50.243   6.031  15.425  0.00  0.00    +0.000 HD
BRANCH   9  12
ATOM     12  C   UNL     1      51.253   5.324  17.661  0.00  0.00    +0.000 A 
ATOM     13  C   UNL     1      52.543   5.653  18.059  0.00  0.00    +0.000 A 
ATOM     14  S   UNL     1      53.551   4.282  18.237  0.00  0.00    +0.000 S 
ATOM     15  C   UNL     1      52.285   3.224  17.816  0.00  0.00    +0.000 A 
ATOM     16  N   UNL     1      52.461   1.876  17.788  0.00  0.00    +0.000 NA
ATOM     17  C   UNL     1      51.402   1.206  17.477  0.00  0.00    +0.000 A 
ATOM     18  N   UNL     1      50.179   1.755  17.190  0.00  0.00    +0.000 N 
ATOM     19  C   UNL     1      49.970   3.103  17.131  0.00  0.00    +0.000 A 
ATOM     20  O   UNL     1      48.903   3.553  16.723  0.00  0.00    +0.000 OA
ATOM     21  C   UNL     1      51.119   3.901  17.517  0.00  0.00    +0.000 A 
ATOM     22  H   UNL     1      49.396   1.184  16.910  0.00  0.00    +0.000 HD
ENDBRANCH   9  12
ENDBRANCH   7  10
ENDBRANCH   1   7
BRANCH   4  23
ATOM     23  C   UNL     1      46.020   6.012  10.961  0.00  0.00    +0.000 C 
BRANCH  23  24
ATOM     24  C   UNL     1      44.711   5.249  11.232  0.00  0.00    +0.000 C 
BRANCH  24  25
ATOM     25  C   UNL     1      44.843   3.735  10.868  0.00  0.00    +0.000 C 
ATOM     26  O   UNL     1      44.896   2.882  11.757  0.00  0.00    +0.000 OA
ATOM     27  N   UNL     1      44.825   3.413   9.513  0.00  0.00    +0.000 N 
ATOM     28  C   UNL     1      44.748   2.008   9.115  0.00  0.00    +0.000 C 
ATOM     29  C   UNL     1      46.026   1.576   8.405  0.00  0.00    +0.000 C 
ATOM     30  C   UNL     1      46.345   2.507   7.234  0.00  0.00    +0.000 C 
ATOM     31  C   UNL     1      46.363   3.970   7.683  0.00  0.00    +0.000 C 
ATOM     32  C   UNL     1      45.069   4.342   8.407  0.00  0.00    +0.000 C 
ENDBRANCH  24  25
BRANCH  24  33
ATOM     33  O   UNL     1      43.640   5.900  10.548  0.00  0.00    +0.000 OA
ATOM     34  H   UNL     1      43.276   5.278   9.903  0.00  0.00    +0.000 HD
ENDBRANCH  24  33
ENDBRANCH  23  24
ENDBRANCH   4  23
TORSDOF 7
ENDMDL
MODEL 3
REMARK VINA RESULT:    -7.524      2.032      2.935
REMARK INTER + INTRA:         -10.995
REMARK INTER:                  -9.978
REMARK INTRA:                  -1.017
REMARK UNBOUND:                -0.613
REMARK  Name = 
REMARK  7 active torsions:
REMARK  status: ('A' for Active; 'I' for Inactive)
REMARK    1  A    between atoms: C_2  and  C_22
REMARK    2  A    between atoms: N_3  and  C_4
REMARK    3  A    between atoms: C_4  and  C_5
REMARK    4  A    between atoms: C_8  and  C_9
REMARK    5  A    between atoms: C_9  and  C_10
REMARK    6  A    between atoms: C_10  and  O_11
REMARK    7  A    between atoms: C_10  and  C_12
REMARK                            x       y       z     vdW  Elec       q    Type
REMARK                         _______ _______ _______ _____ _____    ______ ____
ROOT
ATOM      1  C   UNL     1      47.025   5.621  13.230  0.00  0.00    +0.000 A 
ATOM      2  C   UNL     1      46.310   6.226  12.191  0.00  0.00    +0.000 A 
ATOM      3  C   UNL     1      45.373   5.503  11.449  0.00  0.00    +0.000 A 
ATOM      4  C   UNL     1      45.126   4.153  11.727  0.00  0.00    +0.000 A 
ATOM      5  C   UNL     1      45.823   3.554  12.787  0.00  0.00    +0.000 A 
ATOM      6  C   UNL     1      46.757   4.280  13.536  0.00  0.00    +0.000 A 
ENDROOT
BRANCH   1   7
ATOM      7  C   UNL     1      48.053   6.418  13.987  0.00  0.00    +0.000 C 
BRANCH   7  10
ATOM      8  O   UNL     1      50.133   6.272  15.874  0.00  0.00    +0.000 OA
ATOM      9  C   UNL     1      48.964   6.300  16.263  0.00  0.00    +0.000 C 
ATOM     10  N   UNL     1      47.894   6.317  15.408  0.00  0.00    +0.000 N 
ATOM     11  H   UNL     1      46.978   6.561  15.767  0.00  0.00    +0.000 HD
BRANCH   9  12
ATOM     12  C   UNL     1      48.639   6.271  17.684  0.00  0.00    +0.000 A 
ATOM     13  C   UNL     1      48.782   5.121  18.451  0.00  0.00    +0.000 A 
ATOM     14  S   UNL     1      48.356   5.361  20.090  0.00  0.00    +0.000 S 
ATOM     15  C   UNL     1      47.999   7.004  19.818  0.00  0.00    +0.000 A 
ATOM     16  N   UNL     1      47.587   7.820  20.824  0.00  0.00    +0.000 NA
ATOM     17  C   UNL     1      47.383   9.044  20.467  0.00  0.00    +0.000 A 
ATOM     18  N   UNL     1      47.550   9.533  19.197  0.00  0.00    +0.000 N 
ATOM     19  C   UNL     1      47.888   8.739  18.139  0.00  0.00    +0.000 A 
ATOM     20  O   UNL     1      47.879   9.185  16.995  0.00  0.00    +0.000 OA
ATOM     21  C   UNL     1      48.175   7.362  18.496  0.00  0.00    +0.000 A 
ATOM     22  H   UNL     1      47.332  10.491  18.966  0.00  0.00    +0.000 HD
ENDBRANCH   9  12
ENDBRANCH   7  10
ENDBRANCH   1   7
BRANCH   4  23
ATOM     23  C   UNL     1      44.113   3.350  10.932  0.00  0.00    +0.000 C 
BRANCH  23  24
ATOM     24  C   UNL     1      44.729   2.499   9.807  0.00  0.00    +0.000 C 
BRANCH  24  25
ATOM     25  C   UNL     1      45.102   3.373   8.565  0.00  0.00    +0.000 C 
ATOM     26  O   UNL     1      44.394   4.329   8.240  0.00  0.00    +0.000 OA
ATOM     27  N   UNL     1      46.290   3.056   7.911  0.00  0.00    +0.000 N 
ATOM     28  C   UNL     1      46.791   3.952   6.870  0.00  0.00    +0.000 C 
ATOM     29  C   UNL     1      46.767   3.265   5.508  0.00  0.00    +0.000 C 
ATOM     30  C   UNL     1      47.513   1.931   5.553  0.00  0.00    +0.000 C 
ATOM     31  C   UNL     1      46.995   1.047   6.689  0.00  0.00    +0.000 C 
ATOM     32  C   UNL     1      47.020   1.792   8.025  0.00  0.00    +0.000 C 
ENDBRANCH  24  25
BRANCH  24  33
ATOM     33  O   UNL     1      43.842   1.426   9.492  0.00  0.00    +0.000 OA
ATOM     34  H   UNL     1      44.309   0.816   8.904  0.00  0.00    +0.000 HD
ENDBRANCH  24  33
ENDBRANCH  23  24
ENDBRANCH   4  23
TORSDOF 7
ENDMDL
MODEL 4
REMARK VINA RESULT:    -7.145      2.839      8.625
REMARK INTER + INTRA:         -10.472
REMARK INTER:                  -9.337
REMARK INTRA:                  -1.136
REMARK UNBOUND:                -0.613
REMARK  Name = 
REMARK  7 active torsions:
REMARK  status: ('A' for Active; 'I' for Inactive)
REMARK    1  A    between atoms: C_2  and  C_22
REMARK    2  A    between atoms: N_3  and  C_4
REMARK    3  A    between atoms: C_4  and  C_5
REMARK    4  A    between atoms: C_8  and  C_9
REMARK    5  A    between atoms: C_9  and  C_10
REMARK    6  A    between atoms: C_10  and  O_11
REMARK    7  A    between atoms: C_10  and  C_12
REMARK                            x       y       z     vdW  Elec       q    Type
REMARK                         _______ _______ _______ _____ _____    ______ ____
ROOT
ATOM      1  C   UNL     1      48.328   8.022  13.328  0.00  0.00    +0.000 A 
ATOM      2  C   UNL     1      49.557   7.463  13.695  0.00  0.00    +0.000 A 
ATOM      3  C   UNL     1      50.106   7.703  14.956  0.00  0.00    +0.000 A 
ATOM      4  C   UNL     1      49.439   8.511  15.886  0.00  0.00    +0.000 A 
ATOM      5  C   UNL     1      48.195   9.049  15.528  0.00  0.00    +0.000 A 
ATOM      6  C   UNL     1      47.640   8.803  14.266  0.00  0.00    +0.000 A 
ENDROOT
BRANCH   1   7
ATOM      7  C   UNL     1      47.780   7.772  11.948  0.00  0.00    +0.000 C 
BRANCH   7  10
ATOM      8  O   UNL     1      44.982   7.626  11.707  0.00  0.00    +0.000 OA
ATOM      9  C   UNL     1      45.645   6.587  11.705  0.00  0.00    +0.000 C 
ATOM     10  N   UNL     1      47.004   6.570  11.870  0.00  0.00    +0.000 N 
ATOM     11  H   UNL     1      47.521   5.728  11.641  0.00  0.00    +0.000 HD
BRANCH   9  12
ATOM     12  C   UNL     1      45.007   5.283  11.566  0.00  0.00    +0.000 A 
ATOM     13  C   UNL     1      44.299   4.693  12.607  0.00  0.00    +0.000 A 
ATOM     14  S   UNL     1      43.631   3.178  12.178  0.00  0.00    +0.000 S 
ATOM     15  C   UNL     1      44.247   3.290  10.594  0.00  0.00    +0.000 A 
ATOM     16  N   UNL     1      44.022   2.316   9.672  0.00  0.00    +0.000 NA
ATOM     17  C   UNL     1      44.529   2.556   8.509  0.00  0.00    +0.000 A 
ATOM     18  N   UNL     1      45.243   3.679   8.177  0.00  0.00    +0.000 N 
ATOM     19  C   UNL     1      45.559   4.648   9.086  0.00  0.00    +0.000 A 
ATOM     20  O   UNL     1      46.326   5.559   8.787  0.00  0.00    +0.000 OA
ATOM     21  C   UNL     1      44.972   4.447  10.398  0.00  0.00    +0.000 A 
ATOM     22  H   UNL     1      45.654   3.793   7.263  0.00  0.00    +0.000 HD
ENDBRANCH   9  12
ENDBRANCH   7  10
ENDBRANCH   1   7
BRANCH   4  23
ATOM     23  C   UNL     1      50.021   8.784  17.261  0.00  0.00    +0.000 C 
BRANCH  23  24
ATOM     24  C   UNL     1      50.127   7.538  18.158  0.00  0.00    +0.000 C 
BRANCH  24  25
ATOM     25  C   UNL     1      48.859   6.632  18.033  0.00  0.00    +0.000 C 
ATOM     26  O   UNL     1      47.776   7.008  18.488  0.00  0.00    +0.000 OA
ATOM     27  N   UNL     1      49.009   5.438  17.333  0.00  0.00    +0.000 N 
ATOM     28  C   UNL     1      47.823   4.644  17.014  0.00  0.00    +0.000 C 
ATOM     29  C   UNL     1      47.851   3.310  17.752  0.00  0.00    +0.000 C 
ATOM     30  C   UNL     1      49.157   2.561  17.483  0.00  0.00    +0.000 C 
ATOM     31  C   UNL     1      50.370   3.444  17.778  0.00  0.00    +0.000 C 
ATOM     32  C   UNL     1      50.280   4.775  17.030  0.00  0.00    +0.000 C 
ENDBRANCH  24  25
BRANCH  24  33
ATOM     33  O   UNL     1      50.396   7.946  19.499  0.00  0.00    +0.000 OA
ATOM     34  H   UNL     1      49.597   8.365  19.849  0.00  0.00    +0.000 HD
ENDBRANCH  24  33
ENDBRANCH  23  24
ENDBRANCH   4  23
TORSDOF 7
ENDMDL
MODEL 5
REMARK VINA RESULT:    -7.110      1.515      2.134
REMARK INTER + INTRA:         -10.425
REMARK INTER:                  -9.053
REMARK INTRA:                  -1.371
REMARK UNBOUND:                -0.613
REMARK  Name = 
REMARK  7 active torsions:
REMARK  status: ('A' for Active; 'I' for Inactive)
REMARK    1  A    between atoms: C_2  and  C_22
REMARK    2  A    between atoms: N_3  and  C_4
REMARK    3  A    between atoms: C_4  and  C_5
REMARK    4  A    between atoms: C_8  and  C_9
REMARK    5  A    between atoms: C_9  and  C_10
REMARK    6  A    between atoms: C_10  and  O_11
REMARK    7  A    between atoms: C_10  and  C_12
REMARK                            x       y       z     vdW  Elec       q    Type
REMARK                         _______ _______ _______ _____ _____    ______ ____
ROOT
ATOM      1  C   UNL     1      47.428   6.370  13.493  0.00  0.00    +0.000 A 
ATOM      2  C   UNL     1      46.275   7.092  13.168  0.00  0.00    +0.000 A 
ATOM      3  C   UNL     1      45.065   6.439  12.923  0.00  0.00    +0.000 A 
ATOM      4  C   UNL     1      44.976   5.043  12.996  0.00  0.00    +0.000 A 
ATOM      5  C   UNL     1      46.126   4.322  13.348  0.00  0.00    +0.000 A 
ATOM      6  C   UNL     1      47.338   4.976  13.601  0.00  0.00    +0.000 A 
ENDROOT
BRANCH   1   7
ATOM      7  C   UNL     1      48.725   7.102  13.716  0.00  0.00    +0.000 C 
BRANCH   7  10
ATOM      8  O   UNL     1      48.197   8.782  15.910  0.00  0.00    +0.000 OA
ATOM      9  C   UNL     1      48.887   7.773  16.071  0.00  0.00    +0.000 C 
ATOM     10  N   UNL     1      49.233   6.934  15.046  0.00  0.00    +0.000 N 
ATOM     11  H   UNL     1      49.605   6.016  15.261  0.00  0.00    +0.000 HD
BRANCH   9  12
ATOM     12  C   UNL     1      49.424   7.427  17.382  0.00  0.00    +0.000 A 
ATOM     13  C   UNL     1      50.362   8.222  18.029  0.00  0.00    +0.000 A 
ATOM     14  S   UNL     1      50.811   7.607  19.560  0.00  0.00    +0.000 S 
ATOM     15  C   UNL     1      49.747   6.285  19.404  0.00  0.00    +0.000 A 
ATOM     16  N   UNL     1      49.617   5.355  20.388  0.00  0.00    +0.000 NA
ATOM     17  C   UNL     1      48.752   4.430  20.135  0.00  0.00    +0.000 A 
ATOM     18  N   UNL     1      48.003   4.343  18.989  0.00  0.00    +0.000 N 
ATOM     19  C   UNL     1      48.152   5.207  17.944  0.00  0.00    +0.000 A 
ATOM     20  O   UNL     1      47.573   5.006  16.879  0.00  0.00    +0.000 OA
ATOM     21  C   UNL     1      49.079   6.294  18.196  0.00  0.00    +0.000 A 
ATOM     22  H   UNL     1      47.374   3.571  18.827  0.00  0.00    +0.000 HD
ENDBRANCH   9  12
ENDBRANCH   7  10
ENDBRANCH   1   7
BRANCH   4  23
ATOM     23  C   UNL     1      43.671   4.315  12.733  0.00  0.00    +0.000 C 
BRANCH  23  24
ATOM     24  C   UNL     1      43.727   3.333  11.549  0.00  0.00    +0.000 C 
BRANCH  24  25
ATOM     25  C   UNL     1      44.066   4.066  10.211  0.00  0.00    +0.000 C 
ATOM     26  O   UNL     1      43.382   5.019   9.830  0.00  0.00    +0.000 OA
ATOM     27  N   UNL     1      45.202   3.634   9.530  0.00  0.00    +0.000 N 
ATOM     28  C   UNL     1      45.681   4.402   8.382  0.00  0.00    +0.000 C 
ATOM     29  C   UNL     1      45.552   3.591   7.097  0.00  0.00    +0.000 C 
ATOM     30  C   UNL     1      46.243   2.233   7.233  0.00  0.00    +0.000 C 
ATOM     31  C   UNL     1      45.753   1.487   8.475  0.00  0.00    +0.000 C 
ATOM     32  C   UNL     1      45.885   2.353   9.729  0.00  0.00    +0.000 C 
ENDBRANCH  24  25
BRANCH  24  33
ATOM     33  O   UNL     1      42.506   2.597  11.493  0.00  0.00    +0.000 OA
ATOM     34  H   UNL     1      41.849   3.068  12.024  0.00  0.00    +0.000 HD
ENDBRANCH  24  33
ENDBRANCH  23  24
ENDBRANCH   4  23
TORSDOF 7
ENDMDL
MODEL 6
REMARK VINA RESULT:    -7.097      3.315      4.396
REMARK INTER + INTRA:         -10.406
REMARK INTER:                 -10.002
REMARK INTRA:                  -0.405
REMARK UNBOUND:                -0.613
REMARK  Name = 
REMARK  7 active torsions:
REMARK  status: ('A' for Active; 'I' for Inactive)
REMARK    1  A    between atoms: C_2  and  C_22
REMARK    2  A    between atoms: N_3  and  C_4
REMARK    3  A    between atoms: C_4  and  C_5
REMARK    4  A    between atoms: C_8  and  C_9
REMARK    5  A    between atoms: C_9  and  C_10
REMARK    6  A    between atoms: C_10  and  O_11
REMARK    7  A    between atoms: C_10  and  C_12
REMARK                            x       y       z     vdW  Elec       q    Type
REMARK                         _______ _______ _______ _____ _____    ______ ____
ROOT
ATOM      1  C   UNL     1      48.663   5.751  16.510  0.00  0.00    +0.000 A 
ATOM      2  C   UNL     1      47.817   4.691  16.169  0.00  0.00    +0.000 A 
ATOM      3  C   UNL     1      47.173   4.658  14.931  0.00  0.00    +0.000 A 
ATOM      4  C   UNL     1      47.358   5.687  13.998  0.00  0.00    +0.000 A 
ATOM      5  C   UNL     1      48.228   6.736  14.330  0.00  0.00    +0.000 A 
ATOM      6  C   UNL     1      48.880   6.766  15.569  0.00  0.00    +0.000 A 
ENDROOT
BRANCH   1   7
ATOM      7  C   UNL     1      49.314   5.775  17.867  0.00  0.00    +0.000 C 
BRANCH   7  10
ATOM      8  O   UNL     1      50.721   4.958  20.162  0.00  0.00    +0.000 OA
ATOM      9  C   UNL     1      51.179   4.700  19.047  0.00  0.00    +0.000 C 
ATOM     10  N   UNL     1      50.584   5.108  17.883  0.00  0.00    +0.000 N 
ATOM     11  H   UNL     1      50.871   4.689  17.006  0.00  0.00    +0.000 HD
BRANCH   9  12
ATOM     12  C   UNL     1      52.431   3.968  18.895  0.00  0.00    +0.000 A 
ATOM     13  C   UNL     1      53.629   4.436  19.422  0.00  0.00    +0.000 A 
ATOM     14  S   UNL     1      54.941   3.380  19.124  0.00  0.00    +0.000 S 
ATOM     15  C   UNL     1      53.938   2.268  18.313  0.00  0.00    +0.000 A 
ATOM     16  N   UNL     1      54.427   1.105  17.806  0.00  0.00    +0.000 NA
ATOM     17  C   UNL     1      53.539   0.354  17.244  0.00  0.00    +0.000 A 
ATOM     18  N   UNL     1      52.205   0.655  17.137  0.00  0.00    +0.000 N 
ATOM     19  C   UNL     1      51.681   1.841  17.562  0.00  0.00    +0.000 A 
ATOM     20  O   UNL     1      50.515   2.134  17.312  0.00  0.00    +0.000 OA
ATOM     21  C   UNL     1      52.629   2.702  18.244  0.00  0.00    +0.000 A 
ATOM     22  H   UNL     1      51.565   0.049  16.647  0.00  0.00    +0.000 HD
ENDBRANCH   9  12
ENDBRANCH   7  10
ENDBRANCH   1   7
BRANCH   4  23
ATOM     23  C   UNL     1      46.666   5.669  12.648  0.00  0.00    +0.000 C 
BRANCH  23  24
ATOM     24  C   UNL     1      45.190   5.236  12.704  0.00  0.00    +0.000 C 
BRANCH  24  25
ATOM     25  C   UNL     1      44.974   3.843  12.030  0.00  0.00    +0.000 C 
ATOM     26  O   UNL     1      45.072   2.808  12.693  0.00  0.00    +0.000 OA
ATOM     27  N   UNL     1      44.604   3.847  10.688  0.00  0.00    +0.000 N 
ATOM     28  C   UNL     1      44.199   2.592  10.055  0.00  0.00    +0.000 C 
ATOM     29  C   UNL     1      45.196   2.184   8.976  0.00  0.00    +0.000 C 
ATOM     30  C   UNL     1      45.408   3.315   7.968  0.00  0.00    +0.000 C 
ATOM     31  C   UNL     1      45.777   4.620   8.674  0.00  0.00    +0.000 C 
ATOM     32  C   UNL     1      44.758   4.970   9.759  0.00  0.00    +0.000 C 
ENDBRANCH  24  25
BRANCH  24  33
ATOM     33  O   UNL     1      44.378   6.265  12.138  0.00  0.00    +0.000 OA
ATOM     34  H   UNL     1      44.419   7.034  12.725  0.00  0.00    +0.000 HD
ENDBRANCH  24  33
ENDBRANCH  23  24
ENDBRANCH   4  23
TORSDOF 7
ENDMDL
MODEL 7
REMARK VINA RESULT:    -7.067      3.011      9.657
REMARK INTER + INTRA:         -10.366
REMARK INTER:                  -9.538
REMARK INTRA:                  -0.828
REMARK UNBOUND:                -0.613
REMARK  Name = 
REMARK  7 active torsions:
REMARK  status: ('A' for Active; 'I' for Inactive)
REMARK    1  A    between atoms: C_2  and  C_22
REMARK    2  A    between atoms: N_3  and  C_4
REMARK    3  A    between atoms: C_4  and  C_5
REMARK    4  A    between atoms: C_8  and  C_9
REMARK    5  A    between atoms: C_9  and  C_10
REMARK    6  A    between atoms: C_10  and  O_11
REMARK    7  A    between atoms: C_10  and  C_12
REMARK                            x       y       z     vdW  Elec       q    Type
REMARK                         _______ _______ _______ _____ _____    ______ ____
ROOT
ATOM      1  C   UNL     1      45.264   4.694  12.421  0.00  0.00    +0.000 A 
ATOM      2  C   UNL     1      46.132   4.249  13.423  0.00  0.00    +0.000 A 
ATOM      3  C   UNL     1      47.068   5.112  13.996  0.00  0.00    +0.000 A 
ATOM      4  C   UNL     1      47.162   6.447  13.581  0.00  0.00    +0.000 A 
ATOM      5  C   UNL     1      46.272   6.900  12.596  0.00  0.00    +0.000 A 
ATOM      6  C   UNL     1      45.328   6.037  12.026  0.00  0.00    +0.000 A 
ENDROOT
BRANCH   1   7
ATOM      7  C   UNL     1      44.290   3.729  11.800  0.00  0.00    +0.000 C 
BRANCH   7  10
ATOM      8  O   UNL     1      44.099   3.970   9.004  0.00  0.00    +0.000 OA
ATOM      9  C   UNL     1      44.802   3.081   9.489  0.00  0.00    +0.000 C 
ATOM     10  N   UNL     1      44.906   2.864  10.837  0.00  0.00    +0.000 N 
ATOM     11  H   UNL     1      45.655   2.278  11.188  0.00  0.00    +0.000 HD
BRANCH   9  12
ATOM     12  C   UNL     1      45.547   2.159   8.640  0.00  0.00    +0.000 A 
ATOM     13  C   UNL     1      45.414   0.780   8.752  0.00  0.00    +0.000 A 
ATOM     14  S   UNL     1      46.379  -0.073   7.626  0.00  0.00    +0.000 S 
ATOM     15  C   UNL     1      46.972   1.374   6.950  0.00  0.00    +0.000 A 
ATOM     16  N   UNL     1      47.846   1.369   5.908  0.00  0.00    +0.000 NA
ATOM     17  C   UNL     1      48.181   2.543   5.489  0.00  0.00    +0.000 A 
ATOM     18  N   UNL     1      47.728   3.726   6.013  0.00  0.00    +0.000 N 
ATOM     19  C   UNL     1      46.911   3.785   7.104  0.00  0.00    +0.000 A 
ATOM     20  O   UNL     1      46.651   4.862   7.633  0.00  0.00    +0.000 OA
ATOM     21  C   UNL     1      46.466   2.491   7.586  0.00  0.00    +0.000 A 
ATOM     22  H   UNL     1      48.060   4.616   5.672  0.00  0.00    +0.000 HD
ENDBRANCH   9  12
ENDBRANCH   7  10
ENDBRANCH   1   7
BRANCH   4  23
ATOM     23  C   UNL     1      48.173   7.400  14.191  0.00  0.00    +0.000 C 
BRANCH  23  24
ATOM     24  C   UNL     1      49.149   6.733  15.177  0.00  0.00    +0.000 C 
BRANCH  24  25
ATOM     25  C   UNL     1      48.856   7.159  16.652  0.00  0.00    +0.000 C 
ATOM     26  O   UNL     1      48.987   8.335  16.999  0.00  0.00    +0.000 OA
ATOM     27  N   UNL     1      48.380   6.169  17.507  0.00  0.00    +0.000 N 
ATOM     28  C   UNL     1      47.903   6.544  18.838  0.00  0.00    +0.000 C 
ATOM     29  C   UNL     1      48.803   5.957  19.920  0.00  0.00    +0.000 C 
ATOM     30  C   UNL     1      48.953   4.445  19.748  0.00  0.00    +0.000 C 
ATOM     31  C   UNL     1      49.401   4.093  18.328  0.00  0.00    +0.000 C 
ATOM     32  C   UNL     1      48.478   4.724  17.285  0.00  0.00    +0.000 C 
ENDBRANCH  24  25
BRANCH  24  33
ATOM     33  O   UNL     1      50.489   7.008  14.768  0.00  0.00    +0.000 OA
ATOM     34  H   UNL     1      51.018   7.158  15.564  0.00  0.00    +0.000 HD
ENDBRANCH  24  33
ENDBRANCH  23  24
ENDBRANCH   4  23
TORSDOF 7
ENDMDL
MODEL 8
REMARK VINA RESULT:    -6.761      3.649      8.181
REMARK INTER + INTRA:          -9.943
REMARK INTER:                  -8.436
REMARK INTRA:                  -1.507
REMARK UNBOUND:                -0.613
REMARK  Name = 
REMARK  7 active torsions:
REMARK  status: ('A' for Active; 'I' for Inactive)
REMARK    1  A    between atoms: C_2  and  C_22
REMARK    2  A    between atoms: N_3  and  C_4
REMARK    3  A    between atoms: C_4  and  C_5
REMARK    4  A    between atoms: C_8  and  C_9
REMARK    5  A    between atoms: C_9  and  C_10
REMARK    6  A    between atoms: C_10  and  O_11
REMARK    7  A    between atoms: C_10  and  C_12
REMARK                            x       y       z     vdW  Elec       q    Type
REMARK                         _______ _______ _______ _____ _____    ______ ____
ROOT
ATOM      1  C   UNL     1      48.705   9.129  15.716  0.00  0.00    +0.000 A 
ATOM      2  C   UNL     1      49.911   8.436  15.864  0.00  0.00    +0.000 A 
ATOM      3  C   UNL     1      50.330   7.987  17.118  0.00  0.00    +0.000 A 
ATOM      4  C   UNL     1      49.553   8.219  18.260  0.00  0.00    +0.000 A 
ATOM      5  C   UNL     1      48.331   8.890  18.107  0.00  0.00    +0.000 A 
ATOM      6  C   UNL     1      47.906   9.335  16.848  0.00  0.00    +0.000 A 
ENDROOT
BRANCH   1   7
ATOM      7  C   UNL     1      48.299   9.630  14.356  0.00  0.00    +0.000 C 
BRANCH   7  10
ATOM      8  O   UNL     1      48.514   7.683  12.337  0.00  0.00    +0.000 OA
ATOM      9  C   UNL     1      47.413   7.914  12.842  0.00  0.00    +0.000 C 
ATOM     10  N   UNL     1      47.215   8.881  13.791  0.00  0.00    +0.000 N 
ATOM     11  H   UNL     1      46.354   8.880  14.327  0.00  0.00    +0.000 HD
BRANCH   9  12
ATOM     12  C   UNL     1      46.221   7.186  12.421  0.00  0.00    +0.000 A 
ATOM     13  C   UNL     1      45.190   7.801  11.722  0.00  0.00    +0.000 A 
ATOM     14  S   UNL     1      43.921   6.723  11.328  0.00  0.00    +0.000 S 
ATOM     15  C   UNL     1      44.731   5.413  12.055  0.00  0.00    +0.000 A 
ATOM     16  N   UNL     1      44.201   4.160  12.060  0.00  0.00    +0.000 NA
ATOM     17  C   UNL     1      44.946   3.269  12.624  0.00  0.00    +0.000 A 
ATOM     18  N   UNL     1      46.173   3.508  13.188  0.00  0.00    +0.000 N 
ATOM     19  C   UNL     1      46.713   4.759  13.275  0.00  0.00    +0.000 A 
ATOM     20  O   UNL     1      47.740   4.952  13.919  0.00  0.00    +0.000 OA
ATOM     21  C   UNL     1      45.936   5.791  12.613  0.00  0.00    +0.000 A 
ATOM     22  H   UNL     1      46.691   2.780  13.655  0.00  0.00    +0.000 HD
ENDBRANCH   9  12
ENDBRANCH   7  10
ENDBRANCH   1   7
BRANCH   4  23
ATOM     23  C   UNL     1      49.992   7.740  19.631  0.00  0.00    +0.000 C 
BRANCH  23  24
ATOM     24  C   UNL     1      50.006   6.209  19.787  0.00  0.00    +0.000 C 
BRANCH  24  25
ATOM     25  C   UNL     1      48.668   5.569  19.295  0.00  0.00    +0.000 C 
ATOM     26  O   UNL     1      47.627   5.727  19.939  0.00  0.00    +0.000 OA
ATOM     27  N   UNL     1      48.707   4.890  18.081  0.00  0.00    +0.000 N 
ATOM     28  C   UNL     1      47.455   4.440  17.473  0.00  0.00    +0.000 C 
ATOM     29  C   UNL     1      47.389   2.917  17.435  0.00  0.00    +0.000 C 
ATOM     30  C   UNL     1      48.624   2.331  16.750  0.00  0.00    +0.000 C 
ATOM     31  C   UNL     1      49.911   2.868  17.380  0.00  0.00    +0.000 C 
ATOM     32  C   UNL     1      49.914   4.397  17.413  0.00  0.00    +0.000 C 
ENDBRANCH  24  25
BRANCH  24  33
ATOM     33  O   UNL     1      50.324   5.878  21.139  0.00  0.00    +0.000 OA
ATOM     34  H   UNL     1      49.563   6.111  21.689  0.00  0.00    +0.000 HD
ENDBRANCH  24  33
ENDBRANCH  23  24
ENDBRANCH   4  23
TORSDOF 7
ENDMDL
MODEL 9
REMARK VINA RESULT:    -6.715      1.533      2.048
REMARK INTER + INTRA:          -9.880
REMARK INTER:                  -9.675
REMARK INTRA:                  -0.204
REMARK UNBOUND:                -0.613
REMARK  Name = 
REMARK  7 active torsions:
REMARK  status: ('A' for Active; 'I' for Inactive)
REMARK    1  A    between atoms: C_2  and  C_22
REMARK    2  A    between atoms: N_3  and  C_4
REMARK    3  A    between atoms: C_4  and  C_5
REMARK    4  A    between atoms: C_8  and  C_9
REMARK    5  A    between atoms: C_9  and  C_10
REMARK    6  A    between atoms: C_10  and  O_11
REMARK    7  A    between atoms: C_10  and  C_12
REMARK                            x       y       z     vdW  Elec       q    Type
REMARK                         _______ _______ _______ _____ _____    ______ ____
ROOT
ATOM      1  C   UNL     1      47.902   7.519  13.394  0.00  0.00    +0.000 A 
ATOM      2  C   UNL     1      47.583   6.157  13.408  0.00  0.00    +0.000 A 
ATOM      3  C   UNL     1      46.453   5.678  12.741  0.00  0.00    +0.000 A 
ATOM      4  C   UNL     1      45.610   6.551  12.042  0.00  0.00    +0.000 A 
ATOM      5  C   UNL     1      45.945   7.912  12.006  0.00  0.00    +0.000 A 
ATOM      6  C   UNL     1      47.082   8.392  12.668  0.00  0.00    +0.000 A 
ENDROOT
BRANCH   1   7
ATOM      7  C   UNL     1      49.107   8.007  14.152  0.00  0.00    +0.000 C 
BRANCH   7  10
ATOM      8  O   UNL     1      51.355   7.074  15.561  0.00  0.00    +0.000 OA
ATOM      9  C   UNL     1      50.273   7.169  16.142  0.00  0.00    +0.000 C 
ATOM     10  N   UNL     1      49.121   7.564  15.515  0.00  0.00    +0.000 N 
ATOM     11  H   UNL     1      48.320   7.837  16.074  0.00  0.00    +0.000 HD
BRANCH   9  12
ATOM     12  C   UNL     1      50.138   6.819  17.552  0.00  0.00    +0.000 A 
ATOM     13  C   UNL     1      50.667   7.610  18.563  0.00  0.00    +0.000 A 
ATOM     14  S   UNL     1      50.350   6.990  20.126  0.00  0.00    +0.000 S 
ATOM     15  C   UNL     1      49.480   5.672  19.488  0.00  0.00    +0.000 A 
ATOM     16  N   UNL     1      48.905   4.740  20.295  0.00  0.00    +0.000 NA
ATOM     17  C   UNL     1      48.256   3.818  19.666  0.00  0.00    +0.000 A 
ATOM     18  N   UNL     1      48.127   3.735  18.303  0.00  0.00    +0.000 N 
ATOM     19  C   UNL     1      48.747   4.601  17.449  0.00  0.00    +0.000 A 
ATOM     20  O   UNL     1      48.730   4.404  16.238  0.00  0.00    +0.000 OA
ATOM     21  C   UNL     1      49.451   5.685  18.108  0.00  0.00    +0.000 A 
ATOM     22  H   UNL     1      47.645   2.966  17.864  0.00  0.00    +0.000 HD
ENDBRANCH   9  12
ENDBRANCH   7  10
ENDBRANCH   1   7
BRANCH   4  23
ATOM     23  C   UNL     1      44.377   6.049  11.312  0.00  0.00    +0.000 C 
BRANCH  23  24
ATOM     24  C   UNL     1      43.637   4.912  12.038  0.00  0.00    +0.000 C 
BRANCH  24  25
ATOM     25  C   UNL     1      44.078   3.510  11.509  0.00  0.00    +0.000 C 
ATOM     26  O   UNL     1      44.299   2.586  12.296  0.00  0.00    +0.000 OA
ATOM     27  N   UNL     1      44.135   3.352  10.126  0.00  0.00    +0.000 N 
ATOM     28  C   UNL     1      44.350   2.017   9.569  0.00  0.00    +0.000 C 
ATOM     29  C   UNL     1      45.694   1.940   8.853  0.00  0.00    +0.000 C 
ATOM     30  C   UNL     1      45.822   3.047   7.806  0.00  0.00    +0.000 C 
ATOM     31  C   UNL     1      45.538   4.420   8.418  0.00  0.00    +0.000 C 
ATOM     32  C   UNL     1      44.190   4.434   9.141  0.00  0.00    +0.000 C 
ENDBRANCH  24  25
BRANCH  24  33
ATOM     33  O   UNL     1      42.230   5.132  11.940  0.00  0.00    +0.000 OA
ATOM     34  H   UNL     1      41.852   4.415  11.411  0.00  0.00    +0.000 HD
ENDBRANCH  24  33
ENDBRANCH  23  24
ENDBRANCH   4  23
TORSDOF 7
ENDMDL
