MODEL 1
REMARK VINA RESULT:    -7.662      0.000      0.000
REMARK INTER + INTRA:         -13.547
REMARK INTER:                 -11.918
REMARK INTRA:                  -1.629
REMARK UNBOUND:                -1.629
REMARK  Name = 
REMARK  11 active torsions:
REMARK  status: ('A' for Active; 'I' for Inactive)
REMARK    1  A    between atoms: C_1  and  C_2
REMARK    2  A    between atoms: C_2  and  N_3
REMARK    3  A    between atoms: C_2  and  C_16
REMARK    4  A    between atoms: C_4  and  C_6
REMARK    5  A    between atoms: C_19  and  C_20
REMARK    6  A    between atoms: C_20  and  N_21
REMARK    7  A    between atoms: N_21  and  C_22
REMARK    8  A    between atoms: N_21  and  C_25
REMARK    9  A    between atoms: C_22  and  C_23
REMARK   10  A    between atoms: C_23  and  O_24
REMARK   11  A    between atoms: C_25  and  C_26
REMARK                            x       y       z     vdW  Elec       q    Type
REMARK                         _______ _______ _______ _____ _____    ______ ____
ROOT
ATOM      1  C   UNL     1      47.318   7.646  13.066  0.00  0.00    +0.000 A 
ATOM      2  C   UNL     1      47.442   6.384  12.466  0.00  0.00    +0.000 A 
ATOM      3  C   UNL     1      46.393   5.835  11.731  0.00  0.00    +0.000 A 
ATOM      4  C   UNL     1      45.176   6.514  11.612  0.00  0.00    +0.000 A 
ATOM      5  C   UNL     1      45.062   7.799  12.157  0.00  0.00    +0.000 A 
ATOM      6  C   UNL     1      46.128   8.365  12.865  0.00  0.00    +0.000 A 
ENDROOT
BRANCH   1   8
ATOM      7  C   UNL     1      48.332   9.718  13.984  0.00  0.00    +0.000 C 
ATOM      8  C   UNL     1      48.502   8.204  13.846  0.00  0.00    +0.000 C 
BRANCH   8   9
ATOM      9  N   UNL     1      48.666   7.543  15.131  0.00  0.00    +0.000 N 
ATOM     10  C   UNL     1      49.898   7.161  15.607  0.00  0.00    +0.000 C 
ATOM     11  O   UNL     1      50.945   7.385  15.009  0.00  0.00    +0.000 OA
ATOM     12  H   UNL     1      47.864   7.016  15.461  0.00  0.00    +0.000 HD
BRANCH  10  13
ATOM     13  C   UNL     1      49.906   6.520  16.927  0.00  0.00    +0.000 A 
ATOM     14  C   UNL     1      50.690   7.050  17.943  0.00  0.00    +0.000 A 
ATOM     15  S   UNL     1      50.563   6.196  19.414  0.00  0.00    +0.000 S 
ATOM     16  C   UNL     1      49.490   5.066  18.727  0.00  0.00    +0.000 A 
ATOM     17  N   UNL     1      49.012   4.022  19.456  0.00  0.00    +0.000 NA
ATOM     18  C   UNL     1      48.228   3.231  18.802  0.00  0.00    +0.000 A 
ATOM     19  N   UNL     1      47.873   3.394  17.485  0.00  0.00    +0.000 N 
ATOM     20  C   UNL     1      48.305   4.449  16.725  0.00  0.00    +0.000 A 
ATOM     21  O   UNL     1      47.923   4.606  15.568  0.00  0.00    +0.000 OA
ATOM     22  C   UNL     1      49.209   5.356  17.406  0.00  0.00    +0.000 A 
ATOM     23  H   UNL     1      47.240   2.748  17.038  0.00  0.00    +0.000 HD
ENDBRANCH  10  13
ENDBRANCH   8   9
ENDBRANCH   1   8
BRANCH   4  24
ATOM     24  C   UNL     1      43.996   5.839  10.942  0.00  0.00    +0.000 C 
BRANCH  24  25
ATOM     25  N   UNL     1      44.283   4.434  10.538  0.00  0.00    +0.000 NA
BRANCH  25  26
ATOM     26  C   UNL     1      43.307   3.502  11.155  0.00  0.00    +0.000 C 
BRANCH  26  27
ATOM     27  C   UNL     1      43.738   2.898  12.505  0.00  0.00    +0.000 C 
BRANCH  27  28
ATOM     28  O   UNL     1      45.146   2.668  12.525  0.00  0.00    +0.000 OA
ATOM     29  H   UNL     1      45.451   2.687  11.601  0.00  0.00    +0.000 HD
ENDBRANCH  27  28
ENDBRANCH  26  27
ENDBRANCH  25  26
BRANCH  25  30
ATOM     30  C   UNL     1      44.228   4.332   9.059  0.00  0.00    +0.000 C 
BRANCH  30  31
ATOM     31  C   UNL     1      45.323   3.491   8.428  0.00  0.00    +0.000 A 
ATOM     32  C   UNL     1      45.418   2.128   8.706  0.00  0.00    +0.000 A 
ATOM     33  C   UNL     1      46.409   1.382   8.074  0.00  0.00    +0.000 A 
ATOM     34  C   UNL     1      47.270   2.011   7.183  0.00  0.00    +0.000 A 
ATOM     35  C   UNL     1      47.111   3.370   6.968  0.00  0.00    +0.000 A 
ATOM     36  N   UNL     1      46.164   4.121   7.568  0.00  0.00    +0.000 NA
ENDBRANCH  30  31
ENDBRANCH  25  30
ENDBRANCH  24  25
ENDBRANCH   4  24
TORSDOF 10
ENDMDL
MODEL 2
REMARK VINA RESULT:    -7.609      1.710      2.046
REMARK INTER + INTRA:         -13.464
REMARK INTER:                 -11.946
REMARK INTRA:                  -1.517
REMARK UNBOUND:                -1.629
REMARK  Name = 
REMARK  11 active torsions:
REMARK  status: ('A' for Active; 'I' for Inactive)
REMARK    1  A    between atoms: C_1  and  C_2
REMARK    2  A    between atoms: C_2  and  N_3
REMARK    3  A    between atoms: C_2  and  C_16
REMARK    4  A    between atoms: C_4  and  C_6
REMARK    5  A    between atoms: C_19  and  C_20
REMARK    6  A    between atoms: C_20  and  N_21
REMARK    7  A    between atoms: N_21  and  C_22
REMARK    8  A    between atoms: N_21  and  C_25
REMARK    9  A    between atoms: C_22  and  C_23
REMARK   10  A    between atoms: C_23  and  O_24
REMARK   11  A    between atoms: C_25  and  C_26
REMARK                            x       y       z     vdW  Elec       q    Type
REMARK                         _______ _______ _______ _____ _____    ______ ____
ROOT
ATOM      1  C   UNL     1      47.233   7.433  13.334  0.00  0.00    +0.000 A 
ATOM      2  C   UNL     1      47.384   6.197  12.688  0.00  0.00    +0.000 A 
ATOM      3  C   UNL     1      46.409   5.724  11.812  0.00  0.00    +0.000 A 
ATOM      4  C   UNL     1      45.235   6.454  11.592  0.00  0.00    +0.000 A 
ATOM      5  C   UNL     1      45.102   7.715  12.186  0.00  0.00    +0.000 A 
ATOM      6  C   UNL     1      46.098   8.206  13.038  0.00  0.00    +0.000 A 
ENDROOT
BRANCH   1   8
ATOM      7  C   UNL     1      48.346   9.438  14.287  0.00  0.00    +0.000 C 
ATOM      8  C   UNL     1      48.338   7.907  14.271  0.00  0.00    +0.000 C 
BRANCH   8   9
ATOM      9  N   UNL     1      48.204   7.337  15.602  0.00  0.00    +0.000 N 
ATOM     10  C   UNL     1      49.215   6.625  16.199  0.00  0.00    +0.000 C 
ATOM     11  O   UNL     1      50.312   6.453  15.677  0.00  0.00    +0.000 OA
ATOM     12  H   UNL     1      47.256   7.123  15.896  0.00  0.00    +0.000 HD
BRANCH  10  13
ATOM     13  C   UNL     1      48.939   6.126  17.551  0.00  0.00    +0.000 A 
ATOM     14  C   UNL     1      49.183   4.794  17.856  0.00  0.00    +0.000 A 
ATOM     15  S   UNL     1      48.827   4.391  19.474  0.00  0.00    +0.000 S 
ATOM     16  C   UNL     1      48.296   5.974  19.807  0.00  0.00    +0.000 A 
ATOM     17  N   UNL     1      47.813   6.306  21.035  0.00  0.00    +0.000 NA
ATOM     18  C   UNL     1      47.423   7.533  21.139  0.00  0.00    +0.000 A 
ATOM     19  N   UNL     1      47.478   8.460  20.127  0.00  0.00    +0.000 N 
ATOM     20  C   UNL     1      47.987   8.176  18.887  0.00  0.00    +0.000 A 
ATOM     21  O   UNL     1      48.083   9.040  18.020  0.00  0.00    +0.000 OA
ATOM     22  C   UNL     1      48.418   6.803  18.709  0.00  0.00    +0.000 A 
ATOM     23  H   UNL     1      47.173   9.409  20.280  0.00  0.00    +0.000 HD
ENDBRANCH  10  13
ENDBRANCH   8   9
ENDBRANCH   1   8
BRANCH   4  24
ATOM     24  C   UNL     1      44.119   5.857  10.759  0.00  0.00    +0.000 C 
BRANCH  24  25
ATOM     25  N   UNL     1      44.334   4.417  10.446  0.00  0.00    +0.000 NA
BRANCH  25  26
ATOM     26  C   UNL     1      43.331   3.574  11.143  0.00  0.00    +0.000 C 
BRANCH  26  27
ATOM     27  C   UNL     1      43.782   3.007  12.503  0.00  0.00    +0.000 C 
BRANCH  27  28
ATOM     28  O   UNL     1      45.139   2.572  12.440  0.00  0.00    +0.000 OA
ATOM     29  H   UNL     1      45.662   3.318  12.102  0.00  0.00    +0.000 HD
ENDBRANCH  27  28
ENDBRANCH  26  27
ENDBRANCH  25  26
BRANCH  25  30
ATOM     30  C   UNL     1      44.241   4.219   8.979  0.00  0.00    +0.000 C 
BRANCH  30  31
ATOM     31  C   UNL     1      45.348   3.377   8.368  0.00  0.00    +0.000 A 
ATOM     32  C   UNL     1      45.440   2.015   8.652  0.00  0.00    +0.000 A 
ATOM     33  C   UNL     1      46.442   1.269   8.039  0.00  0.00    +0.000 A 
ATOM     34  C   UNL     1      47.318   1.896   7.161  0.00  0.00    +0.000 A 
ATOM     35  C   UNL     1      47.161   3.254   6.939  0.00  0.00    +0.000 A 
ATOM     36  N   UNL     1      46.203   4.006   7.522  0.00  0.00    +0.000 NA
ENDBRANCH  30  31
ENDBRANCH  25  30
ENDBRANCH  24  25
ENDBRANCH   4  24
TORSDOF 10
ENDMDL
MODEL 3
REMARK VINA RESULT:    -7.377      2.884      3.736
REMARK INTER + INTRA:         -13.103
REMARK INTER:                 -11.547
REMARK INTRA:                  -1.555
REMARK UNBOUND:                -1.629
REMARK  Name = 
REMARK  11 active torsions:
REMARK  status: ('A' for Active; 'I' for Inactive)
REMARK    1  A    between atoms: C_1  and  C_2
REMARK    2  A    between atoms: C_2  and  N_3
REMARK    3  A    between atoms: C_2  and  C_16
REMARK    4  A    between atoms: C_4  and  C_6
REMARK    5  A    between atoms: C_19  and  C_20
REMARK    6  A    between atoms: C_20  and  N_21
REMARK    7  A    between atoms: N_21  and  C_22
REMARK    8  A    between atoms: N_21  and  C_25
REMARK    9  A    between atoms: C_22  and  C_23
REMARK   10  A    between atoms: C_23  and  O_24
REMARK   11  A    between atoms: C_25  and  C_26
REMARK                            x       y       z     vdW  Elec       q    Type
REMARK                         _______ _______ _______ _____ _____    ______ ____
ROOT
ATOM      1  C   UNL     1      47.577   4.930  15.475  0.00  0.00    +0.000 A 
ATOM      2  C   UNL     1      46.776   4.097  14.679  0.00  0.00    +0.000 A 
ATOM      3  C   UNL     1      46.417   4.472  13.386  0.00  0.00    +0.000 A 
ATOM      4  C   UNL     1      46.813   5.711  12.869  0.00  0.00    +0.000 A 
ATOM      5  C   UNL     1      47.661   6.523  13.633  0.00  0.00    +0.000 A 
ATOM      6  C   UNL     1      48.051   6.129  14.918  0.00  0.00    +0.000 A 
ENDROOT
BRANCH   1   8
ATOM      7  C   UNL     1      47.062   3.273  17.251  0.00  0.00    +0.000 C 
ATOM      8  C   UNL     1      47.950   4.461  16.876  0.00  0.00    +0.000 C 
BRANCH   8   9
ATOM      9  N   UNL     1      49.367   4.153  16.987  0.00  0.00    +0.000 N 
ATOM     10  C   UNL     1      50.076   4.370  18.144  0.00  0.00    +0.000 C 
ATOM     11  O   UNL     1      49.562   4.796  19.174  0.00  0.00    +0.000 OA
ATOM     12  H   UNL     1      49.892   4.172  16.118  0.00  0.00    +0.000 HD
BRANCH  10  13
ATOM     13  C   UNL     1      51.494   3.995  18.110  0.00  0.00    +0.000 A 
ATOM     14  C   UNL     1      52.464   4.943  18.405  0.00  0.00    +0.000 A 
ATOM     15  S   UNL     1      54.054   4.331  18.339  0.00  0.00    +0.000 S 
ATOM     16  C   UNL     1      53.499   2.791  17.873  0.00  0.00    +0.000 A 
ATOM     17  N   UNL     1      54.374   1.781  17.613  0.00  0.00    +0.000 NA
ATOM     18  C   UNL     1      53.815   0.676  17.246  0.00  0.00    +0.000 A 
ATOM     19  N   UNL     1      52.461   0.487  17.122  0.00  0.00    +0.000 N 
ATOM     20  C   UNL     1      51.545   1.466  17.406  0.00  0.00    +0.000 A 
ATOM     21  O   UNL     1      50.337   1.252  17.347  0.00  0.00    +0.000 OA
ATOM     22  C   UNL     1      52.121   2.737  17.800  0.00  0.00    +0.000 A 
ATOM     23  H   UNL     1      52.088  -0.410  16.848  0.00  0.00    +0.000 HD
ENDBRANCH  10  13
ENDBRANCH   8   9
ENDBRANCH   1   8
BRANCH   4  24
ATOM     24  C   UNL     1      46.289   6.170  11.523  0.00  0.00    +0.000 C 
BRANCH  24  25
ATOM     25  N   UNL     1      45.225   5.282  10.980  0.00  0.00    +0.000 NA
BRANCH  25  26
ATOM     26  C   UNL     1      43.888   5.716  11.456  0.00  0.00    +0.000 C 
BRANCH  26  27
ATOM     27  C   UNL     1      43.053   4.626  12.154  0.00  0.00    +0.000 C 
BRANCH  27  28
ATOM     28  O   UNL     1      42.857   3.511  11.285  0.00  0.00    +0.000 OA
ATOM     29  H   UNL     1      42.147   3.753  10.666  0.00  0.00    +0.000 HD
ENDBRANCH  27  28
ENDBRANCH  26  27
ENDBRANCH  25  26
BRANCH  25  30
ATOM     30  C   UNL     1      45.277   5.310   9.498  0.00  0.00    +0.000 C 
BRANCH  30  31
ATOM     31  C   UNL     1      45.622   3.986   8.838  0.00  0.00    +0.000 A 
ATOM     32  C   UNL     1      46.444   3.950   7.712  0.00  0.00    +0.000 A 
ATOM     33  C   UNL     1      46.774   2.715   7.162  0.00  0.00    +0.000 A 
ATOM     34  C   UNL     1      46.281   1.555   7.749  0.00  0.00    +0.000 A 
ATOM     35  C   UNL     1      45.466   1.680   8.862  0.00  0.00    +0.000 A 
ATOM     36  N   UNL     1      45.125   2.863   9.416  0.00  0.00    +0.000 NA
ENDBRANCH  30  31
ENDBRANCH  25  30
ENDBRANCH  24  25
ENDBRANCH   4  24
TORSDOF 10
ENDMDL
MODEL 4
REMARK VINA RESULT:    -6.725      3.608      5.175
REMARK INTER + INTRA:         -12.089
REMARK INTER:                 -10.466
REMARK INTRA:                  -1.622
REMARK UNBOUND:                -1.629
REMARK  Name = 
REMARK  11 active torsions:
REMARK  status: ('A' for Active; 'I' for Inactive)
REMARK    1  A    between atoms: C_1  and  C_2
REMARK    2  A    between atoms: C_2  and  N_3
REMARK    3  A    between atoms: C_2  and  C_16
REMARK    4  A    between atoms: C_4  and  C_6
REMARK    5  A    between atoms: C_19  and  C_20
REMARK    6  A    between atoms: C_20  and  N_21
REMARK    7  A    between atoms: N_21  and  C_22
REMARK    8  A    between atoms: N_21  and  C_25
REMARK    9  A    between atoms: C_22  and  C_23
REMARK   10  A    between atoms: C_23  and  O_24
REMARK   11  A    between atoms: C_25  and  C_26
REMARK                            x       y       z     vdW  Elec       q    Type
REMARK                         _______ _______ _______ _____ _____    ______ ____
ROOT
ATOM      1  C   UNL     1      48.157   4.774  16.258  0.00  0.00    +0.000 A 
ATOM      2  C   UNL     1      48.671   6.028  15.894  0.00  0.00    +0.000 A 
ATOM      3  C   UNL     1      48.216   6.684  14.752  0.00  0.00    +0.000 A 
ATOM      4  C   UNL     1      47.265   6.084  13.919  0.00  0.00    +0.000 A 
ATOM      5  C   UNL     1      46.704   4.860  14.304  0.00  0.00    +0.000 A 
ATOM      6  C   UNL     1      47.136   4.218  15.471  0.00  0.00    +0.000 A 
ENDROOT
BRANCH   1   8
ATOM      7  C   UNL     1      47.812   2.890  17.839  0.00  0.00    +0.000 C 
ATOM      8  C   UNL     1      48.682   4.110  17.525  0.00  0.00    +0.000 C 
BRANCH   8   9
ATOM      9  N   UNL     1      50.093   3.774  17.419  0.00  0.00    +0.000 N 
ATOM     10  C   UNL     1      50.997   4.083  18.407  0.00  0.00    +0.000 C 
ATOM     11  O   UNL     1      50.677   4.622  19.461  0.00  0.00    +0.000 OA
ATOM     12  H   UNL     1      50.457   3.692  16.474  0.00  0.00    +0.000 HD
BRANCH  10  13
ATOM     13  C   UNL     1      52.382   3.665  18.164  0.00  0.00    +0.000 A 
ATOM     14  C   UNL     1      53.412   4.588  18.293  0.00  0.00    +0.000 A 
ATOM     15  S   UNL     1      54.956   3.929  17.998  0.00  0.00    +0.000 S 
ATOM     16  C   UNL     1      54.295   2.401  17.645  0.00  0.00    +0.000 A 
ATOM     17  N   UNL     1      55.092   1.362  17.273  0.00  0.00    +0.000 NA
ATOM     18  C   UNL     1      54.454   0.270  17.012  0.00  0.00    +0.000 A 
ATOM     19  N   UNL     1      53.092   0.119  17.098  0.00  0.00    +0.000 N 
ATOM     20  C   UNL     1      52.257   1.128  17.501  0.00  0.00    +0.000 A 
ATOM     21  O   UNL     1      51.049   0.949  17.629  0.00  0.00    +0.000 OA
ATOM     22  C   UNL     1      52.921   2.386  17.783  0.00  0.00    +0.000 A 
ATOM     23  H   UNL     1      52.658  -0.769  16.897  0.00  0.00    +0.000 HD
ENDBRANCH  10  13
ENDBRANCH   8   9
ENDBRANCH   1   8
BRANCH   4  24
ATOM     24  C   UNL     1      46.894   6.738  12.603  0.00  0.00    +0.000 C 
BRANCH  24  25
ATOM     25  N   UNL     1      45.541   7.359  12.625  0.00  0.00    +0.000 NA
BRANCH  25  26
ATOM     26  C   UNL     1      45.645   8.836  12.731  0.00  0.00    +0.000 C 
BRANCH  26  27
ATOM     27  C   UNL     1      44.822   9.629  11.699  0.00  0.00    +0.000 C 
BRANCH  27  28
ATOM     28  O   UNL     1      43.794  10.379  12.346  0.00  0.00    +0.000 OA
ATOM     29  H   UNL     1      43.759  10.077  13.269  0.00  0.00    +0.000 HD
ENDBRANCH  27  28
ENDBRANCH  26  27
ENDBRANCH  25  26
BRANCH  25  30
ATOM     30  C   UNL     1      44.813   6.983  11.388  0.00  0.00    +0.000 C 
BRANCH  30  31
ATOM     31  C   UNL     1      44.365   5.534  11.318  0.00  0.00    +0.000 A 
ATOM     32  C   UNL     1      44.740   4.728  10.244  0.00  0.00    +0.000 A 
ATOM     33  C   UNL     1      44.347   3.393  10.236  0.00  0.00    +0.000 A 
ATOM     34  C   UNL     1      43.597   2.899  11.297  0.00  0.00    +0.000 A 
ATOM     35  C   UNL     1      43.261   3.768  12.322  0.00  0.00    +0.000 A 
ATOM     36  N   UNL     1      43.624   5.068  12.355  0.00  0.00    +0.000 NA
ENDBRANCH  30  31
ENDBRANCH  25  30
ENDBRANCH  24  25
ENDBRANCH   4  24
TORSDOF 10
ENDMDL
MODEL 5
REMARK VINA RESULT:    -6.490      2.421      3.553
REMARK INTER + INTRA:         -11.723
REMARK INTER:                 -10.299
REMARK INTRA:                  -1.424
REMARK UNBOUND:                -1.629
REMARK  Name = 
REMARK  11 active torsions:
REMARK  status: ('A' for Active; 'I' for Inactive)
REMARK    1  A    between atoms: C_1  and  C_2
REMARK    2  A    between atoms: C_2  and  N_3
REMARK    3  A    between atoms: C_2  and  C_16
REMARK    4  A    between atoms: C_4  and  C_6
REMARK    5  A    between atoms: C_19  and  C_20
REMARK    6  A    between atoms: C_20  and  N_21
REMARK    7  A    between atoms: N_21  and  C_22
REMARK    8  A    between atoms: N_21  and  C_25
REMARK    9  A    between atoms: C_22  and  C_23
REMARK   10  A    between atoms: C_23  and  O_24
REMARK   11  A    between atoms: C_25  and  C_26
REMARK                            x       y       z     vdW  Elec       q    Type
REMARK                         _______ _______ _______ _____ _____    ______ ____
ROOT
ATOM      1  C   UNL     1      47.453   4.816  15.215  0.00  0.00    +0.000 A 
ATOM      2  C   UNL     1      46.635   4.021  14.399  0.00  0.00    +0.000 A 
ATOM      3  C   UNL     1      46.218   4.473  13.148  0.00  0.00    +0.000 A 
ATOM      4  C   UNL     1      46.572   5.749  12.698  0.00  0.00    +0.000 A 
ATOM      5  C   UNL     1      47.437   6.526  13.479  0.00  0.00    +0.000 A 
ATOM      6  C   UNL     1      47.884   6.058  14.720  0.00  0.00    +0.000 A 
ENDROOT
BRANCH   1   8
ATOM      7  C   UNL     1      48.084   2.752  16.444  0.00  0.00    +0.000 C 
ATOM      8  C   UNL     1      47.890   4.266  16.568  0.00  0.00    +0.000 C 
BRANCH   8   9
ATOM      9  N   UNL     1      49.077   4.939  17.071  0.00  0.00    +0.000 N 
ATOM     10  C   UNL     1      49.177   5.373  18.371  0.00  0.00    +0.000 C 
ATOM     11  O   UNL     1      48.299   5.188  19.208  0.00  0.00    +0.000 OA
ATOM     12  H   UNL     1      49.630   5.434  16.379  0.00  0.00    +0.000 HD
BRANCH  10  13
ATOM     13  C   UNL     1      50.442   6.020  18.737  0.00  0.00    +0.000 A 
ATOM     14  C   UNL     1      50.427   7.289  19.302  0.00  0.00    +0.000 A 
ATOM     15  S   UNL     1      51.980   7.879  19.685  0.00  0.00    +0.000 S 
ATOM     16  C   UNL     1      52.724   6.478  19.069  0.00  0.00    +0.000 A 
ATOM     17  N   UNL     1      54.079   6.350  19.060  0.00  0.00    +0.000 NA
ATOM     18  C   UNL     1      54.505   5.247  18.542  0.00  0.00    +0.000 A 
ATOM     19  N   UNL     1      53.700   4.256  18.038  0.00  0.00    +0.000 N 
ATOM     20  C   UNL     1      52.332   4.329  18.058  0.00  0.00    +0.000 A 
ATOM     21  O   UNL     1      51.634   3.401  17.658  0.00  0.00    +0.000 OA
ATOM     22  C   UNL     1      51.799   5.560  18.608  0.00  0.00    +0.000 A 
ATOM     23  H   UNL     1      54.098   3.408  17.663  0.00  0.00    +0.000 HD
ENDBRANCH  10  13
ENDBRANCH   8   9
ENDBRANCH   1   8
BRANCH   4  24
ATOM     24  C   UNL     1      45.987   6.285  11.407  0.00  0.00    +0.000 C 
BRANCH  24  25
ATOM     25  N   UNL     1      45.032   5.339  10.765  0.00  0.00    +0.000 NA
BRANCH  25  26
ATOM     26  C   UNL     1      43.631   5.734  11.053  0.00  0.00    +0.000 C 
BRANCH  26  27
ATOM     27  C   UNL     1      42.918   4.893  12.130  0.00  0.00    +0.000 C 
BRANCH  27  28
ATOM     28  O   UNL     1      42.838   5.616  13.358  0.00  0.00    +0.000 OA
ATOM     29  H   UNL     1      42.124   6.268  13.258  0.00  0.00    +0.000 HD
ENDBRANCH  27  28
ENDBRANCH  26  27
ENDBRANCH  25  26
BRANCH  25  30
ATOM     30  C   UNL     1      45.272   5.323   9.302  0.00  0.00    +0.000 C 
BRANCH  30  31
ATOM     31  C   UNL     1      45.648   3.971   8.723  0.00  0.00    +0.000 A 
ATOM     32  C   UNL     1      46.513   3.883   7.632  0.00  0.00    +0.000 A 
ATOM     33  C   UNL     1      46.869   2.624   7.158  0.00  0.00    +0.000 A 
ATOM     34  C   UNL     1      46.359   1.493   7.783  0.00  0.00    +0.000 A 
ATOM     35  C   UNL     1      45.501   1.668   8.855  0.00  0.00    +0.000 A 
ATOM     36  N   UNL     1      45.134   2.874   9.336  0.00  0.00    +0.000 NA
ENDBRANCH  30  31
ENDBRANCH  25  30
ENDBRANCH  24  25
ENDBRANCH   4  24
TORSDOF 10
ENDMDL
MODEL 6
REMARK VINA RESULT:    -6.239      3.531      9.923
REMARK INTER + INTRA:         -11.332
REMARK INTER:                  -9.502
REMARK INTRA:                  -1.830
REMARK UNBOUND:                -1.629
REMARK  Name = 
REMARK  11 active torsions:
REMARK  status: ('A' for Active; 'I' for Inactive)
REMARK    1  A    between atoms: C_1  and  C_2
REMARK    2  A    between atoms: C_2  and  N_3
REMARK    3  A    between atoms: C_2  and  C_16
REMARK    4  A    between atoms: C_4  and  C_6
REMARK    5  A    between atoms: C_19  and  C_20
REMARK    6  A    between atoms: C_20  and  N_21
REMARK    7  A    between atoms: N_21  and  C_22
REMARK    8  A    between atoms: N_21  and  C_25
REMARK    9  A    between atoms: C_22  and  C_23
REMARK   10  A    between atoms: C_23  and  O_24
REMARK   11  A    between atoms: C_25  and  C_26
REMARK                            x       y       z     vdW  Elec       q    Type
REMARK                         _______ _______ _______ _____ _____    ______ ____
ROOT
ATOM      1  C   UNL     1      49.018   3.966  16.926  0.00  0.00    +0.000 A 
ATOM      2  C   UNL     1      49.332   5.331  16.849  0.00  0.00    +0.000 A 
ATOM      3  C   UNL     1      50.579   5.803  17.254  0.00  0.00    +0.000 A 
ATOM      4  C   UNL     1      51.532   4.927  17.788  0.00  0.00    +0.000 A 
ATOM      5  C   UNL     1      51.250   3.555  17.814  0.00  0.00    +0.000 A 
ATOM      6  C   UNL     1      50.010   3.078  17.374  0.00  0.00    +0.000 A 
ENDROOT
BRANCH   1   8
ATOM      7  C   UNL     1      46.766   3.243  17.682  0.00  0.00    +0.000 C 
ATOM      8  C   UNL     1      47.644   3.505  16.456  0.00  0.00    +0.000 C 
BRANCH   8   9
ATOM      9  N   UNL     1      47.040   4.451  15.531  0.00  0.00    +0.000 N 
ATOM     10  C   UNL     1      46.859   4.161  14.200  0.00  0.00    +0.000 C 
ATOM     11  O   UNL     1      47.151   3.077  13.705  0.00  0.00    +0.000 OA
ATOM     12  H   UNL     1      47.136   5.431  15.779  0.00  0.00    +0.000 HD
BRANCH  10  13
ATOM     13  C   UNL     1      46.221   5.209  13.396  0.00  0.00    +0.000 A 
ATOM     14  C   UNL     1      46.876   6.417  13.195  0.00  0.00    +0.000 A 
ATOM     15  S   UNL     1      46.002   7.509  12.220  0.00  0.00    +0.000 S 
ATOM     16  C   UNL     1      44.703   6.420  12.071  0.00  0.00    +0.000 A 
ATOM     17  N   UNL     1      43.584   6.757  11.373  0.00  0.00    +0.000 NA
ATOM     18  C   UNL     1      42.669   5.845  11.364  0.00  0.00    +0.000 A 
ATOM     19  N   UNL     1      42.774   4.624  11.982  0.00  0.00    +0.000 N 
ATOM     20  C   UNL     1      43.895   4.232  12.666  0.00  0.00    +0.000 A 
ATOM     21  O   UNL     1      43.988   3.110  13.157  0.00  0.00    +0.000 OA
ATOM     22  C   UNL     1      44.946   5.230  12.728  0.00  0.00    +0.000 A 
ATOM     23  H   UNL     1      42.028   3.948  11.921  0.00  0.00    +0.000 HD
ENDBRANCH  10  13
ENDBRANCH   8   9
ENDBRANCH   1   8
BRANCH   4  24
ATOM     24  C   UNL     1      52.822   5.475  18.364  0.00  0.00    +0.000 C 
BRANCH  24  25
ATOM     25  N   UNL     1      53.035   5.083  19.785  0.00  0.00    +0.000 NA
BRANCH  25  26
ATOM     26  C   UNL     1      54.485   4.984  20.088  0.00  0.00    +0.000 C 
BRANCH  26  27
ATOM     27  C   UNL     1      54.927   3.672  20.762  0.00  0.00    +0.000 C 
BRANCH  27  28
ATOM     28  O   UNL     1      54.195   2.566  20.235  0.00  0.00    +0.000 OA
ATOM     29  H   UNL     1      54.240   2.630  19.266  0.00  0.00    +0.000 HD
ENDBRANCH  27  28
ENDBRANCH  26  27
ENDBRANCH  25  26
BRANCH  25  30
ATOM     30  C   UNL     1      52.392   6.086  20.669  0.00  0.00    +0.000 C 
BRANCH  30  31
ATOM     31  C   UNL     1      50.875   6.035  20.708  0.00  0.00    +0.000 A 
ATOM     32  C   UNL     1      50.216   4.860  21.069  0.00  0.00    +0.000 A 
ATOM     33  C   UNL     1      48.826   4.865  21.137  0.00  0.00    +0.000 A 
ATOM     34  C   UNL     1      48.135   6.035  20.848  0.00  0.00    +0.000 A 
ATOM     35  C   UNL     1      48.865   7.156  20.492  0.00  0.00    +0.000 A 
ATOM     36  N   UNL     1      50.213   7.182  20.413  0.00  0.00    +0.000 NA
ENDBRANCH  30  31
ENDBRANCH  25  30
ENDBRANCH  24  25
ENDBRANCH   4  24
TORSDOF 10
ENDMDL
MODEL 7
REMARK VINA RESULT:    -6.057      3.160      9.121
REMARK INTER + INTRA:         -11.049
REMARK INTER:                 -10.516
REMARK INTRA:                  -0.533
REMARK UNBOUND:                -1.629
REMARK  Name = 
REMARK  11 active torsions:
REMARK  status: ('A' for Active; 'I' for Inactive)
REMARK    1  A    between atoms: C_1  and  C_2
REMARK    2  A    between atoms: C_2  and  N_3
REMARK    3  A    between atoms: C_2  and  C_16
REMARK    4  A    between atoms: C_4  and  C_6
REMARK    5  A    between atoms: C_19  and  C_20
REMARK    6  A    between atoms: C_20  and  N_21
REMARK    7  A    between atoms: N_21  and  C_22
REMARK    8  A    between atoms: N_21  and  C_25
REMARK    9  A    between atoms: C_22  and  C_23
REMARK   10  A    between atoms: C_23  and  O_24
REMARK   11  A    between atoms: C_25  and  C_26
REMARK                            x       y       z     vdW  Elec       q    Type
REMARK                         _______ _______ _______ _____ _____    ______ ____
ROOT
ATOM      1  C   UNL     1      45.176   4.475  12.550  0.00  0.00    +0.000 A 
ATOM      2  C   UNL     1      46.333   4.120  13.259  0.00  0.00    +0.000 A 
ATOM      3  C   UNL     1      47.170   5.096  13.797  0.00  0.00    +0.000 A 
ATOM      4  C   UNL     1      46.896   6.454  13.602  0.00  0.00    +0.000 A 
ATOM      5  C   UNL     1      45.713   6.818  12.946  0.00  0.00    +0.000 A 
ATOM      6  C   UNL     1      44.854   5.837  12.437  0.00  0.00    +0.000 A 
ENDROOT
BRANCH   1   8
ATOM      7  C   UNL     1      42.966   3.976  11.533  0.00  0.00    +0.000 C 
ATOM      8  C   UNL     1      44.291   3.365  11.996  0.00  0.00    +0.000 C 
BRANCH   8   9
ATOM      9  N   UNL     1      44.955   2.614  10.943  0.00  0.00    +0.000 N 
ATOM     10  C   UNL     1      44.819   2.938   9.614  0.00  0.00    +0.000 C 
ATOM     11  O   UNL     1      44.169   3.902   9.224  0.00  0.00    +0.000 OA
ATOM     12  H   UNL     1      45.167   1.644  11.159  0.00  0.00    +0.000 HD
BRANCH  10  13
ATOM     13  C   UNL     1      45.564   2.099   8.669  0.00  0.00    +0.000 A 
ATOM     14  C   UNL     1      45.432   0.718   8.724  0.00  0.00    +0.000 A 
ATOM     15  S   UNL     1      46.348  -0.099   7.541  0.00  0.00    +0.000 S 
ATOM     16  C   UNL     1      46.983   1.363   6.945  0.00  0.00    +0.000 A 
ATOM     17  N   UNL     1      47.883   1.372   5.925  0.00  0.00    +0.000 NA
ATOM     18  C   UNL     1      48.299   2.548   5.592  0.00  0.00    +0.000 A 
ATOM     19  N   UNL     1      47.889   3.719   6.182  0.00  0.00    +0.000 N 
ATOM     20  C   UNL     1      46.960   3.758   7.188  0.00  0.00    +0.000 A 
ATOM     21  O   UNL     1      46.566   4.822   7.657  0.00  0.00    +0.000 OA
ATOM     22  C   UNL     1      46.478   2.459   7.618  0.00  0.00    +0.000 A 
ATOM     23  H   UNL     1      48.241   4.609   5.861  0.00  0.00    +0.000 HD
ENDBRANCH  10  13
ENDBRANCH   8   9
ENDBRANCH   1   8
BRANCH   4  24
ATOM     24  C   UNL     1      47.893   7.500  14.059  0.00  0.00    +0.000 C 
BRANCH  24  25
ATOM     25  N   UNL     1      49.149   6.909  14.597  0.00  0.00    +0.000 NA
BRANCH  25  26
ATOM     26  C   UNL     1      50.335   7.631  14.071  0.00  0.00    +0.000 C 
BRANCH  26  27
ATOM     27  C   UNL     1      50.210   8.131  12.620  0.00  0.00    +0.000 C 
BRANCH  27  28
ATOM     28  O   UNL     1      51.004   7.333  11.744  0.00  0.00    +0.000 OA
ATOM     29  H   UNL     1      50.664   6.423  11.800  0.00  0.00    +0.000 HD
ENDBRANCH  27  28
ENDBRANCH  26  27
ENDBRANCH  25  26
BRANCH  25  30
ATOM     30  C   UNL     1      49.123   6.973  16.078  0.00  0.00    +0.000 C 
BRANCH  30  31
ATOM     31  C   UNL     1      49.094   5.629  16.784  0.00  0.00    +0.000 A 
ATOM     32  C   UNL     1      47.887   5.086  17.224  0.00  0.00    +0.000 A 
ATOM     33  C   UNL     1      47.896   3.832  17.827  0.00  0.00    +0.000 A 
ATOM     34  C   UNL     1      49.101   3.154  17.970  0.00  0.00    +0.000 A 
ATOM     35  C   UNL     1      50.255   3.767  17.511  0.00  0.00    +0.000 A 
ATOM     36  N   UNL     1      50.280   4.983  16.926  0.00  0.00    +0.000 NA
ENDBRANCH  30  31
ENDBRANCH  25  30
ENDBRANCH  24  25
ENDBRANCH   4  24
TORSDOF 10
ENDMDL
MODEL 8
REMARK VINA RESULT:    -5.983      2.965      3.975
REMARK INTER + INTRA:         -10.934
REMARK INTER:                  -9.926
REMARK INTRA:                  -1.008
REMARK UNBOUND:                -1.629
REMARK  Name = 
REMARK  11 active torsions:
REMARK  status: ('A' for Active; 'I' for Inactive)
REMARK    1  A    between atoms: C_1  and  C_2
REMARK    2  A    between atoms: C_2  and  N_3
REMARK    3  A    between atoms: C_2  and  C_16
REMARK    4  A    between atoms: C_4  and  C_6
REMARK    5  A    between atoms: C_19  and  C_20
REMARK    6  A    between atoms: C_20  and  N_21
REMARK    7  A    between atoms: N_21  and  C_22
REMARK    8  A    between atoms: N_21  and  C_25
REMARK    9  A    between atoms: C_22  and  C_23
REMARK   10  A    between atoms: C_23  and  O_24
REMARK   11  A    between atoms: C_25  and  C_26
REMARK                            x       y       z     vdW  Elec       q    Type
REMARK                         _______ _______ _______ _____ _____    ______ ____
ROOT
ATOM      1  C   UNL     1      47.744   6.469  13.939  0.00  0.00    +0.000 A 
ATOM      2  C   UNL     1      46.819   5.414  13.980  0.00  0.00    +0.000 A 
ATOM      3  C   UNL     1      46.015   5.124  12.879  0.00  0.00    +0.000 A 
ATOM      4  C   UNL     1      46.082   5.908  11.723  0.00  0.00    +0.000 A 
ATOM      5  C   UNL     1      47.043   6.926  11.650  0.00  0.00    +0.000 A 
ATOM      6  C   UNL     1      47.875   7.194  12.743  0.00  0.00    +0.000 A 
ENDROOT
BRANCH   1   8
ATOM      7  C   UNL     1      48.408   5.586  16.162  0.00  0.00    +0.000 C 
ATOM      8  C   UNL     1      48.607   6.731  15.167  0.00  0.00    +0.000 C 
BRANCH   8   9
ATOM      9  N   UNL     1      50.005   6.928  14.817  0.00  0.00    +0.000 N 
ATOM     10  C   UNL     1      50.657   8.116  15.044  0.00  0.00    +0.000 C 
ATOM     11  O   UNL     1      50.126   9.077  15.592  0.00  0.00    +0.000 OA
ATOM     12  H   UNL     1      50.355   6.350  14.059  0.00  0.00    +0.000 HD
BRANCH  10  13
ATOM     13  C   UNL     1      52.070   8.158  14.653  0.00  0.00    +0.000 A 
ATOM     14  C   UNL     1      52.481   9.025  13.649  0.00  0.00    +0.000 A 
ATOM     15  S   UNL     1      54.156   8.960  13.339  0.00  0.00    +0.000 S 
ATOM     16  C   UNL     1      54.379   7.741  14.506  0.00  0.00    +0.000 A 
ATOM     17  N   UNL     1      55.608   7.198  14.724  0.00  0.00    +0.000 NA
ATOM     18  C   UNL     1      55.625   6.267  15.620  0.00  0.00    +0.000 A 
ATOM     19  N   UNL     1      54.527   5.835  16.322  0.00  0.00    +0.000 N 
ATOM     20  C   UNL     1      53.280   6.378  16.157  0.00  0.00    +0.000 A 
ATOM     21  O   UNL     1      52.327   6.017  16.842  0.00  0.00    +0.000 OA
ATOM     22  C   UNL     1      53.199   7.412  15.144  0.00  0.00    +0.000 A 
ATOM     23  H   UNL     1      54.614   5.115  17.023  0.00  0.00    +0.000 HD
ENDBRANCH  10  13
ENDBRANCH   8   9
ENDBRANCH   1   8
BRANCH   4  24
ATOM     24  C   UNL     1      45.097   5.677  10.595  0.00  0.00    +0.000 C 
BRANCH  24  25
ATOM     25  N   UNL     1      45.329   4.395   9.874  0.00  0.00    +0.000 NA
BRANCH  25  26
ATOM     26  C   UNL     1      44.078   3.599   9.807  0.00  0.00    +0.000 C 
BRANCH  26  27
ATOM     27  C   UNL     1      43.821   2.675  11.013  0.00  0.00    +0.000 C 
BRANCH  27  28
ATOM     28  O   UNL     1      42.668   3.104  11.736  0.00  0.00    +0.000 OA
ATOM     29  H   UNL     1      41.890   2.816  11.229  0.00  0.00    +0.000 HD
ENDBRANCH  27  28
ENDBRANCH  26  27
ENDBRANCH  25  26
BRANCH  25  30
ATOM     30  C   UNL     1      45.826   4.688   8.508  0.00  0.00    +0.000 C 
BRANCH  30  31
ATOM     31  C   UNL     1      46.320   3.482   7.727  0.00  0.00    +0.000 A 
ATOM     32  C   UNL     1      46.805   3.629   6.428  0.00  0.00    +0.000 A 
ATOM     33  C   UNL     1      47.289   2.508   5.762  0.00  0.00    +0.000 A 
ATOM     34  C   UNL     1      47.282   1.277   6.407  0.00  0.00    +0.000 A 
ATOM     35  C   UNL     1      46.776   1.216   7.695  0.00  0.00    +0.000 A 
ATOM     36  N   UNL     1      46.296   2.284   8.366  0.00  0.00    +0.000 NA
ENDBRANCH  30  31
ENDBRANCH  25  30
ENDBRANCH  24  25
ENDBRANCH   4  24
TORSDOF 10
ENDMDL
MODEL 9
REMARK VINA RESULT:    -5.243      4.058      9.555
REMARK INTER + INTRA:          -9.784
REMARK INTER:                  -9.439
REMARK INTRA:                  -0.345
REMARK UNBOUND:                -1.629
REMARK  Name = 
REMARK  11 active torsions:
REMARK  status: ('A' for Active; 'I' for Inactive)
REMARK    1  A    between atoms: C_1  and  C_2
REMARK    2  A    between atoms: C_2  and  N_3
REMARK    3  A    between atoms: C_2  and  C_16
REMARK    4  A    between atoms: C_4  and  C_6
REMARK    5  A    between atoms: C_19  and  C_20
REMARK    6  A    between atoms: C_20  and  N_21
REMARK    7  A    between atoms: N_21  and  C_22
REMARK    8  A    between atoms: N_21  and  C_25
REMARK    9  A    between atoms: C_22  and  C_23
REMARK   10  A    between atoms: C_23  and  O_24
REMARK   11  A    between atoms: C_25  and  C_26
REMARK                            x       y       z     vdW  Elec       q    Type
REMARK                         _______ _______ _______ _____ _____    ______ ____
ROOT
ATOM      1  C   UNL     1      49.169   4.219  17.219  0.00  0.00    +0.000 A 
ATOM      2  C   UNL     1      49.929   5.394  17.132  0.00  0.00    +0.000 A 
ATOM      3  C   UNL     1      51.314   5.363  17.281  0.00  0.00    +0.000 A 
ATOM      4  C   UNL     1      51.972   4.161  17.565  0.00  0.00    +0.000 A 
ATOM      5  C   UNL     1      51.229   2.974  17.595  0.00  0.00    +0.000 A 
ATOM      6  C   UNL     1      49.842   3.001  17.409  0.00  0.00    +0.000 A 
ENDROOT
BRANCH   1   8
ATOM      7  C   UNL     1      47.042   4.900  18.304  0.00  0.00    +0.000 C 
ATOM      8  C   UNL     1      47.659   4.311  17.033  0.00  0.00    +0.000 C 
BRANCH   8   9
ATOM      9  N   UNL     1      47.302   5.064  15.841  0.00  0.00    +0.000 N 
ATOM     10  C   UNL     1      47.196   4.473  14.605  0.00  0.00    +0.000 C 
ATOM     11  O   UNL     1      47.351   3.269  14.424  0.00  0.00    +0.000 OA
ATOM     12  H   UNL     1      47.534   6.052  15.859  0.00  0.00    +0.000 HD
BRANCH  10  13
ATOM     13  C   UNL     1      46.812   5.358  13.500  0.00  0.00    +0.000 A 
ATOM     14  C   UNL     1      47.716   6.302  13.029  0.00  0.00    +0.000 A 
ATOM     15  S   UNL     1      47.114   7.228  11.731  0.00  0.00    +0.000 S 
ATOM     16  C   UNL     1      45.613   6.428  11.785  0.00  0.00    +0.000 A 
ATOM     17  N   UNL     1      44.604   6.774  10.939  0.00  0.00    +0.000 NA
ATOM     18  C   UNL     1      43.515   6.101  11.108  0.00  0.00    +0.000 A 
ATOM     19  N   UNL     1      43.344   5.109  12.041  0.00  0.00    +0.000 N 
ATOM     20  C   UNL     1      44.343   4.707  12.889  0.00  0.00    +0.000 A 
ATOM     21  O   UNL     1      44.184   3.774  13.672  0.00  0.00    +0.000 OA
ATOM     22  C   UNL     1      45.583   5.448  12.757  0.00  0.00    +0.000 A 
ATOM     23  H   UNL     1      42.471   4.608  12.109  0.00  0.00    +0.000 HD
ENDBRANCH  10  13
ENDBRANCH   8   9
ENDBRANCH   1   8
BRANCH   4  24
ATOM     24  C   UNL     1      53.455   4.166  17.876  0.00  0.00    +0.000 C 
BRANCH  24  25
ATOM     25  N   UNL     1      53.743   4.202  19.336  0.00  0.00    +0.000 NA
BRANCH  25  26
ATOM     26  C   UNL     1      52.483   4.279  20.116  0.00  0.00    +0.000 C 
BRANCH  26  27
ATOM     27  C   UNL     1      52.304   5.561  20.952  0.00  0.00    +0.000 C 
BRANCH  27  28
ATOM     28  O   UNL     1      51.021   6.140  20.713  0.00  0.00    +0.000 OA
ATOM     29  H   UNL     1      50.388   5.675  21.286  0.00  0.00    +0.000 HD
ENDBRANCH  27  28
ENDBRANCH  26  27
ENDBRANCH  25  26
BRANCH  25  30
ATOM     30  C   UNL     1      54.507   2.987  19.711  0.00  0.00    +0.000 C 
BRANCH  30  31
ATOM     31  C   UNL     1      54.591   1.918  18.635  0.00  0.00    +0.000 A 
ATOM     32  C   UNL     1      55.519   2.028  17.600  0.00  0.00    +0.000 A 
ATOM     33  C   UNL     1      55.597   1.007  16.658  0.00  0.00    +0.000 A 
ATOM     34  C   UNL     1      54.754  -0.092  16.775  0.00  0.00    +0.000 A 
ATOM     35  C   UNL     1      53.857  -0.120  17.829  0.00  0.00    +0.000 A 
ATOM     36  N   UNL     1      53.755   0.856  18.756  0.00  0.00    +0.000 NA
ENDBRANCH  30  31
ENDBRANCH  25  30
ENDBRANCH  24  25
ENDBRANCH   4  24
TORSDOF 10
ENDMDL
