MODEL 1
REMARK VINA RESULT:    -7.483      0.000      0.000
REMARK INTER + INTRA:         -10.562
REMARK INTER:                  -9.889
REMARK INTRA:                  -0.673
REMARK UNBOUND:                -0.673
REMARK  Name = 
REMARK  9 active torsions:
REMARK  status: ('A' for Active; 'I' for Inactive)
REMARK    1  A    between atoms: C_1  and  C_2
REMARK    2  A    between atoms: C_2  and  C_3
REMARK    3  A    between atoms: C_2  and  C_4
REMARK    4  A    between atoms: C_2  and  C_5
REMARK    5  A    between atoms: N_7  and  C_8
REMARK    6  A    between atoms: C_8  and  C_9
REMARK    7  A    between atoms: C_12  and  C_13
REMARK    8  A    between atoms: C_13  and  C_14
REMARK    9  A    between atoms: C_14  and  N_15
REMARK                            x       y       z     vdW  Elec       q    Type
REMARK                         _______ _______ _______ _____ _____    ______ ____
ROOT
ATOM      1  C   UNL     1      46.164   7.249  12.290  0.00  0.00    +0.000 A 
ATOM      2  N   UNL     1      45.200   7.028  11.382  0.00  0.00    +0.000 NA
ATOM      3  N   UNL     1      44.926   5.712  11.488  0.00  0.00    +0.000 N 
ATOM      4  C   UNL     1      45.704   5.055  12.411  0.00  0.00    +0.000 A 
ATOM      5  C   UNL     1      45.766   3.710  12.798  0.00  0.00    +0.000 A 
ATOM      6  C   UNL     1      46.675   3.361  13.802  0.00  0.00    +0.000 A 
ATOM      7  C   UNL     1      47.484   4.327  14.389  0.00  0.00    +0.000 A 
ATOM      8  C   UNL     1      47.415   5.662  13.994  0.00  0.00    +0.000 A 
ATOM      9  C   UNL     1      46.510   6.043  12.979  0.00  0.00    +0.000 A 
ENDROOT
BRANCH   1  11
ATOM     10  C   UNL     1      48.099   8.786  11.689  0.00  0.00    +0.000 C 
ATOM     11  C   UNL     1      46.752   8.655  12.445  0.00  0.00    +0.000 C 
ATOM     12  C   UNL     1      47.028   8.984  13.926  0.00  0.00    +0.000 C 
ATOM     13  C   UNL     1      45.798   9.727  11.875  0.00  0.00    +0.000 C 
ENDBRANCH   1  11
BRANCH   3  14
ATOM     14  C   UNL     1      43.914   5.122  10.611  0.00  0.00    +0.000 C 
BRANCH  14  15
ATOM     15  C   UNL     1      44.535   4.148   9.651  0.00  0.00    +0.000 A 
ATOM     16  C   UNL     1      44.319   2.774   9.765  0.00  0.00    +0.000 A 
ATOM     17  C   UNL     1      45.048   1.889   8.974  0.00  0.00    +0.000 A 
ATOM     18  C   UNL     1      45.982   2.403   8.079  0.00  0.00    +0.000 A 
ATOM     19  N   UNL     1      46.149   3.733   7.893  0.00  0.00    +0.000 NA
ATOM     20  C   UNL     1      45.427   4.568   8.673  0.00  0.00    +0.000 A 
BRANCH  18  21
ATOM     21  C   UNL     1      46.942   1.489   7.358  0.00  0.00    +0.000 C 
BRANCH  21  22
ATOM     22  C   UNL     1      48.126   2.292   6.797  0.00  0.00    +0.000 C 
BRANCH  22  23
ATOM     23  N   UNL     1      48.466   1.879   5.433  0.00  0.00    +0.000 NA
ATOM     24  H   UNL     1      47.622   1.607   4.932  0.00  0.00    +0.000 HD
ATOM     25  H   UNL     1      49.055   1.049   5.476  0.00  0.00    +0.000 HD
ENDBRANCH  22  23
ENDBRANCH  21  22
ENDBRANCH  18  21
ENDBRANCH  14  15
ENDBRANCH   3  14
TORSDOF 6
ENDMDL
MODEL 2
REMARK VINA RESULT:    -7.003      1.163      3.151
REMARK INTER + INTRA:          -9.928
REMARK INTER:                  -9.369
REMARK INTRA:                  -0.559
REMARK UNBOUND:                -0.673
REMARK  Name = 
REMARK  9 active torsions:
REMARK  status: ('A' for Active; 'I' for Inactive)
REMARK    1  A    between atoms: C_1  and  C_2
REMARK    2  A    between atoms: C_2  and  C_3
REMARK    3  A    between atoms: C_2  and  C_4
REMARK    4  A    between atoms: C_2  and  C_5
REMARK    5  A    between atoms: N_7  and  C_8
REMARK    6  A    between atoms: C_8  and  C_9
REMARK    7  A    between atoms: C_12  and  C_13
REMARK    8  A    between atoms: C_13  and  C_14
REMARK    9  A    between atoms: C_14  and  N_15
REMARK                            x       y       z     vdW  Elec       q    Type
REMARK                         _______ _______ _______ _____ _____    ______ ____
ROOT
ATOM      1  C   UNL     1      46.336   6.815  12.528  0.00  0.00    +0.000 A 
ATOM      2  N   UNL     1      45.667   5.715  12.146  0.00  0.00    +0.000 NA
ATOM      3  N   UNL     1      44.607   6.183  11.456  0.00  0.00    +0.000 N 
ATOM      4  C   UNL     1      44.541   7.555  11.403  0.00  0.00    +0.000 A 
ATOM      5  C   UNL     1      43.606   8.427  10.828  0.00  0.00    +0.000 A 
ATOM      6  C   UNL     1      43.843   9.801  10.937  0.00  0.00    +0.000 A 
ATOM      7  C   UNL     1      44.974  10.273  11.594  0.00  0.00    +0.000 A 
ATOM      8  C   UNL     1      45.896   9.396  12.163  0.00  0.00    +0.000 A 
ATOM      9  C   UNL     1      45.680   8.003  12.073  0.00  0.00    +0.000 A 
ENDROOT
BRANCH   1  11
ATOM     10  C   UNL     1      47.769   7.863  14.349  0.00  0.00    +0.000 C 
ATOM     11  C   UNL     1      47.610   6.674  13.366  0.00  0.00    +0.000 C 
ATOM     12  C   UNL     1      48.867   6.652  12.473  0.00  0.00    +0.000 C 
ATOM     13  C   UNL     1      47.586   5.380  14.209  0.00  0.00    +0.000 C 
ENDBRANCH   1  11
BRANCH   3  14
ATOM     14  C   UNL     1      43.641   5.233  10.902  0.00  0.00    +0.000 C 
BRANCH  14  15
ATOM     15  C   UNL     1      44.301   4.302   9.927  0.00  0.00    +0.000 A 
ATOM     16  C   UNL     1      44.165   2.917  10.035  0.00  0.00    +0.000 A 
ATOM     17  C   UNL     1      44.931   2.080   9.227  0.00  0.00    +0.000 A 
ATOM     18  C   UNL     1      45.820   2.651   8.321  0.00  0.00    +0.000 A 
ATOM     19  N   UNL     1      45.908   3.989   8.141  0.00  0.00    +0.000 NA
ATOM     20  C   UNL     1      45.152   4.778   8.937  0.00  0.00    +0.000 A 
BRANCH  18  21
ATOM     21  C   UNL     1      46.819   1.797   7.579  0.00  0.00    +0.000 C 
BRANCH  21  22
ATOM     22  C   UNL     1      47.734   2.675   6.712  0.00  0.00    +0.000 C 
BRANCH  22  23
ATOM     23  N   UNL     1      48.492   1.880   5.743  0.00  0.00    +0.000 NA
ATOM     24  H   UNL     1      48.371   2.266   4.808  0.00  0.00    +0.000 HD
ATOM     25  H   UNL     1      48.109   0.936   5.717  0.00  0.00    +0.000 HD
ENDBRANCH  22  23
ENDBRANCH  21  22
ENDBRANCH  18  21
ENDBRANCH  14  15
ENDBRANCH   3  14
TORSDOF 6
ENDMDL
MODEL 3
REMARK VINA RESULT:    -6.772      1.385      3.276
REMARK INTER + INTRA:          -9.622
REMARK INTER:                  -9.089
REMARK INTRA:                  -0.533
REMARK UNBOUND:                -0.673
REMARK  Name = 
REMARK  9 active torsions:
REMARK  status: ('A' for Active; 'I' for Inactive)
REMARK    1  A    between atoms: C_1  and  C_2
REMARK    2  A    between atoms: C_2  and  C_3
REMARK    3  A    between atoms: C_2  and  C_4
REMARK    4  A    between atoms: C_2  and  C_5
REMARK    5  A    between atoms: N_7  and  C_8
REMARK    6  A    between atoms: C_8  and  C_9
REMARK    7  A    between atoms: C_12  and  C_13
REMARK    8  A    between atoms: C_13  and  C_14
REMARK    9  A    between atoms: C_14  and  N_15
REMARK                            x       y       z     vdW  Elec       q    Type
REMARK                         _______ _______ _______ _____ _____    ______ ____
ROOT
ATOM      1  C   UNL     1      46.418   7.272  12.428  0.00  0.00    +0.000 A 
ATOM      2  N   UNL     1      45.937   6.075  12.057  0.00  0.00    +0.000 NA
ATOM      3  N   UNL     1      44.805   6.357  11.378  0.00  0.00    +0.000 N 
ATOM      4  C   UNL     1      44.512   7.698  11.322  0.00  0.00    +0.000 A 
ATOM      5  C   UNL     1      43.438   8.400  10.757  0.00  0.00    +0.000 A 
ATOM      6  C   UNL     1      43.445   9.795  10.859  0.00  0.00    +0.000 A 
ATOM      7  C   UNL     1      44.489  10.451  11.501  0.00  0.00    +0.000 A 
ATOM      8  C   UNL     1      45.551   9.742  12.061  0.00  0.00    +0.000 A 
ATOM      9  C   UNL     1      45.569   8.332  11.978  0.00  0.00    +0.000 A 
ENDROOT
BRANCH   1  11
ATOM     10  C   UNL     1      47.901   6.073  14.111  0.00  0.00    +0.000 C 
ATOM     11  C   UNL     1      47.708   7.349  13.251  0.00  0.00    +0.000 C 
ATOM     12  C   UNL     1      47.682   8.549  14.218  0.00  0.00    +0.000 C 
ATOM     13  C   UNL     1      48.947   7.481  12.340  0.00  0.00    +0.000 C 
ENDBRANCH   1  11
BRANCH   3  14
ATOM     14  C   UNL     1      44.004   5.257  10.840  0.00  0.00    +0.000 C 
BRANCH  14  15
ATOM     15  C   UNL     1      44.827   4.385   9.935  0.00  0.00    +0.000 A 
ATOM     16  C   UNL     1      45.585   4.925   8.895  0.00  0.00    +0.000 A 
ATOM     17  C   UNL     1      46.191   4.080   7.967  0.00  0.00    +0.000 A 
ATOM     18  C   UNL     1      46.027   2.705   8.105  0.00  0.00    +0.000 A 
ATOM     19  N   UNL     1      45.367   2.157   9.152  0.00  0.00    +0.000 NA
ATOM     20  C   UNL     1      44.790   3.000  10.037  0.00  0.00    +0.000 A 
BRANCH  18  21
ATOM     21  C   UNL     1      46.480   1.762   7.018  0.00  0.00    +0.000 C 
BRANCH  21  22
ATOM     22  C   UNL     1      48.006   1.822   6.859  0.00  0.00    +0.000 C 
BRANCH  22  23
ATOM     23  N   UNL     1      48.404   1.943   5.454  0.00  0.00    +0.000 NA
ATOM     24  H   UNL     1      47.794   2.605   4.977  0.00  0.00    +0.000 HD
ATOM     25  H   UNL     1      48.269   1.044   4.993  0.00  0.00    +0.000 HD
ENDBRANCH  22  23
ENDBRANCH  21  22
ENDBRANCH  18  21
ENDBRANCH  14  15
ENDBRANCH   3  14
TORSDOF 6
ENDMDL
MODEL 4
REMARK VINA RESULT:    -6.367      4.220      7.042
REMARK INTER + INTRA:          -9.088
REMARK INTER:                  -8.427
REMARK INTRA:                  -0.661
REMARK UNBOUND:                -0.673
REMARK  Name = 
REMARK  9 active torsions:
REMARK  status: ('A' for Active; 'I' for Inactive)
REMARK    1  A    between atoms: C_1  and  C_2
REMARK    2  A    between atoms: C_2  and  C_3
REMARK    3  A    between atoms: C_2  and  C_4
REMARK    4  A    between atoms: C_2  and  C_5
REMARK    5  A    between atoms: N_7  and  C_8
REMARK    6  A    between atoms: C_8  and  C_9
REMARK    7  A    between atoms: C_12  and  C_13
REMARK    8  A    between atoms: C_13  and  C_14
REMARK    9  A    between atoms: C_14  and  N_15
REMARK                            x       y       z     vdW  Elec       q    Type
REMARK                         _______ _______ _______ _____ _____    ______ ____
ROOT
ATOM      1  C   UNL     1      48.109   6.463  13.744  0.00  0.00    +0.000 A 
ATOM      2  N   UNL     1      48.122   5.798  14.911  0.00  0.00    +0.000 NA
ATOM      3  N   UNL     1      47.112   4.909  14.808  0.00  0.00    +0.000 N 
ATOM      4  C   UNL     1      46.416   4.994  13.627  0.00  0.00    +0.000 A 
ATOM      5  C   UNL     1      45.302   4.294  13.142  0.00  0.00    +0.000 A 
ATOM      6  C   UNL     1      44.837   4.614  11.863  0.00  0.00    +0.000 A 
ATOM      7  C   UNL     1      45.469   5.594  11.106  0.00  0.00    +0.000 A 
ATOM      8  C   UNL     1      46.575   6.285  11.599  0.00  0.00    +0.000 A 
ATOM      9  C   UNL     1      47.064   5.987  12.890  0.00  0.00    +0.000 A 
ENDROOT
BRANCH   1  11
ATOM     10  C   UNL     1      50.213   7.606  14.602  0.00  0.00    +0.000 C 
ATOM     11  C   UNL     1      49.121   7.587  13.501  0.00  0.00    +0.000 C 
ATOM     12  C   UNL     1      48.435   8.968  13.517  0.00  0.00    +0.000 C 
ATOM     13  C   UNL     1      49.838   7.412  12.145  0.00  0.00    +0.000 C 
ENDBRANCH   1  11
BRANCH   3  14
ATOM     14  C   UNL     1      46.830   4.018  15.935  0.00  0.00    +0.000 C 
BRANCH  14  15
ATOM     15  C   UNL     1      48.101   3.567  16.595  0.00  0.00    +0.000 A 
ATOM     16  C   UNL     1      48.775   4.378  17.509  0.00  0.00    +0.000 A 
ATOM     17  C   UNL     1      50.038   4.007  17.966  0.00  0.00    +0.000 A 
ATOM     18  C   UNL     1      50.601   2.823  17.496  0.00  0.00    +0.000 A 
ATOM     19  N   UNL     1      49.931   1.982  16.674  0.00  0.00    +0.000 NA
ATOM     20  C   UNL     1      48.707   2.366  16.249  0.00  0.00    +0.000 A 
BRANCH  18  21
ATOM     21  C   UNL     1      52.041   2.485  17.790  0.00  0.00    +0.000 C 
BRANCH  21  22
ATOM     22  C   UNL     1      52.347   1.039  17.373  0.00  0.00    +0.000 C 
BRANCH  22  23
ATOM     23  N   UNL     1      51.661   0.068  18.229  0.00  0.00    +0.000 NA
ATOM     24  H   UNL     1      51.511   0.466  19.155  0.00  0.00    +0.000 HD
ATOM     25  H   UNL     1      52.265  -0.743  18.360  0.00  0.00    +0.000 HD
ENDBRANCH  22  23
ENDBRANCH  21  22
ENDBRANCH  18  21
ENDBRANCH  14  15
ENDBRANCH   3  14
TORSDOF 6
ENDMDL
MODEL 5
REMARK VINA RESULT:    -6.323      1.632      2.777
REMARK INTER + INTRA:          -9.030
REMARK INTER:                  -8.695
REMARK INTRA:                  -0.335
REMARK UNBOUND:                -0.673
REMARK  Name = 
REMARK  9 active torsions:
REMARK  status: ('A' for Active; 'I' for Inactive)
REMARK    1  A    between atoms: C_1  and  C_2
REMARK    2  A    between atoms: C_2  and  C_3
REMARK    3  A    between atoms: C_2  and  C_4
REMARK    4  A    between atoms: C_2  and  C_5
REMARK    5  A    between atoms: N_7  and  C_8
REMARK    6  A    between atoms: C_8  and  C_9
REMARK    7  A    between atoms: C_12  and  C_13
REMARK    8  A    between atoms: C_13  and  C_14
REMARK    9  A    between atoms: C_14  and  N_15
REMARK                            x       y       z     vdW  Elec       q    Type
REMARK                         _______ _______ _______ _____ _____    ______ ____
ROOT
ATOM      1  C   UNL     1      44.081   8.597  11.213  0.00  0.00    +0.000 A 
ATOM      2  N   UNL     1      43.409   7.474  10.912  0.00  0.00    +0.000 NA
ATOM      3  N   UNL     1      44.171   6.477  11.408  0.00  0.00    +0.000 N 
ATOM      4  C   UNL     1      45.337   6.908  11.994  0.00  0.00    +0.000 A 
ATOM      5  C   UNL     1      46.399   6.214  12.589  0.00  0.00    +0.000 A 
ATOM      6  C   UNL     1      47.453   6.965  13.118  0.00  0.00    +0.000 A 
ATOM      7  C   UNL     1      47.434   8.353  13.053  0.00  0.00    +0.000 A 
ATOM      8  C   UNL     1      46.372   9.033  12.458  0.00  0.00    +0.000 A 
ATOM      9  C   UNL     1      45.296   8.300  11.909  0.00  0.00    +0.000 A 
ENDROOT
BRANCH   1  11
ATOM     10  C   UNL     1      44.042  10.355   9.376  0.00  0.00    +0.000 C 
ATOM     11  C   UNL     1      43.521   9.954  10.780  0.00  0.00    +0.000 C 
ATOM     12  C   UNL     1      43.944  11.070  11.757  0.00  0.00    +0.000 C 
ATOM     13  C   UNL     1      41.978   9.927  10.708  0.00  0.00    +0.000 C 
ENDBRANCH   1  11
BRANCH   3  14
ATOM     14  C   UNL     1      43.732   5.091  11.235  0.00  0.00    +0.000 C 
BRANCH  14  15
ATOM     15  C   UNL     1      44.588   4.378  10.228  0.00  0.00    +0.000 A 
ATOM     16  C   UNL     1      45.341   5.080   9.285  0.00  0.00    +0.000 A 
ATOM     17  C   UNL     1      45.980   4.391   8.256  0.00  0.00    +0.000 A 
ATOM     18  C   UNL     1      45.852   3.005   8.195  0.00  0.00    +0.000 A 
ATOM     19  N   UNL     1      45.196   2.298   9.145  0.00  0.00    +0.000 NA
ATOM     20  C   UNL     1      44.588   2.992  10.132  0.00  0.00    +0.000 A 
BRANCH  18  21
ATOM     21  C   UNL     1      46.342   2.239   6.992  0.00  0.00    +0.000 C 
BRANCH  21  22
ATOM     22  C   UNL     1      47.869   2.347   6.874  0.00  0.00    +0.000 C 
BRANCH  22  23
ATOM     23  N   UNL     1      48.358   1.791   5.609  0.00  0.00    +0.000 NA
ATOM     24  H   UNL     1      47.670   1.146   5.224  0.00  0.00    +0.000 HD
ATOM     25  H   UNL     1      49.197   1.243   5.791  0.00  0.00    +0.000 HD
ENDBRANCH  22  23
ENDBRANCH  21  22
ENDBRANCH  18  21
ENDBRANCH  14  15
ENDBRANCH   3  14
TORSDOF 6
ENDMDL
MODEL 6
REMARK VINA RESULT:    -5.981      2.191      6.428
REMARK INTER + INTRA:          -8.577
REMARK INTER:                  -7.567
REMARK INTRA:                  -1.010
REMARK UNBOUND:                -0.673
REMARK  Name = 
REMARK  9 active torsions:
REMARK  status: ('A' for Active; 'I' for Inactive)
REMARK    1  A    between atoms: C_1  and  C_2
REMARK    2  A    between atoms: C_2  and  C_3
REMARK    3  A    between atoms: C_2  and  C_4
REMARK    4  A    between atoms: C_2  and  C_5
REMARK    5  A    between atoms: N_7  and  C_8
REMARK    6  A    between atoms: C_8  and  C_9
REMARK    7  A    between atoms: C_12  and  C_13
REMARK    8  A    between atoms: C_13  and  C_14
REMARK    9  A    between atoms: C_14  and  N_15
REMARK                            x       y       z     vdW  Elec       q    Type
REMARK                         _______ _______ _______ _____ _____    ______ ____
ROOT
ATOM      1  C   UNL     1      45.342   4.300   9.440  0.00  0.00    +0.000 A 
ATOM      2  N   UNL     1      45.786   5.567   9.458  0.00  0.00    +0.000 NA
ATOM      3  N   UNL     1      45.389   6.051  10.653  0.00  0.00    +0.000 N 
ATOM      4  C   UNL     1      44.670   5.153  11.405  0.00  0.00    +0.000 A 
ATOM      5  C   UNL     1      44.059   5.259  12.661  0.00  0.00    +0.000 A 
ATOM      6  C   UNL     1      43.405   4.131  13.166  0.00  0.00    +0.000 A 
ATOM      7  C   UNL     1      43.372   2.948  12.436  0.00  0.00    +0.000 A 
ATOM      8  C   UNL     1      43.983   2.854  11.187  0.00  0.00    +0.000 A 
ATOM      9  C   UNL     1      44.646   3.979  10.649  0.00  0.00    +0.000 A 
ENDROOT
BRANCH   1  11
ATOM     10  C   UNL     1      45.964   1.976   8.614  0.00  0.00    +0.000 C 
ATOM     11  C   UNL     1      45.593   3.426   8.208  0.00  0.00    +0.000 C 
ATOM     12  C   UNL     1      46.762   3.974   7.364  0.00  0.00    +0.000 C 
ATOM     13  C   UNL     1      44.338   3.346   7.312  0.00  0.00    +0.000 C 
ENDBRANCH   1  11
BRANCH   3  14
ATOM     14  C   UNL     1      45.698   7.440  10.998  0.00  0.00    +0.000 C 
BRANCH  14  15
ATOM     15  C   UNL     1      46.831   7.510  11.981  0.00  0.00    +0.000 A 
ATOM     16  C   UNL     1      48.070   6.931  11.707  0.00  0.00    +0.000 A 
ATOM     17  C   UNL     1      49.038   6.859  12.708  0.00  0.00    +0.000 A 
ATOM     18  C   UNL     1      48.742   7.375  13.966  0.00  0.00    +0.000 A 
ATOM     19  N   UNL     1      47.579   8.015  14.229  0.00  0.00    +0.000 NA
ATOM     20  C   UNL     1      46.659   8.071  13.240  0.00  0.00    +0.000 A 
BRANCH  18  21
ATOM     21  C   UNL     1      49.666   7.134  15.134  0.00  0.00    +0.000 C 
BRANCH  21  22
ATOM     22  C   UNL     1      48.958   6.301  16.213  0.00  0.00    +0.000 C 
BRANCH  22  23
ATOM     23  N   UNL     1      47.983   5.374  15.633  0.00  0.00    +0.000 NA
ATOM     24  H   UNL     1      47.864   5.571  14.641  0.00  0.00    +0.000 HD
ATOM     25  H   UNL     1      47.075   5.532  16.068  0.00  0.00    +0.000 HD
ENDBRANCH  22  23
ENDBRANCH  21  22
ENDBRANCH  18  21
ENDBRANCH  14  15
ENDBRANCH   3  14
TORSDOF 6
ENDMDL
MODEL 7
REMARK VINA RESULT:    -5.886      3.771      6.687
REMARK INTER + INTRA:          -8.452
REMARK INTER:                  -7.481
REMARK INTRA:                  -0.971
REMARK UNBOUND:                -0.673
REMARK  Name = 
REMARK  9 active torsions:
REMARK  status: ('A' for Active; 'I' for Inactive)
REMARK    1  A    between atoms: C_1  and  C_2
REMARK    2  A    between atoms: C_2  and  C_3
REMARK    3  A    between atoms: C_2  and  C_4
REMARK    4  A    between atoms: C_2  and  C_5
REMARK    5  A    between atoms: N_7  and  C_8
REMARK    6  A    between atoms: C_8  and  C_9
REMARK    7  A    between atoms: C_12  and  C_13
REMARK    8  A    between atoms: C_13  and  C_14
REMARK    9  A    between atoms: C_14  and  N_15
REMARK                            x       y       z     vdW  Elec       q    Type
REMARK                         _______ _______ _______ _____ _____    ______ ____
ROOT
ATOM      1  C   UNL     1      49.265   5.795  17.317  0.00  0.00    +0.000 A 
ATOM      2  N   UNL     1      49.268   5.514  16.003  0.00  0.00    +0.000 NA
ATOM      3  N   UNL     1      48.865   6.657  15.409  0.00  0.00    +0.000 N 
ATOM      4  C   UNL     1      48.565   7.665  16.292  0.00  0.00    +0.000 A 
ATOM      5  C   UNL     1      48.090   8.970  16.100  0.00  0.00    +0.000 A 
ATOM      6  C   UNL     1      47.900   9.769  17.232  0.00  0.00    +0.000 A 
ATOM      7  C   UNL     1      48.178   9.273  18.501  0.00  0.00    +0.000 A 
ATOM      8  C   UNL     1      48.648   7.973  18.680  0.00  0.00    +0.000 A 
ATOM      9  C   UNL     1      48.845   7.142  17.556  0.00  0.00    +0.000 A 
ENDROOT
BRANCH   1  11
ATOM     10  C   UNL     1      50.900   5.129  19.147  0.00  0.00    +0.000 C 
ATOM     11  C   UNL     1      49.655   4.709  18.324  0.00  0.00    +0.000 C 
ATOM     12  C   UNL     1      50.005   3.387  17.612  0.00  0.00    +0.000 C 
ATOM     13  C   UNL     1      48.511   4.438  19.326  0.00  0.00    +0.000 C 
ENDBRANCH   1  11
BRANCH   3  14
ATOM     14  C   UNL     1      48.737   6.695  13.952  0.00  0.00    +0.000 C 
BRANCH  14  15
ATOM     15  C   UNL     1      47.387   6.203  13.517  0.00  0.00    +0.000 A 
ATOM     16  C   UNL     1      46.417   7.077  13.025  0.00  0.00    +0.000 A 
ATOM     17  C   UNL     1      45.120   6.619  12.799  0.00  0.00    +0.000 A 
ATOM     18  C   UNL     1      44.823   5.286  13.072  0.00  0.00    +0.000 A 
ATOM     19  N   UNL     1      45.768   4.402  13.470  0.00  0.00    +0.000 NA
ATOM     20  C   UNL     1      47.017   4.874  13.679  0.00  0.00    +0.000 A 
BRANCH  18  21
ATOM     21  C   UNL     1      43.397   4.795  13.049  0.00  0.00    +0.000 C 
BRANCH  21  22
ATOM     22  C   UNL     1      43.229   3.688  11.997  0.00  0.00    +0.000 C 
BRANCH  22  23
ATOM     23  N   UNL     1      43.515   2.362  12.551  0.00  0.00    +0.000 NA
ATOM     24  H   UNL     1      43.847   1.742  11.814  0.00  0.00    +0.000 HD
ATOM     25  H   UNL     1      42.648   1.956  12.900  0.00  0.00    +0.000 HD
ENDBRANCH  22  23
ENDBRANCH  21  22
ENDBRANCH  18  21
ENDBRANCH  14  15
ENDBRANCH   3  14
TORSDOF 6
ENDMDL
MODEL 8
REMARK VINA RESULT:    -5.823      2.879      6.835
REMARK INTER + INTRA:          -8.368
REMARK INTER:                  -8.161
REMARK INTRA:                  -0.207
REMARK UNBOUND:                -0.673
REMARK  Name = 
REMARK  9 active torsions:
REMARK  status: ('A' for Active; 'I' for Inactive)
REMARK    1  A    between atoms: C_1  and  C_2
REMARK    2  A    between atoms: C_2  and  C_3
REMARK    3  A    between atoms: C_2  and  C_4
REMARK    4  A    between atoms: C_2  and  C_5
REMARK    5  A    between atoms: N_7  and  C_8
REMARK    6  A    between atoms: C_8  and  C_9
REMARK    7  A    between atoms: C_12  and  C_13
REMARK    8  A    between atoms: C_13  and  C_14
REMARK    9  A    between atoms: C_14  and  N_15
REMARK                            x       y       z     vdW  Elec       q    Type
REMARK                         _______ _______ _______ _____ _____    ______ ____
ROOT
ATOM      1  C   UNL     1      44.959   5.875  11.590  0.00  0.00    +0.000 A 
ATOM      2  N   UNL     1      46.118   5.540  12.179  0.00  0.00    +0.000 NA
ATOM      3  N   UNL     1      46.701   6.718  12.482  0.00  0.00    +0.000 N 
ATOM      4  C   UNL     1      45.979   7.814  12.078  0.00  0.00    +0.000 A 
ATOM      5  C   UNL     1      46.234   9.190  12.165  0.00  0.00    +0.000 A 
ATOM      6  C   UNL     1      45.266  10.066  11.664  0.00  0.00    +0.000 A 
ATOM      7  C   UNL     1      44.093   9.576  11.103  0.00  0.00    +0.000 A 
ATOM      8  C   UNL     1      43.850   8.206  11.021  0.00  0.00    +0.000 A 
ATOM      9  C   UNL     1      44.811   7.297  11.514  0.00  0.00    +0.000 A 
ENDROOT
BRANCH   1  11
ATOM     10  C   UNL     1      44.393   3.398  11.686  0.00  0.00    +0.000 C 
ATOM     11  C   UNL     1      44.021   4.777  11.083  0.00  0.00    +0.000 C 
ATOM     12  C   UNL     1      44.101   4.638   9.549  0.00  0.00    +0.000 C 
ATOM     13  C   UNL     1      42.555   5.068  11.471  0.00  0.00    +0.000 C 
ENDBRANCH   1  11
BRANCH   3  14
ATOM     14  C   UNL     1      48.013   6.718  13.130  0.00  0.00    +0.000 C 
BRANCH  14  15
ATOM     15  C   UNL     1      47.974   5.958  14.424  0.00  0.00    +0.000 A 
ATOM     16  C   UNL     1      48.710   6.372  15.535  0.00  0.00    +0.000 A 
ATOM     17  C   UNL     1      48.792   5.551  16.658  0.00  0.00    +0.000 A 
ATOM     18  C   UNL     1      48.129   4.326  16.644  0.00  0.00    +0.000 A 
ATOM     19  N   UNL     1      47.343   3.943  15.611  0.00  0.00    +0.000 NA
ATOM     20  C   UNL     1      47.280   4.759  14.536  0.00  0.00    +0.000 A 
BRANCH  18  21
ATOM     21  C   UNL     1      48.357   3.314  17.739  0.00  0.00    +0.000 C 
BRANCH  21  22
ATOM     22  C   UNL     1      49.633   2.505  17.462  0.00  0.00    +0.000 C 
BRANCH  22  23
ATOM     23  N   UNL     1      49.591   1.854  16.150  0.00  0.00    +0.000 NA
ATOM     24  H   UNL     1      49.799   2.533  15.419  0.00  0.00    +0.000 HD
ATOM     25  H   UNL     1      48.644   1.524  15.975  0.00  0.00    +0.000 HD
ENDBRANCH  22  23
ENDBRANCH  21  22
ENDBRANCH  18  21
ENDBRANCH  14  15
ENDBRANCH   3  14
TORSDOF 6
ENDMDL
MODEL 9
REMARK VINA RESULT:    -5.241      3.667      6.657
REMARK INTER + INTRA:          -7.599
REMARK INTER:                  -7.392
REMARK INTRA:                  -0.207
REMARK UNBOUND:                -0.673
REMARK  Name = 
REMARK  9 active torsions:
REMARK  status: ('A' for Active; 'I' for Inactive)
REMARK    1  A    between atoms: C_1  and  C_2
REMARK    2  A    between atoms: C_2  and  C_3
REMARK    3  A    between atoms: C_2  and  C_4
REMARK    4  A    between atoms: C_2  and  C_5
REMARK    5  A    between atoms: N_7  and  C_8
REMARK    6  A    between atoms: C_8  and  C_9
REMARK    7  A    between atoms: C_12  and  C_13
REMARK    8  A    between atoms: C_13  and  C_14
REMARK    9  A    between atoms: C_14  and  N_15
REMARK                            x       y       z     vdW  Elec       q    Type
REMARK                         _______ _______ _______ _____ _____    ______ ____
ROOT
ATOM      1  C   UNL     1      49.106   5.192  16.846  0.00  0.00    +0.000 A 
ATOM      2  N   UNL     1      48.298   5.714  15.909  0.00  0.00    +0.000 NA
ATOM      3  N   UNL     1      49.052   6.646  15.289  0.00  0.00    +0.000 N 
ATOM      4  C   UNL     1      50.315   6.776  15.813  0.00  0.00    +0.000 A 
ATOM      5  C   UNL     1      51.380   7.629  15.493  0.00  0.00    +0.000 A 
ATOM      6  C   UNL     1      52.566   7.493  16.220  0.00  0.00    +0.000 A 
ATOM      7  C   UNL     1      52.674   6.537  17.224  0.00  0.00    +0.000 A 
ATOM      8  C   UNL     1      51.608   5.695  17.535  0.00  0.00    +0.000 A 
ATOM      9  C   UNL     1      50.395   5.813  16.821  0.00  0.00    +0.000 A 
ENDROOT
BRANCH   1  11
ATOM     10  C   UNL     1      49.469   2.830  17.716  0.00  0.00    +0.000 C 
ATOM     11  C   UNL     1      48.577   4.097  17.778  0.00  0.00    +0.000 C 
ATOM     12  C   UNL     1      47.150   3.668  17.381  0.00  0.00    +0.000 C 
ATOM     13  C   UNL     1      48.555   4.573  19.246  0.00  0.00    +0.000 C 
ENDBRANCH   1  11
BRANCH   3  14
ATOM     14  C   UNL     1      48.463   7.433  14.206  0.00  0.00    +0.000 C 
BRANCH  14  15
ATOM     15  C   UNL     1      47.253   6.748  13.639  0.00  0.00    +0.000 A 
ATOM     16  C   UNL     1      47.171   5.357  13.566  0.00  0.00    +0.000 A 
ATOM     17  C   UNL     1      46.119   4.759  12.875  0.00  0.00    +0.000 A 
ATOM     18  C   UNL     1      45.164   5.573  12.271  0.00  0.00    +0.000 A 
ATOM     19  N   UNL     1      45.179   6.921  12.399  0.00  0.00    +0.000 NA
ATOM     20  C   UNL     1      46.210   7.473  13.076  0.00  0.00    +0.000 A 
BRANCH  18  21
ATOM     21  C   UNL     1      44.132   4.989  11.339  0.00  0.00    +0.000 C 
BRANCH  21  22
ATOM     22  C   UNL     1      42.717   5.357  11.809  0.00  0.00    +0.000 C 
BRANCH  22  23
ATOM     23  N   UNL     1      42.651   5.516  13.264  0.00  0.00    +0.000 NA
ATOM     24  H   UNL     1      41.679   5.536  13.568  0.00  0.00    +0.000 HD
ATOM     25  H   UNL     1      43.049   6.419  13.517  0.00  0.00    +0.000 HD
ENDBRANCH  22  23
ENDBRANCH  21  22
ENDBRANCH  18  21
ENDBRANCH  14  15
ENDBRANCH   3  14
TORSDOF 6
ENDMDL
