MODEL 1
REMARK VINA RESULT:    -7.110      0.000      0.000
REMARK INTER + INTRA:          -9.801
REMARK INTER:                  -9.189
REMARK INTRA:                  -0.612
REMARK UNBOUND:                -0.612
REMARK  Name = 
REMARK  6 active torsions:
REMARK  status: ('A' for Active; 'I' for Inactive)
REMARK    1  A    between atoms: N_1  and  C_2
REMARK    2  A    between atoms: C_2  and  C_3
REMARK    3  A    between atoms: C_6  and  C_7
REMARK    4  A    between atoms: C_7  and  N_8
REMARK    5  A    between atoms: C_13  and  C_14
REMARK    6  A    between atoms: C_14  and  O_16
REMARK                            x       y       z     vdW  Elec       q    Type
REMARK                         _______ _______ _______ _____ _____    ______ ____
ROOT
ATOM      1  N   UNL     1      44.425   4.365  10.264  0.00  0.00    +0.000 N 
ATOM      2  C   UNL     1      43.799   3.230  10.724  0.00  0.00    +0.000 A 
ATOM      3  C   UNL     1      44.279   2.156  10.007  0.00  0.00    +0.000 A 
ATOM      4  C   UNL     1      45.177   2.659   9.032  0.00  0.00    +0.000 A 
ATOM      5  C   UNL     1      45.955   2.084   8.013  0.00  0.00    +0.000 A 
ATOM      6  C   UNL     1      46.719   2.939   7.218  0.00  0.00    +0.000 A 
ATOM      7  C   UNL     1      46.707   4.302   7.499  0.00  0.00    +0.000 A 
ATOM      8  N   UNL     1      45.975   4.909   8.468  0.00  0.00    +0.000 NA
ATOM      9  C   UNL     1      45.238   4.043   9.199  0.00  0.00    +0.000 A 
ENDROOT
BRANCH   6  10
ATOM     10  C   UNL     1      47.551   2.353   6.146  0.00  0.00    +0.000 C 
ATOM     11  O   UNL     1      48.187   1.327   6.296  0.00  0.00    +0.000 OA
BRANCH  10  12
ATOM     12  O   UNL     1      47.508   3.026   4.975  0.00  0.00    +0.000 OA
ATOM     13  H   UNL     1      46.784   3.669   4.872  0.00  0.00    +0.000 HD
ENDBRANCH  10  12
ENDBRANCH   6  10
BRANCH   1  14
ATOM     14  C   UNL     1      44.254   5.691  10.844  0.00  0.00    +0.000 C 
BRANCH  14  18
ATOM     15  C   UNL     1      47.060   7.766  12.318  0.00  0.00    +0.000 C 
ATOM     16  C   UNL     1      47.195   6.330  11.784  0.00  0.00    +0.000 C 
ATOM     17  C   UNL     1      46.228   5.359  12.458  0.00  0.00    +0.000 C 
ATOM     18  C   UNL     1      44.766   5.801  12.302  0.00  0.00    +0.000 C 
ATOM     19  C   UNL     1      44.600   7.221  12.867  0.00  0.00    +0.000 C 
ATOM     20  C   UNL     1      45.592   8.231  12.287  0.00  0.00    +0.000 C 
BRANCH  15  21
ATOM     21  C   UNL     1      47.682   7.936  13.721  0.00  0.00    +0.000 C 
BRANCH  21  22
ATOM     22  N   UNL     1      47.050   9.034  14.449  0.00  0.00    +0.000 NA
ATOM     23  H   UNL     1      47.597   9.262  15.277  0.00  0.00    +0.000 HD
ATOM     24  H   UNL     1      46.130   8.745  14.779  0.00  0.00    +0.000 HD
ENDBRANCH  21  22
ENDBRANCH  15  21
ENDBRANCH  14  18
ENDBRANCH   1  14
TORSDOF 6
ENDMDL
MODEL 2
REMARK VINA RESULT:    -6.596      1.360      1.669
REMARK INTER + INTRA:          -9.137
REMARK INTER:                  -8.508
REMARK INTRA:                  -0.628
REMARK UNBOUND:                -0.612
REMARK  Name = 
REMARK  6 active torsions:
REMARK  status: ('A' for Active; 'I' for Inactive)
REMARK    1  A    between atoms: N_1  and  C_2
REMARK    2  A    between atoms: C_2  and  C_3
REMARK    3  A    between atoms: C_6  and  C_7
REMARK    4  A    between atoms: C_7  and  N_8
REMARK    5  A    between atoms: C_13  and  C_14
REMARK    6  A    between atoms: C_14  and  O_16
REMARK                            x       y       z     vdW  Elec       q    Type
REMARK                         _______ _______ _______ _____ _____    ______ ____
ROOT
ATOM      1  N   UNL     1      44.175   5.450  11.143  0.00  0.00    +0.000 N 
ATOM      2  C   UNL     1      43.295   4.667  11.853  0.00  0.00    +0.000 A 
ATOM      3  C   UNL     1      43.411   3.371  11.399  0.00  0.00    +0.000 A 
ATOM      4  C   UNL     1      44.344   3.375  10.331  0.00  0.00    +0.000 A 
ATOM      5  C   UNL     1      44.863   2.395   9.467  0.00  0.00    +0.000 A 
ATOM      6  C   UNL     1      45.776   2.805   8.495  0.00  0.00    +0.000 A 
ATOM      7  C   UNL     1      46.157   4.143   8.456  0.00  0.00    +0.000 A 
ATOM      8  N   UNL     1      45.688   5.128   9.263  0.00  0.00    +0.000 NA
ATOM      9  C   UNL     1      44.794   4.687  10.177  0.00  0.00    +0.000 A 
ENDROOT
BRANCH   6  10
ATOM     10  C   UNL     1      46.340   1.788   7.582  0.00  0.00    +0.000 C 
ATOM     11  O   UNL     1      46.505   0.629   7.912  0.00  0.00    +0.000 OA
BRANCH  10  12
ATOM     12  O   UNL     1      46.612   2.243   6.339  0.00  0.00    +0.000 OA
ATOM     13  H   UNL     1      46.399   3.177   6.164  0.00  0.00    +0.000 HD
ENDBRANCH  10  12
ENDBRANCH   6  10
BRANCH   1  14
ATOM     14  C   UNL     1      44.413   6.863  11.405  0.00  0.00    +0.000 C 
BRANCH  14  18
ATOM     15  C   UNL     1      47.973   7.892  12.196  0.00  0.00    +0.000 C 
ATOM     16  C   UNL     1      47.459   6.445  12.107  0.00  0.00    +0.000 C 
ATOM     17  C   UNL     1      46.278   6.182  13.040  0.00  0.00    +0.000 C 
ATOM     18  C   UNL     1      45.105   7.133  12.765  0.00  0.00    +0.000 C 
ATOM     19  C   UNL     1      45.588   8.588  12.888  0.00  0.00    +0.000 C 
ATOM     20  C   UNL     1      46.818   8.899  12.034  0.00  0.00    +0.000 C 
BRANCH  15  21
ATOM     21  C   UNL     1      48.781   8.155  13.486  0.00  0.00    +0.000 C 
BRANCH  21  22
ATOM     22  N   UNL     1      49.655   7.029  13.800  0.00  0.00    +0.000 NA
ATOM     23  H   UNL     1      50.491   7.064  13.218  0.00  0.00    +0.000 HD
ATOM     24  H   UNL     1      49.184   6.153  13.576  0.00  0.00    +0.000 HD
ENDBRANCH  21  22
ENDBRANCH  15  21
ENDBRANCH  14  18
ENDBRANCH   1  14
TORSDOF 6
ENDMDL
MODEL 3
REMARK VINA RESULT:    -5.859      4.596      6.338
REMARK INTER + INTRA:          -8.183
REMARK INTER:                  -7.745
REMARK INTRA:                  -0.438
REMARK UNBOUND:                -0.612
REMARK  Name = 
REMARK  6 active torsions:
REMARK  status: ('A' for Active; 'I' for Inactive)
REMARK    1  A    between atoms: N_1  and  C_2
REMARK    2  A    between atoms: C_2  and  C_3
REMARK    3  A    between atoms: C_6  and  C_7
REMARK    4  A    between atoms: C_7  and  N_8
REMARK    5  A    between atoms: C_13  and  C_14
REMARK    6  A    between atoms: C_14  and  O_16
REMARK                            x       y       z     vdW  Elec       q    Type
REMARK                         _______ _______ _______ _____ _____    ______ ____
ROOT
ATOM      1  N   UNL     1      47.480   5.456  14.528  0.00  0.00    +0.000 N 
ATOM      2  C   UNL     1      48.027   6.648  14.115  0.00  0.00    +0.000 A 
ATOM      3  C   UNL     1      47.472   6.976  12.898  0.00  0.00    +0.000 A 
ATOM      4  C   UNL     1      46.607   5.916  12.523  0.00  0.00    +0.000 A 
ATOM      5  C   UNL     1      45.788   5.654  11.412  0.00  0.00    +0.000 A 
ATOM      6  C   UNL     1      45.083   4.450  11.395  0.00  0.00    +0.000 A 
ATOM      7  C   UNL     1      45.190   3.596  12.489  0.00  0.00    +0.000 A 
ATOM      8  N   UNL     1      45.965   3.800  13.584  0.00  0.00    +0.000 NA
ATOM      9  C   UNL     1      46.643   4.969  13.548  0.00  0.00    +0.000 A 
ENDROOT
BRANCH   6  10
ATOM     10  C   UNL     1      44.208   4.159  10.239  0.00  0.00    +0.000 C 
ATOM     11  O   UNL     1      44.171   3.068   9.703  0.00  0.00    +0.000 OA
BRANCH  10  12
ATOM     12  O   UNL     1      43.423   5.191   9.859  0.00  0.00    +0.000 OA
ATOM     13  H   UNL     1      43.054   5.740  10.574  0.00  0.00    +0.000 HD
ENDBRANCH  10  12
ENDBRANCH   6  10
BRANCH   1  14
ATOM     14  C   UNL     1      47.744   4.832  15.819  0.00  0.00    +0.000 C 
BRANCH  14  18
ATOM     15  C   UNL     1      48.540   4.610  19.516  0.00  0.00    +0.000 C 
ATOM     16  C   UNL     1      47.532   5.580  18.874  0.00  0.00    +0.000 C 
ATOM     17  C   UNL     1      48.161   6.442  17.781  0.00  0.00    +0.000 C 
ATOM     18  C   UNL     1      48.793   5.591  16.670  0.00  0.00    +0.000 C 
ATOM     19  C   UNL     1      49.834   4.640  17.285  0.00  0.00    +0.000 C 
ATOM     20  C   UNL     1      49.287   3.800  18.440  0.00  0.00    +0.000 C 
BRANCH  15  21
ATOM     21  C   UNL     1      49.518   5.323  20.475  0.00  0.00    +0.000 C 
BRANCH  21  22
ATOM     22  N   UNL     1      50.625   4.446  20.847  0.00  0.00    +0.000 NA
ATOM     23  H   UNL     1      50.265   3.556  21.186  0.00  0.00    +0.000 HD
ATOM     24  H   UNL     1      51.149   4.860  21.618  0.00  0.00    +0.000 HD
ENDBRANCH  21  22
ENDBRANCH  15  21
ENDBRANCH  14  18
ENDBRANCH   1  14
TORSDOF 6
ENDMDL
MODEL 4
REMARK VINA RESULT:    -5.750      5.221      8.328
REMARK INTER + INTRA:          -8.043
REMARK INTER:                  -7.572
REMARK INTRA:                  -0.471
REMARK UNBOUND:                -0.612
REMARK  Name = 
REMARK  6 active torsions:
REMARK  status: ('A' for Active; 'I' for Inactive)
REMARK    1  A    between atoms: N_1  and  C_2
REMARK    2  A    between atoms: C_2  and  C_3
REMARK    3  A    between atoms: C_6  and  C_7
REMARK    4  A    between atoms: C_7  and  N_8
REMARK    5  A    between atoms: C_13  and  C_14
REMARK    6  A    between atoms: C_14  and  O_16
REMARK                            x       y       z     vdW  Elec       q    Type
REMARK                         _______ _______ _______ _____ _____    ______ ____
ROOT
ATOM      1  N   UNL     1      48.134   6.523  14.201  0.00  0.00    +0.000 N 
ATOM      2  C   UNL     1      48.671   7.781  14.347  0.00  0.00    +0.000 A 
ATOM      3  C   UNL     1      49.235   7.864  15.600  0.00  0.00    +0.000 A 
ATOM      4  C   UNL     1      48.977   6.639  16.268  0.00  0.00    +0.000 A 
ATOM      5  C   UNL     1      49.269   6.127  17.543  0.00  0.00    +0.000 A 
ATOM      6  C   UNL     1      48.811   4.845  17.848  0.00  0.00    +0.000 A 
ATOM      7  C   UNL     1      48.132   4.126  16.868  0.00  0.00    +0.000 A 
ATOM      8  N   UNL     1      47.824   4.572  15.624  0.00  0.00    +0.000 NA
ATOM      9  C   UNL     1      48.272   5.824  15.381  0.00  0.00    +0.000 A 
ENDROOT
BRANCH   6  10
ATOM     10  C   UNL     1      49.114   4.284  19.182  0.00  0.00    +0.000 C 
ATOM     11  O   UNL     1      49.943   4.773  19.926  0.00  0.00    +0.000 OA
BRANCH  10  12
ATOM     12  O   UNL     1      48.363   3.214  19.522  0.00  0.00    +0.000 OA
ATOM     13  H   UNL     1      47.864   3.282  20.355  0.00  0.00    +0.000 HD
ENDBRANCH  10  12
ENDBRANCH   6  10
BRANCH   1  14
ATOM     14  C   UNL     1      47.537   6.021  12.971  0.00  0.00    +0.000 C 
BRANCH  14  18
ATOM     15  C   UNL     1      44.939   4.264  10.846  0.00  0.00    +0.000 C 
ATOM     16  C   UNL     1      45.663   5.570  10.475  0.00  0.00    +0.000 C 
ATOM     17  C   UNL     1      45.498   6.655  11.537  0.00  0.00    +0.000 C 
ATOM     18  C   UNL     1      45.998   6.195  12.913  0.00  0.00    +0.000 C 
ATOM     19  C   UNL     1      45.258   4.910  13.322  0.00  0.00    +0.000 C 
ATOM     20  C   UNL     1      45.320   3.805  12.266  0.00  0.00    +0.000 C 
BRANCH  15  21
ATOM     21  C   UNL     1      43.408   4.366  10.672  0.00  0.00    +0.000 C 
BRANCH  21  22
ATOM     22  N   UNL     1      42.719   3.330  11.436  0.00  0.00    +0.000 NA
ATOM     23  H   UNL     1      42.095   2.805  10.827  0.00  0.00    +0.000 HD
ATOM     24  H   UNL     1      42.132   3.761  12.151  0.00  0.00    +0.000 HD
ENDBRANCH  21  22
ENDBRANCH  15  21
ENDBRANCH  14  18
ENDBRANCH   1  14
TORSDOF 6
ENDMDL
MODEL 5
REMARK VINA RESULT:    -5.447      4.297      6.392
REMARK INTER + INTRA:          -7.652
REMARK INTER:                  -7.013
REMARK INTRA:                  -0.639
REMARK UNBOUND:                -0.612
REMARK  Name = 
REMARK  6 active torsions:
REMARK  status: ('A' for Active; 'I' for Inactive)
REMARK    1  A    between atoms: N_1  and  C_2
REMARK    2  A    between atoms: C_2  and  C_3
REMARK    3  A    between atoms: C_6  and  C_7
REMARK    4  A    between atoms: C_7  and  N_8
REMARK    5  A    between atoms: C_13  and  C_14
REMARK    6  A    between atoms: C_14  and  O_16
REMARK                            x       y       z     vdW  Elec       q    Type
REMARK                         _______ _______ _______ _____ _____    ______ ____
ROOT
ATOM      1  N   UNL     1      47.748   6.722  13.952  0.00  0.00    +0.000 N 
ATOM      2  C   UNL     1      47.268   7.960  13.594  0.00  0.00    +0.000 A 
ATOM      3  C   UNL     1      46.046   7.786  12.981  0.00  0.00    +0.000 A 
ATOM      4  C   UNL     1      45.803   6.391  12.902  0.00  0.00    +0.000 A 
ATOM      5  C   UNL     1      44.767   5.596  12.383  0.00  0.00    +0.000 A 
ATOM      6  C   UNL     1      44.904   4.210  12.476  0.00  0.00    +0.000 A 
ATOM      7  C   UNL     1      46.028   3.690  13.109  0.00  0.00    +0.000 A 
ATOM      8  N   UNL     1      47.056   4.411  13.626  0.00  0.00    +0.000 NA
ATOM      9  C   UNL     1      46.887   5.746  13.497  0.00  0.00    +0.000 A 
ENDROOT
BRANCH   6  10
ATOM     10  C   UNL     1      43.821   3.356  11.944  0.00  0.00    +0.000 C 
ATOM     11  O   UNL     1      43.088   3.712  11.041  0.00  0.00    +0.000 OA
BRANCH  10  12
ATOM     12  O   UNL     1      43.746   2.132  12.512  0.00  0.00    +0.000 OA
ATOM     13  H   UNL     1      42.877   1.692  12.479  0.00  0.00    +0.000 HD
ENDBRANCH  10  12
ENDBRANCH   6  10
BRANCH   1  14
ATOM     14  C   UNL     1      48.971   6.502  14.713  0.00  0.00    +0.000 C 
BRANCH  14  18
ATOM     15  C   UNL     1      49.938   4.379  17.698  0.00  0.00    +0.000 C 
ATOM     16  C   UNL     1      48.573   4.355  16.988  0.00  0.00    +0.000 C 
ATOM     17  C   UNL     1      47.917   5.734  16.930  0.00  0.00    +0.000 C 
ATOM     18  C   UNL     1      48.812   6.768  16.231  0.00  0.00    +0.000 C 
ATOM     19  C   UNL     1      50.170   6.836  16.950  0.00  0.00    +0.000 C 
ATOM     20  C   UNL     1      50.847   5.474  17.109  0.00  0.00    +0.000 C 
BRANCH  15  21
ATOM     21  C   UNL     1      49.805   4.511  19.230  0.00  0.00    +0.000 C 
BRANCH  21  22
ATOM     22  N   UNL     1      48.747   3.647  19.746  0.00  0.00    +0.000 NA
ATOM     23  H   UNL     1      48.821   2.720  19.329  0.00  0.00    +0.000 HD
ATOM     24  H   UNL     1      47.837   4.015  19.473  0.00  0.00    +0.000 HD
ENDBRANCH  21  22
ENDBRANCH  15  21
ENDBRANCH  14  18
ENDBRANCH   1  14
TORSDOF 6
ENDMDL
MODEL 6
REMARK VINA RESULT:    -5.282      3.553      5.306
REMARK INTER + INTRA:          -7.438
REMARK INTER:                  -6.844
REMARK INTRA:                  -0.595
REMARK UNBOUND:                -0.612
REMARK  Name = 
REMARK  6 active torsions:
REMARK  status: ('A' for Active; 'I' for Inactive)
REMARK    1  A    between atoms: N_1  and  C_2
REMARK    2  A    between atoms: C_2  and  C_3
REMARK    3  A    between atoms: C_6  and  C_7
REMARK    4  A    between atoms: C_7  and  N_8
REMARK    5  A    between atoms: C_13  and  C_14
REMARK    6  A    between atoms: C_14  and  O_16
REMARK                            x       y       z     vdW  Elec       q    Type
REMARK                         _______ _______ _______ _____ _____    ______ ____
ROOT
ATOM      1  N   UNL     1      45.763   8.053  12.601  0.00  0.00    +0.000 N 
ATOM      2  C   UNL     1      44.989   8.823  11.765  0.00  0.00    +0.000 A 
ATOM      3  C   UNL     1      44.091   7.996  11.127  0.00  0.00    +0.000 A 
ATOM      4  C   UNL     1      44.370   6.667  11.536  0.00  0.00    +0.000 A 
ATOM      5  C   UNL     1      43.832   5.405  11.232  0.00  0.00    +0.000 A 
ATOM      6  C   UNL     1      44.410   4.289  11.838  0.00  0.00    +0.000 A 
ATOM      7  C   UNL     1      45.454   4.483  12.738  0.00  0.00    +0.000 A 
ATOM      8  N   UNL     1      46.011   5.676  13.066  0.00  0.00    +0.000 NA
ATOM      9  C   UNL     1      45.430   6.725  12.442  0.00  0.00    +0.000 A 
ENDROOT
BRANCH   6  10
ATOM     10  C   UNL     1      43.853   2.953  11.538  0.00  0.00    +0.000 C 
ATOM     11  O   UNL     1      43.739   2.530  10.403  0.00  0.00    +0.000 OA
BRANCH  10  12
ATOM     12  O   UNL     1      43.524   2.228  12.630  0.00  0.00    +0.000 OA
ATOM     13  H   UNL     1      43.874   1.320  12.667  0.00  0.00    +0.000 HD
ENDBRANCH  10  12
ENDBRANCH   6  10
BRANCH   1  14
ATOM     14  C   UNL     1      46.761   8.584  13.520  0.00  0.00    +0.000 C 
BRANCH  14  18
ATOM     15  C   UNL     1      50.497   7.951  13.574  0.00  0.00    +0.000 C 
ATOM     16  C   UNL     1      49.732   8.881  14.533  0.00  0.00    +0.000 C 
ATOM     17  C   UNL     1      48.924   9.947  13.796  0.00  0.00    +0.000 C 
ATOM     18  C   UNL     1      47.919   9.331  12.812  0.00  0.00    +0.000 C 
ATOM     19  C   UNL     1      48.668   8.427  11.819  0.00  0.00    +0.000 C 
ATOM     20  C   UNL     1      49.558   7.382  12.493  0.00  0.00    +0.000 C 
BRANCH  15  21
ATOM     21  C   UNL     1      51.736   8.630  12.952  0.00  0.00    +0.000 C 
BRANCH  21  22
ATOM     22  N   UNL     1      52.968   7.966  13.370  0.00  0.00    +0.000 NA
ATOM     23  H   UNL     1      52.765   7.284  14.099  0.00  0.00    +0.000 HD
ATOM     24  H   UNL     1      53.605   8.648  13.780  0.00  0.00    +0.000 HD
ENDBRANCH  21  22
ENDBRANCH  15  21
ENDBRANCH  14  18
ENDBRANCH   1  14
TORSDOF 6
ENDMDL
MODEL 7
REMARK VINA RESULT:    -5.271      3.244      5.092
REMARK INTER + INTRA:          -7.424
REMARK INTER:                  -6.925
REMARK INTRA:                  -0.499
REMARK UNBOUND:                -0.612
REMARK  Name = 
REMARK  6 active torsions:
REMARK  status: ('A' for Active; 'I' for Inactive)
REMARK    1  A    between atoms: N_1  and  C_2
REMARK    2  A    between atoms: C_2  and  C_3
REMARK    3  A    between atoms: C_6  and  C_7
REMARK    4  A    between atoms: C_7  and  N_8
REMARK    5  A    between atoms: C_13  and  C_14
REMARK    6  A    between atoms: C_14  and  O_16
REMARK                            x       y       z     vdW  Elec       q    Type
REMARK                         _______ _______ _______ _____ _____    ______ ____
ROOT
ATOM      1  N   UNL     1      46.869   6.737  13.403  0.00  0.00    +0.000 N 
ATOM      2  C   UNL     1      47.504   5.992  14.368  0.00  0.00    +0.000 A 
ATOM      3  C   UNL     1      47.138   4.674  14.203  0.00  0.00    +0.000 A 
ATOM      4  C   UNL     1      46.196   4.622  13.145  0.00  0.00    +0.000 A 
ATOM      5  C   UNL     1      45.457   3.598  12.528  0.00  0.00    +0.000 A 
ATOM      6  C   UNL     1      44.585   3.955  11.499  0.00  0.00    +0.000 A 
ATOM      7  C   UNL     1      44.522   5.290  11.109  0.00  0.00    +0.000 A 
ATOM      8  N   UNL     1      45.212   6.316  11.669  0.00  0.00    +0.000 NA
ATOM      9  C   UNL     1      46.029   5.924  12.672  0.00  0.00    +0.000 A 
ENDROOT
BRANCH   6  10
ATOM     10  C   UNL     1      43.805   2.892  10.831  0.00  0.00    +0.000 C 
ATOM     11  O   UNL     1      43.899   2.658   9.641  0.00  0.00    +0.000 OA
BRANCH  10  12
ATOM     12  O   UNL     1      43.016   2.174  11.661  0.00  0.00    +0.000 OA
ATOM     13  H   UNL     1      42.789   2.591  12.511  0.00  0.00    +0.000 HD
ENDBRANCH  10  12
ENDBRANCH   6  10
BRANCH   1  14
ATOM     14  C   UNL     1      47.083   8.162  13.190  0.00  0.00    +0.000 C 
BRANCH  14  18
ATOM     15  C   UNL     1      50.563   9.585  12.720  0.00  0.00    +0.000 C 
ATOM     16  C   UNL     1      49.264  10.406  12.803  0.00  0.00    +0.000 C 
ATOM     17  C   UNL     1      48.228   9.973  11.767  0.00  0.00    +0.000 C 
ATOM     18  C   UNL     1      47.872   8.485  11.897  0.00  0.00    +0.000 C 
ATOM     19  C   UNL     1      49.153   7.642  11.777  0.00  0.00    +0.000 C 
ATOM     20  C   UNL     1      50.262   8.074  12.737  0.00  0.00    +0.000 C 
BRANCH  15  21
ATOM     21  C   UNL     1      51.435   9.978  11.508  0.00  0.00    +0.000 C 
BRANCH  21  22
ATOM     22  N   UNL     1      52.381   8.918  11.172  0.00  0.00    +0.000 NA
ATOM     23  H   UNL     1      52.200   8.095  11.745  0.00  0.00    +0.000 HD
ATOM     24  H   UNL     1      53.330   9.220  11.390  0.00  0.00    +0.000 HD
ENDBRANCH  21  22
ENDBRANCH  15  21
ENDBRANCH  14  18
ENDBRANCH   1  14
TORSDOF 6
ENDMDL
MODEL 8
REMARK VINA RESULT:    -5.028      4.229      6.834
REMARK INTER + INTRA:          -7.111
REMARK INTER:                  -6.615
REMARK INTRA:                  -0.495
REMARK UNBOUND:                -0.612
REMARK  Name = 
REMARK  6 active torsions:
REMARK  status: ('A' for Active; 'I' for Inactive)
REMARK    1  A    between atoms: N_1  and  C_2
REMARK    2  A    between atoms: C_2  and  C_3
REMARK    3  A    between atoms: C_6  and  C_7
REMARK    4  A    between atoms: C_7  and  N_8
REMARK    5  A    between atoms: C_13  and  C_14
REMARK    6  A    between atoms: C_14  and  O_16
REMARK                            x       y       z     vdW  Elec       q    Type
REMARK                         _______ _______ _______ _____ _____    ______ ____
ROOT
ATOM      1  N   UNL     1      46.922   8.087  12.725  0.00  0.00    +0.000 N 
ATOM      2  C   UNL     1      46.171   9.225  12.548  0.00  0.00    +0.000 A 
ATOM      3  C   UNL     1      46.964  10.172  11.939  0.00  0.00    +0.000 A 
ATOM      4  C   UNL     1      48.261   9.618  11.800  0.00  0.00    +0.000 A 
ATOM      5  C   UNL     1      49.485  10.080  11.287  0.00  0.00    +0.000 A 
ATOM      6  C   UNL     1      50.582   9.220  11.349  0.00  0.00    +0.000 A 
ATOM      7  C   UNL     1      50.402   7.943  11.871  0.00  0.00    +0.000 A 
ATOM      8  N   UNL     1      49.245   7.447  12.380  0.00  0.00    +0.000 NA
ATOM      9  C   UNL     1      48.216   8.321  12.314  0.00  0.00    +0.000 A 
ENDROOT
BRANCH   6  10
ATOM     10  C   UNL     1      51.876   9.685  10.806  0.00  0.00    +0.000 C 
ATOM     11  O   UNL     1      51.958  10.392   9.820  0.00  0.00    +0.000 OA
BRANCH  10  12
ATOM     12  O   UNL     1      52.954   9.297  11.524  0.00  0.00    +0.000 OA
ATOM     13  H   UNL     1      53.773   9.806  11.384  0.00  0.00    +0.000 HD
ENDBRANCH  10  12
ENDBRANCH   6  10
BRANCH   1  14
ATOM     14  C   UNL     1      46.401   6.830  13.248  0.00  0.00    +0.000 C 
BRANCH  14  18
ATOM     15  C   UNL     1      43.551   4.670  11.998  0.00  0.00    +0.000 C 
ATOM     16  C   UNL     1      44.470   4.339  13.186  0.00  0.00    +0.000 C 
ATOM     17  C   UNL     1      45.949   4.338  12.803  0.00  0.00    +0.000 C 
ATOM     18  C   UNL     1      46.390   5.683  12.208  0.00  0.00    +0.000 C 
ATOM     19  C   UNL     1      45.508   6.015  10.992  0.00  0.00    +0.000 C 
ATOM     20  C   UNL     1      44.009   5.959  11.289  0.00  0.00    +0.000 C 
BRANCH  15  21
ATOM     21  C   UNL     1      43.416   3.493  11.007  0.00  0.00    +0.000 C 
BRANCH  21  22
ATOM     22  N   UNL     1      43.053   2.259  11.700  0.00  0.00    +0.000 NA
ATOM     23  H   UNL     1      43.230   1.457  11.098  0.00  0.00    +0.000 HD
ATOM     24  H   UNL     1      42.053   2.257  11.899  0.00  0.00    +0.000 HD
ENDBRANCH  21  22
ENDBRANCH  15  21
ENDBRANCH  14  18
ENDBRANCH   1  14
TORSDOF 6
ENDMDL
MODEL 9
REMARK VINA RESULT:    -5.001      3.559      6.447
REMARK INTER + INTRA:          -7.075
REMARK INTER:                  -6.535
REMARK INTRA:                  -0.540
REMARK UNBOUND:                -0.612
REMARK  Name = 
REMARK  6 active torsions:
REMARK  status: ('A' for Active; 'I' for Inactive)
REMARK    1  A    between atoms: N_1  and  C_2
REMARK    2  A    between atoms: C_2  and  C_3
REMARK    3  A    between atoms: C_6  and  C_7
REMARK    4  A    between atoms: C_7  and  N_8
REMARK    5  A    between atoms: C_13  and  C_14
REMARK    6  A    between atoms: C_14  and  O_16
REMARK                            x       y       z     vdW  Elec       q    Type
REMARK                         _______ _______ _______ _____ _____    ______ ____
ROOT
ATOM      1  N   UNL     1      45.883   7.451  12.857  0.00  0.00    +0.000 N 
ATOM      2  C   UNL     1      45.259   8.661  12.664  0.00  0.00    +0.000 A 
ATOM      3  C   UNL     1      46.187   9.548  12.165  0.00  0.00    +0.000 A 
ATOM      4  C   UNL     1      47.435   8.876  12.115  0.00  0.00    +0.000 A 
ATOM      5  C   UNL     1      48.737   9.235  11.727  0.00  0.00    +0.000 A 
ATOM      6  C   UNL     1      49.740   8.273  11.847  0.00  0.00    +0.000 A 
ATOM      7  C   UNL     1      49.396   7.002  12.299  0.00  0.00    +0.000 A 
ATOM      8  N   UNL     1      48.158   6.603  12.686  0.00  0.00    +0.000 NA
ATOM      9  C   UNL     1      47.225   7.574  12.569  0.00  0.00    +0.000 A 
ENDROOT
BRANCH   6  10
ATOM     10  C   UNL     1      51.115   8.628  11.437  0.00  0.00    +0.000 C 
ATOM     11  O   UNL     1      51.354   9.531  10.658  0.00  0.00    +0.000 OA
BRANCH  10  12
ATOM     12  O   UNL     1      52.082   7.898  12.034  0.00  0.00    +0.000 OA
ATOM     13  H   UNL     1      52.999   8.099  11.775  0.00  0.00    +0.000 HD
ENDBRANCH  10  12
ENDBRANCH   6  10
BRANCH   1  14
ATOM     14  C   UNL     1      45.203   6.234  13.282  0.00  0.00    +0.000 C 
BRANCH  14  18
ATOM     15  C   UNL     1      45.138   3.451  10.712  0.00  0.00    +0.000 C 
ATOM     16  C   UNL     1      45.555   4.908  10.443  0.00  0.00    +0.000 C 
ATOM     17  C   UNL     1      44.473   5.911  10.838  0.00  0.00    +0.000 C 
ATOM     18  C   UNL     1      44.080   5.782  12.316  0.00  0.00    +0.000 C 
ATOM     19  C   UNL     1      43.621   4.341  12.598  0.00  0.00    +0.000 C 
ATOM     20  C   UNL     1      44.630   3.280  12.156  0.00  0.00    +0.000 C 
BRANCH  15  21
ATOM     21  C   UNL     1      44.113   2.930   9.682  0.00  0.00    +0.000 C 
BRANCH  21  22
ATOM     22  N   UNL     1      44.396   3.447   8.346  0.00  0.00    +0.000 NA
ATOM     23  H   UNL     1      43.674   3.143   7.695  0.00  0.00    +0.000 HD
ATOM     24  H   UNL     1      45.276   3.059   8.005  0.00  0.00    +0.000 HD
ENDBRANCH  21  22
ENDBRANCH  15  21
ENDBRANCH  14  18
ENDBRANCH   1  14
TORSDOF 6
ENDMDL
