MODEL 1
REMARK VINA RESULT:    -9.264      0.000      0.000
REMARK INTER + INTRA:         -11.986
REMARK INTER:                 -11.431
REMARK INTRA:                  -0.556
REMARK UNBOUND:                -0.556
REMARK  Name = 
REMARK  4 active torsions:
REMARK  status: ('A' for Active; 'I' for Inactive)
REMARK    1  A    between atoms: C_2  and  C_4
REMARK    2  A    between atoms: N_8  and  C_9
REMARK    3  A    between atoms: C_9  and  C_10
REMARK    4  A    between atoms: C_14  and  C_15
REMARK                            x       y       z     vdW  Elec       q    Type
REMARK                         _______ _______ _______ _____ _____    ______ ____
ROOT
ATOM      1  C   UNL     1      43.944   4.865  11.505  0.00  0.00    +0.000 C 
ATOM      2  C   UNL     1      42.688   5.134  12.327  0.00  0.00    +0.000 C 
ATOM      3  C   UNL     1      43.023   6.025  11.177  0.00  0.00    +0.000 C 
ENDROOT
BRANCH   1   8
ATOM      4  C   UNL     1      46.393   2.706   7.557  0.00  0.00    +0.000 A 
ATOM      5  C   UNL     1      45.901   1.768   8.427  0.00  0.00    +0.000 A 
ATOM      6  N   UNL     1      45.113   2.068   9.484  0.00  0.00    +0.000 NA
ATOM      7  C   UNL     1      44.832   3.367   9.696  0.00  0.00    +0.000 A 
ATOM      8  N   UNL     1      43.940   3.613  10.740  0.00  0.00    +0.000 N 
ATOM      9  N   UNL     1      45.313   4.360   8.931  0.00  0.00    +0.000 NA
ATOM     10  C   UNL     1      46.085   4.008   7.875  0.00  0.00    +0.000 A 
ATOM     11  H   UNL     1      43.860   2.748  11.261  0.00  0.00    +0.000 HD
BRANCH   4  13
ATOM     12  N   UNL     1      47.152   3.250   5.315  0.00  0.00    +0.000 N 
ATOM     13  C   UNL     1      47.208   2.388   6.376  0.00  0.00    +0.000 C 
ATOM     14  O   UNL     1      47.941   1.410   6.358  0.00  0.00    +0.000 OA
ATOM     15  H   UNL     1      47.805   3.069   4.561  0.00  0.00    +0.000 HD
ATOM     16  H   UNL     1      46.778   4.187   5.376  0.00  0.00    +0.000 HD
ENDBRANCH   4  13
ENDBRANCH   1   8
BRANCH   1  17
ATOM     17  C   UNL     1      45.293   5.216  12.127  0.00  0.00    +0.000 A 
ATOM     18  C   UNL     1      46.045   6.304  11.659  0.00  0.00    +0.000 A 
ATOM     19  C   UNL     1      47.230   6.687  12.283  0.00  0.00    +0.000 A 
ATOM     20  C   UNL     1      47.679   5.999  13.412  0.00  0.00    +0.000 A 
ATOM     21  C   UNL     1      46.964   4.904  13.924  0.00  0.00    +0.000 A 
ATOM     22  C   UNL     1      45.805   4.505  13.231  0.00  0.00    +0.000 A 
BRANCH  21  23
ATOM     23  C   UNL     1      47.348   4.235  15.182  0.00  0.00    +0.000 A 
ATOM     24  C   UNL     1      47.113   4.795  16.439  0.00  0.00    +0.000 A 
ATOM     25  N   UNL     1      47.389   4.166  17.609  0.00  0.00    +0.000 NA
ATOM     26  C   UNL     1      47.913   2.930  17.482  0.00  0.00    +0.000 A 
ATOM     27  C   UNL     1      48.153   2.354  16.247  0.00  0.00    +0.000 A 
ATOM     28  N   UNL     1      47.877   2.985  15.080  0.00  0.00    +0.000 NA
ENDBRANCH  21  23
ENDBRANCH   1  17
TORSDOF 4
ENDMDL
MODEL 2
REMARK VINA RESULT:    -8.621      2.166      3.624
REMARK INTER + INTRA:         -11.193
REMARK INTER:                 -10.440
REMARK INTRA:                  -0.753
REMARK UNBOUND:                -0.556
REMARK  Name = 
REMARK  4 active torsions:
REMARK  status: ('A' for Active; 'I' for Inactive)
REMARK    1  A    between atoms: C_2  and  C_4
REMARK    2  A    between atoms: N_8  and  C_9
REMARK    3  A    between atoms: C_9  and  C_10
REMARK    4  A    between atoms: C_14  and  C_15
REMARK                            x       y       z     vdW  Elec       q    Type
REMARK                         _______ _______ _______ _____ _____    ______ ____
ROOT
ATOM      1  C   UNL     1      43.795   4.979  11.444  0.00  0.00    +0.000 C 
ATOM      2  C   UNL     1      42.479   5.359  12.117  0.00  0.00    +0.000 C 
ATOM      3  C   UNL     1      43.019   6.212  11.017  0.00  0.00    +0.000 C 
ENDROOT
BRANCH   1   8
ATOM      4  C   UNL     1      46.349   2.701   7.633  0.00  0.00    +0.000 A 
ATOM      5  C   UNL     1      45.766   1.788   8.473  0.00  0.00    +0.000 A 
ATOM      6  N   UNL     1      44.936   2.126   9.485  0.00  0.00    +0.000 NA
ATOM      7  C   UNL     1      44.707   3.438   9.684  0.00  0.00    +0.000 A 
ATOM      8  N   UNL     1      43.772   3.728  10.677  0.00  0.00    +0.000 N 
ATOM      9  N   UNL     1      45.277   4.406   8.949  0.00  0.00    +0.000 NA
ATOM     10  C   UNL     1      46.088   4.017   7.936  0.00  0.00    +0.000 A 
ATOM     11  H   UNL     1      43.622   2.869  11.192  0.00  0.00    +0.000 HD
BRANCH   4  13
ATOM     12  N   UNL     1      47.166   3.141   5.388  0.00  0.00    +0.000 N 
ATOM     13  C   UNL     1      47.212   2.343   6.498  0.00  0.00    +0.000 C 
ATOM     14  O   UNL     1      47.975   1.388   6.559  0.00  0.00    +0.000 OA
ATOM     15  H   UNL     1      47.848   2.938   4.667  0.00  0.00    +0.000 HD
ATOM     16  H   UNL     1      46.762   4.068   5.384  0.00  0.00    +0.000 HD
ENDBRANCH   4  13
ENDBRANCH   1   8
BRANCH   1  17
ATOM     17  C   UNL     1      45.087   5.216  12.220  0.00  0.00    +0.000 A 
ATOM     18  C   UNL     1      45.563   4.269  13.139  0.00  0.00    +0.000 A 
ATOM     19  C   UNL     1      46.790   4.435  13.780  0.00  0.00    +0.000 A 
ATOM     20  C   UNL     1      47.581   5.549  13.495  0.00  0.00    +0.000 A 
ATOM     21  C   UNL     1      47.154   6.526  12.581  0.00  0.00    +0.000 A 
ATOM     22  C   UNL     1      45.883   6.358  12.000  0.00  0.00    +0.000 A 
BRANCH  21  23
ATOM     23  C   UNL     1      48.019   7.649  12.171  0.00  0.00    +0.000 A 
ATOM     24  C   UNL     1      47.553   8.961  12.060  0.00  0.00    +0.000 A 
ATOM     25  N   UNL     1      48.346  10.020  11.756  0.00  0.00    +0.000 NA
ATOM     26  C   UNL     1      49.648   9.722  11.570  0.00  0.00    +0.000 A 
ATOM     27  C   UNL     1      50.132   8.430  11.677  0.00  0.00    +0.000 A 
ATOM     28  N   UNL     1      49.338   7.375  11.979  0.00  0.00    +0.000 NA
ENDBRANCH  21  23
ENDBRANCH   1  17
TORSDOF 4
ENDMDL
MODEL 3
REMARK VINA RESULT:    -6.785      3.030      7.591
REMARK INTER + INTRA:          -8.927
REMARK INTER:                  -9.296
REMARK INTRA:                   0.369
REMARK UNBOUND:                -0.556
REMARK  Name = 
REMARK  4 active torsions:
REMARK  status: ('A' for Active; 'I' for Inactive)
REMARK    1  A    between atoms: C_2  and  C_4
REMARK    2  A    between atoms: N_8  and  C_9
REMARK    3  A    between atoms: C_9  and  C_10
REMARK    4  A    between atoms: C_14  and  C_15
REMARK                            x       y       z     vdW  Elec       q    Type
REMARK                         _______ _______ _______ _____ _____    ______ ____
ROOT
ATOM      1  C   UNL     1      48.660   7.900  12.755  0.00  0.00    +0.000 C 
ATOM      2  C   UNL     1      49.788   7.312  11.912  0.00  0.00    +0.000 C 
ATOM      3  C   UNL     1      49.509   8.778  11.855  0.00  0.00    +0.000 C 
ENDROOT
BRANCH   1   8
ATOM      4  C   UNL     1      48.095   4.578  16.613  0.00  0.00    +0.000 A 
ATOM      5  C   UNL     1      49.075   5.500  16.874  0.00  0.00    +0.000 A 
ATOM      6  N   UNL     1      49.340   6.557  16.073  0.00  0.00    +0.000 NA
ATOM      7  C   UNL     1      48.612   6.677  14.947  0.00  0.00    +0.000 A 
ATOM      8  N   UNL     1      48.858   7.833  14.207  0.00  0.00    +0.000 N 
ATOM      9  N   UNL     1      47.670   5.793  14.581  0.00  0.00    +0.000 NA
ATOM     10  C   UNL     1      47.430   4.760  15.423  0.00  0.00    +0.000 A 
ATOM     11  H   UNL     1      49.708   8.239  14.581  0.00  0.00    +0.000 HD
BRANCH   4  13
ATOM     12  N   UNL     1      48.684   3.104  18.453  0.00  0.00    +0.000 N 
ATOM     13  C   UNL     1      47.765   3.454  17.501  0.00  0.00    +0.000 C 
ATOM     14  O   UNL     1      46.689   2.878  17.419  0.00  0.00    +0.000 OA
ATOM     15  H   UNL     1      48.386   2.403  19.120  0.00  0.00    +0.000 HD
ATOM     16  H   UNL     1      49.453   3.699  18.730  0.00  0.00    +0.000 HD
ENDBRANCH   4  13
ENDBRANCH   1   8
BRANCH   1  17
ATOM     17  C   UNL     1      47.224   7.642  12.305  0.00  0.00    +0.000 A 
ATOM     18  C   UNL     1      46.231   8.620  12.463  0.00  0.00    +0.000 A 
ATOM     19  C   UNL     1      44.942   8.428  11.969  0.00  0.00    +0.000 A 
ATOM     20  C   UNL     1      44.625   7.256  11.282  0.00  0.00    +0.000 A 
ATOM     21  C   UNL     1      45.581   6.245  11.094  0.00  0.00    +0.000 A 
ATOM     22  C   UNL     1      46.855   6.445  11.661  0.00  0.00    +0.000 A 
BRANCH  21  23
ATOM     23  C   UNL     1      45.311   5.050  10.271  0.00  0.00    +0.000 A 
ATOM     24  C   UNL     1      44.566   3.965  10.737  0.00  0.00    +0.000 A 
ATOM     25  N   UNL     1      44.242   2.890   9.974  0.00  0.00    +0.000 NA
ATOM     26  C   UNL     1      44.690   2.937   8.703  0.00  0.00    +0.000 A 
ATOM     27  C   UNL     1      45.427   4.004   8.220  0.00  0.00    +0.000 A 
ATOM     28  N   UNL     1      45.750   5.075   8.984  0.00  0.00    +0.000 NA
ENDBRANCH  21  23
ENDBRANCH   1  17
TORSDOF 4
ENDMDL
MODEL 4
REMARK VINA RESULT:    -6.527      3.917      8.364
REMARK INTER + INTRA:          -8.608
REMARK INTER:                  -7.983
REMARK INTRA:                  -0.625
REMARK UNBOUND:                -0.556
REMARK  Name = 
REMARK  4 active torsions:
REMARK  status: ('A' for Active; 'I' for Inactive)
REMARK    1  A    between atoms: C_2  and  C_4
REMARK    2  A    between atoms: N_8  and  C_9
REMARK    3  A    between atoms: C_9  and  C_10
REMARK    4  A    between atoms: C_14  and  C_15
REMARK                            x       y       z     vdW  Elec       q    Type
REMARK                         _______ _______ _______ _____ _____    ______ ____
ROOT
ATOM      1  C   UNL     1      48.900   7.937  12.586  0.00  0.00    +0.000 C 
ATOM      2  C   UNL     1      49.863   8.308  11.463  0.00  0.00    +0.000 C 
ATOM      3  C   UNL     1      49.434   9.350  12.443  0.00  0.00    +0.000 C 
ENDROOT
BRANCH   1   8
ATOM      4  C   UNL     1      48.679   7.066  17.629  0.00  0.00    +0.000 A 
ATOM      5  C   UNL     1      48.918   5.916  16.923  0.00  0.00    +0.000 A 
ATOM      6  N   UNL     1      49.142   5.889  15.590  0.00  0.00    +0.000 NA
ATOM      7  C   UNL     1      49.092   7.062  14.931  0.00  0.00    +0.000 A 
ATOM      8  N   UNL     1      49.424   6.992  13.579  0.00  0.00    +0.000 N 
ATOM      9  N   UNL     1      48.811   8.231  15.528  0.00  0.00    +0.000 NA
ATOM     10  C   UNL     1      48.610   8.209  16.867  0.00  0.00    +0.000 A 
ATOM     11  H   UNL     1      49.424   6.009  13.332  0.00  0.00    +0.000 HD
BRANCH   4  13
ATOM     12  N   UNL     1      47.705   6.143  19.654  0.00  0.00    +0.000 N 
ATOM     13  C   UNL     1      48.485   7.114  19.085  0.00  0.00    +0.000 C 
ATOM     14  O   UNL     1      49.034   7.966  19.769  0.00  0.00    +0.000 OA
ATOM     15  H   UNL     1      47.678   6.133  20.667  0.00  0.00    +0.000 HD
ATOM     16  H   UNL     1      47.451   5.286  19.184  0.00  0.00    +0.000 HD
ENDBRANCH   4  13
ENDBRANCH   1   8
BRANCH   1  17
ATOM     17  C   UNL     1      47.433   7.718  12.224  0.00  0.00    +0.000 A 
ATOM     18  C   UNL     1      46.482   8.732  12.416  0.00  0.00    +0.000 A 
ATOM     19  C   UNL     1      45.161   8.573  12.001  0.00  0.00    +0.000 A 
ATOM     20  C   UNL     1      44.767   7.398  11.360  0.00  0.00    +0.000 A 
ATOM     21  C   UNL     1      45.679   6.351  11.141  0.00  0.00    +0.000 A 
ATOM     22  C   UNL     1      46.989   6.521  11.629  0.00  0.00    +0.000 A 
BRANCH  21  23
ATOM     23  C   UNL     1      45.323   5.150  10.362  0.00  0.00    +0.000 A 
ATOM     24  C   UNL     1      44.584   4.094  10.897  0.00  0.00    +0.000 A 
ATOM     25  N   UNL     1      44.181   3.014  10.180  0.00  0.00    +0.000 NA
ATOM     26  C   UNL     1      44.543   3.026   8.881  0.00  0.00    +0.000 A 
ATOM     27  C   UNL     1      45.274   4.064   8.328  0.00  0.00    +0.000 A 
ATOM     28  N   UNL     1      45.675   5.139   9.047  0.00  0.00    +0.000 NA
ENDBRANCH  21  23
ENDBRANCH   1  17
TORSDOF 4
ENDMDL
MODEL 5
REMARK VINA RESULT:    -6.401      3.405      5.130
REMARK INTER + INTRA:          -8.453
REMARK INTER:                  -7.789
REMARK INTRA:                  -0.664
REMARK UNBOUND:                -0.556
REMARK  Name = 
REMARK  4 active torsions:
REMARK  status: ('A' for Active; 'I' for Inactive)
REMARK    1  A    between atoms: C_2  and  C_4
REMARK    2  A    between atoms: N_8  and  C_9
REMARK    3  A    between atoms: C_9  and  C_10
REMARK    4  A    between atoms: C_14  and  C_15
REMARK                            x       y       z     vdW  Elec       q    Type
REMARK                         _______ _______ _______ _____ _____    ______ ____
ROOT
ATOM      1  C   UNL     1      48.457   8.300  12.719  0.00  0.00    +0.000 C 
ATOM      2  C   UNL     1      49.387   9.270  11.996  0.00  0.00    +0.000 C 
ATOM      3  C   UNL     1      49.621   7.800  11.883  0.00  0.00    +0.000 C 
ENDROOT
BRANCH   1   8
ATOM      4  C   UNL     1      44.613   4.977  12.072  0.00  0.00    +0.000 A 
ATOM      5  C   UNL     1      44.155   6.255  12.265  0.00  0.00    +0.000 A 
ATOM      6  N   UNL     1      44.964   7.336  12.341  0.00  0.00    +0.000 NA
ATOM      7  C   UNL     1      46.290   7.123  12.249  0.00  0.00    +0.000 A 
ATOM      8  N   UNL     1      47.072   8.277  12.236  0.00  0.00    +0.000 N 
ATOM      9  N   UNL     1      46.833   5.903  12.114  0.00  0.00    +0.000 NA
ATOM     10  C   UNL     1      45.982   4.853  12.027  0.00  0.00    +0.000 A 
ATOM     11  H   UNL     1      46.467   9.039  12.520  0.00  0.00    +0.000 HD
BRANCH   4  13
ATOM     12  N   UNL     1      44.103   2.663  12.606  0.00  0.00    +0.000 N 
ATOM     13  C   UNL     1      43.741   3.802  11.938  0.00  0.00    +0.000 C 
ATOM     14  O   UNL     1      42.707   3.851  11.287  0.00  0.00    +0.000 OA
ATOM     15  H   UNL     1      43.431   1.905  12.588  0.00  0.00    +0.000 HD
ATOM     16  H   UNL     1      44.786   2.647  13.350  0.00  0.00    +0.000 HD
ENDBRANCH   4  13
ENDBRANCH   1   8
BRANCH   1  17
ATOM     17  C   UNL     1      48.596   8.173  14.233  0.00  0.00    +0.000 A 
ATOM     18  C   UNL     1      48.341   9.265  15.077  0.00  0.00    +0.000 A 
ATOM     19  C   UNL     1      48.373   9.132  16.464  0.00  0.00    +0.000 A 
ATOM     20  C   UNL     1      48.641   7.889  17.039  0.00  0.00    +0.000 A 
ATOM     21  C   UNL     1      48.902   6.762  16.242  0.00  0.00    +0.000 A 
ATOM     22  C   UNL     1      48.922   6.947  14.846  0.00  0.00    +0.000 A 
BRANCH  21  23
ATOM     23  C   UNL     1      49.069   5.415  16.818  0.00  0.00    +0.000 A 
ATOM     24  C   UNL     1      47.993   4.557  17.060  0.00  0.00    +0.000 A 
ATOM     25  N   UNL     1      48.129   3.287  17.519  0.00  0.00    +0.000 NA
ATOM     26  C   UNL     1      49.401   2.889  17.726  0.00  0.00    +0.000 A 
ATOM     27  C   UNL     1      50.481   3.721  17.491  0.00  0.00    +0.000 A 
ATOM     28  N   UNL     1      50.343   4.988  17.034  0.00  0.00    +0.000 NA
ENDBRANCH  21  23
ENDBRANCH   1  17
TORSDOF 4
ENDMDL
