MODEL 1
REMARK VINA RESULT:    -6.909      0.000      0.000
REMARK INTER + INTRA:          -8.191
REMARK INTER:                  -8.120
REMARK INTRA:                  -0.070
REMARK UNBOUND:                -0.070
REMARK  Name = 
REMARK  4 active torsions:
REMARK  status: ('A' for Active; 'I' for Inactive)
REMARK    1  A    between atoms: C_1  and  O_2
REMARK    2  A    between atoms: O_2  and  C_3
REMARK    3  A    between atoms: C_6  and  C_7
REMARK    4  A    between atoms: C_7  and  C_8
REMARK                            x       y       z     vdW  Elec       q    Type
REMARK                         _______ _______ _______ _____ _____    ______ ____
ROOT
ATOM      1  C   UNL     1      44.527   3.739  11.022  0.00  0.00    +0.000 C 
ATOM      2  C   UNL     1      43.116   4.338  11.055  0.00  0.00    +0.000 C 
ATOM      3  C   UNL     1      43.310   2.902  11.416  0.00  0.00    +0.000 C 
ENDROOT
BRANCH   1   7
ATOM      4  C   UNL     1      47.222   4.993  14.096  0.00  0.00    +0.000 A 
ATOM      5  C   UNL     1      46.824   3.688  13.927  0.00  0.00    +0.000 A 
ATOM      6  N   UNL     1      45.980   3.272  12.962  0.00  0.00    +0.000 NA
ATOM      7  C   UNL     1      45.493   4.203  12.109  0.00  0.00    +0.000 A 
ATOM      8  N   UNL     1      45.841   5.508  12.182  0.00  0.00    +0.000 NA
ATOM      9  C   UNL     1      46.690   5.866  13.174  0.00  0.00    +0.000 A 
BRANCH   4  11
ATOM     10  C   UNL     1      48.000   4.863  16.321  0.00  0.00    +0.000 C 
ATOM     11  O   UNL     1      48.059   5.491  15.043  0.00  0.00    +0.000 OA
ENDBRANCH   4  11
ENDBRANCH   1   7
BRANCH   1  12
ATOM     12  C   UNL     1      45.138   3.449   9.654  0.00  0.00    +0.000 A 
ATOM     13  C   UNL     1      45.586   4.491   8.823  0.00  0.00    +0.000 A 
ATOM     14  C   UNL     1      46.260   4.228   7.628  0.00  0.00    +0.000 A 
ATOM     15  C   UNL     1      46.485   2.913   7.232  0.00  0.00    +0.000 A 
ATOM     16  C   UNL     1      46.000   1.864   8.007  0.00  0.00    +0.000 A 
ATOM     17  C   UNL     1      45.323   2.131   9.197  0.00  0.00    +0.000 A 
ENDBRANCH   1  12
TORSDOF 3
ENDMDL
MODEL 2
REMARK VINA RESULT:    -6.897      0.114      1.139
REMARK INTER + INTRA:          -8.177
REMARK INTER:                  -8.135
REMARK INTRA:                  -0.042
REMARK UNBOUND:                -0.070
REMARK  Name = 
REMARK  4 active torsions:
REMARK  status: ('A' for Active; 'I' for Inactive)
REMARK    1  A    between atoms: C_1  and  O_2
REMARK    2  A    between atoms: O_2  and  C_3
REMARK    3  A    between atoms: C_6  and  C_7
REMARK    4  A    between atoms: C_7  and  C_8
REMARK                            x       y       z     vdW  Elec       q    Type
REMARK                         _______ _______ _______ _____ _____    ______ ____
ROOT
ATOM      1  C   UNL     1      44.535   3.737  11.018  0.00  0.00    +0.000 C 
ATOM      2  C   UNL     1      43.109   4.298  11.048  0.00  0.00    +0.000 C 
ATOM      3  C   UNL     1      43.342   2.875  11.433  0.00  0.00    +0.000 C 
ENDROOT
BRANCH   1   7
ATOM      4  C   UNL     1      47.234   5.210  13.990  0.00  0.00    +0.000 A 
ATOM      5  C   UNL     1      46.681   6.003  13.013  0.00  0.00    +0.000 A 
ATOM      6  N   UNL     1      45.824   5.559  12.071  0.00  0.00    +0.000 NA
ATOM      7  C   UNL     1      45.494   4.247  12.091  0.00  0.00    +0.000 A 
ATOM      8  N   UNL     1      45.970   3.392  13.024  0.00  0.00    +0.000 NA
ATOM      9  C   UNL     1      46.828   3.896  13.942  0.00  0.00    +0.000 A 
BRANCH   4  11
ATOM     10  C   UNL     1      47.973   4.896  16.210  0.00  0.00    +0.000 C 
ATOM     11  O   UNL     1      48.104   5.578  14.965  0.00  0.00    +0.000 OA
ENDBRANCH   4  11
ENDBRANCH   1   7
BRANCH   1  12
ATOM     12  C   UNL     1      45.147   3.439   9.652  0.00  0.00    +0.000 A 
ATOM     13  C   UNL     1      45.586   4.476   8.810  0.00  0.00    +0.000 A 
ATOM     14  C   UNL     1      46.261   4.206   7.618  0.00  0.00    +0.000 A 
ATOM     15  C   UNL     1      46.496   2.889   7.235  0.00  0.00    +0.000 A 
ATOM     16  C   UNL     1      46.021   1.844   8.021  0.00  0.00    +0.000 A 
ATOM     17  C   UNL     1      45.343   2.118   9.209  0.00  0.00    +0.000 A 
ENDBRANCH   1  12
TORSDOF 3
ENDMDL
MODEL 3
REMARK VINA RESULT:    -6.275      2.714      5.644
REMARK INTER + INTRA:          -7.446
REMARK INTER:                  -7.518
REMARK INTRA:                   0.072
REMARK UNBOUND:                -0.070
REMARK  Name = 
REMARK  4 active torsions:
REMARK  status: ('A' for Active; 'I' for Inactive)
REMARK    1  A    between atoms: C_1  and  O_2
REMARK    2  A    between atoms: O_2  and  C_3
REMARK    3  A    between atoms: C_6  and  C_7
REMARK    4  A    between atoms: C_7  and  C_8
REMARK                            x       y       z     vdW  Elec       q    Type
REMARK                         _______ _______ _______ _____ _____    ______ ____
ROOT
ATOM      1  C   UNL     1      44.433   4.654  11.088  0.00  0.00    +0.000 C 
ATOM      2  C   UNL     1      43.072   4.168  11.599  0.00  0.00    +0.000 C 
ATOM      3  C   UNL     1      43.172   5.507  10.947  0.00  0.00    +0.000 C 
ENDROOT
BRANCH   1   7
ATOM      4  C   UNL     1      46.014   2.627   7.670  0.00  0.00    +0.000 A 
ATOM      5  C   UNL     1      45.531   1.974   8.780  0.00  0.00    +0.000 A 
ATOM      6  N   UNL     1      45.024   2.593   9.864  0.00  0.00    +0.000 NA
ATOM      7  C   UNL     1      44.994   3.947   9.856  0.00  0.00    +0.000 A 
ATOM      8  N   UNL     1      45.426   4.677   8.804  0.00  0.00    +0.000 NA
ATOM      9  C   UNL     1      45.927   3.998   7.745  0.00  0.00    +0.000 A 
BRANCH   4  11
ATOM     10  C   UNL     1      47.953   2.222   6.386  0.00  0.00    +0.000 C 
ATOM     11  O   UNL     1      46.544   2.078   6.547  0.00  0.00    +0.000 OA
ENDBRANCH   4  11
ENDBRANCH   1   7
BRANCH   1  12
ATOM     12  C   UNL     1      45.453   5.113  12.126  0.00  0.00    +0.000 A 
ATOM     13  C   UNL     1      45.933   4.233  13.112  0.00  0.00    +0.000 A 
ATOM     14  C   UNL     1      46.958   4.608  13.982  0.00  0.00    +0.000 A 
ATOM     15  C   UNL     1      47.513   5.881  13.896  0.00  0.00    +0.000 A 
ATOM     16  C   UNL     1      47.015   6.791  12.968  0.00  0.00    +0.000 A 
ATOM     17  C   UNL     1      45.988   6.414  12.103  0.00  0.00    +0.000 A 
ENDBRANCH   1  12
TORSDOF 3
ENDMDL
MODEL 4
REMARK VINA RESULT:    -5.424      2.353      3.123
REMARK INTER + INTRA:          -6.446
REMARK INTER:                  -6.594
REMARK INTRA:                   0.149
REMARK UNBOUND:                -0.070
REMARK  Name = 
REMARK  4 active torsions:
REMARK  status: ('A' for Active; 'I' for Inactive)
REMARK    1  A    between atoms: C_1  and  O_2
REMARK    2  A    between atoms: O_2  and  C_3
REMARK    3  A    between atoms: C_6  and  C_7
REMARK    4  A    between atoms: C_7  and  C_8
REMARK                            x       y       z     vdW  Elec       q    Type
REMARK                         _______ _______ _______ _____ _____    ______ ____
ROOT
ATOM      1  C   UNL     1      44.731   4.520  11.539  0.00  0.00    +0.000 C 
ATOM      2  C   UNL     1      43.460   4.021  12.235  0.00  0.00    +0.000 C 
ATOM      3  C   UNL     1      44.792   3.563  12.730  0.00  0.00    +0.000 C 
ENDROOT
BRANCH   1   7
ATOM      4  C   UNL     1      45.707   8.649  12.079  0.00  0.00    +0.000 A 
ATOM      5  C   UNL     1      44.515   8.217  11.546  0.00  0.00    +0.000 A 
ATOM      6  N   UNL     1      44.187   6.922  11.372  0.00  0.00    +0.000 NA
ATOM      7  C   UNL     1      45.093   5.989  11.746  0.00  0.00    +0.000 A 
ATOM      8  N   UNL     1      46.284   6.313  12.299  0.00  0.00    +0.000 NA
ATOM      9  C   UNL     1      46.558   7.631  12.445  0.00  0.00    +0.000 A 
BRANCH   4  11
ATOM     10  C   UNL     1      47.503  10.180  12.087  0.00  0.00    +0.000 C 
ATOM     11  O   UNL     1      46.113   9.928  12.279  0.00  0.00    +0.000 OA
ENDBRANCH   4  11
ENDBRANCH   1   7
BRANCH   1  12
ATOM     12  C   UNL     1      45.065   3.928  10.173  0.00  0.00    +0.000 A 
ATOM     13  C   UNL     1      45.456   4.750   9.101  0.00  0.00    +0.000 A 
ATOM     14  C   UNL     1      45.885   4.206   7.888  0.00  0.00    +0.000 A 
ATOM     15  C   UNL     1      45.916   2.825   7.717  0.00  0.00    +0.000 A 
ATOM     16  C   UNL     1      45.478   1.992   8.742  0.00  0.00    +0.000 A 
ATOM     17  C   UNL     1      45.046   2.539   9.950  0.00  0.00    +0.000 A 
ENDBRANCH   1  12
TORSDOF 3
ENDMDL
MODEL 5
REMARK VINA RESULT:    -5.131      2.992      7.471
REMARK INTER + INTRA:          -6.101
REMARK INTER:                  -6.022
REMARK INTRA:                  -0.079
REMARK UNBOUND:                -0.070
REMARK  Name = 
REMARK  4 active torsions:
REMARK  status: ('A' for Active; 'I' for Inactive)
REMARK    1  A    between atoms: C_1  and  O_2
REMARK    2  A    between atoms: O_2  and  C_3
REMARK    3  A    between atoms: C_6  and  C_7
REMARK    4  A    between atoms: C_7  and  C_8
REMARK                            x       y       z     vdW  Elec       q    Type
REMARK                         _______ _______ _______ _____ _____    ______ ____
ROOT
ATOM      1  C   UNL     1      48.228   4.844  17.152  0.00  0.00    +0.000 C 
ATOM      2  C   UNL     1      47.144   4.847  18.236  0.00  0.00    +0.000 C 
ATOM      3  C   UNL     1      48.101   5.990  18.156  0.00  0.00    +0.000 C 
ENDROOT
BRANCH   1   7
ATOM      4  C   UNL     1      46.937   5.497  13.128  0.00  0.00    +0.000 A 
ATOM      5  C   UNL     1      47.901   6.258  13.745  0.00  0.00    +0.000 A 
ATOM      6  N   UNL     1      48.326   6.065  15.010  0.00  0.00    +0.000 NA
ATOM      7  C   UNL     1      47.760   5.058  15.715  0.00  0.00    +0.000 A 
ATOM      8  N   UNL     1      46.818   4.242  15.189  0.00  0.00    +0.000 NA
ATOM      9  C   UNL     1      46.431   4.488  13.915  0.00  0.00    +0.000 A 
BRANCH   4  11
ATOM     10  C   UNL     1      45.118   5.176  11.658  0.00  0.00    +0.000 C 
ATOM     11  O   UNL     1      46.452   5.632  11.867  0.00  0.00    +0.000 OA
ENDBRANCH   4  11
ENDBRANCH   1   7
BRANCH   1  12
ATOM     12  C   UNL     1      49.412   3.900  17.343  0.00  0.00    +0.000 A 
ATOM     13  C   UNL     1      49.312   2.534  17.026  0.00  0.00    +0.000 A 
ATOM     14  C   UNL     1      50.426   1.693  17.078  0.00  0.00    +0.000 A 
ATOM     15  C   UNL     1      51.662   2.200  17.465  0.00  0.00    +0.000 A 
ATOM     16  C   UNL     1      51.776   3.535  17.842  0.00  0.00    +0.000 A 
ATOM     17  C   UNL     1      50.660   4.370  17.793  0.00  0.00    +0.000 A 
ENDBRANCH   1  12
TORSDOF 3
ENDMDL
MODEL 6
REMARK VINA RESULT:    -5.123      2.868      4.233
REMARK INTER + INTRA:          -6.092
REMARK INTER:                  -6.372
REMARK INTRA:                   0.279
REMARK UNBOUND:                -0.070
REMARK  Name = 
REMARK  4 active torsions:
REMARK  status: ('A' for Active; 'I' for Inactive)
REMARK    1  A    between atoms: C_1  and  O_2
REMARK    2  A    between atoms: O_2  and  C_3
REMARK    3  A    between atoms: C_6  and  C_7
REMARK    4  A    between atoms: C_7  and  C_8
REMARK                            x       y       z     vdW  Elec       q    Type
REMARK                         _______ _______ _______ _____ _____    ______ ____
ROOT
ATOM      1  C   UNL     1      46.709   5.716  13.524  0.00  0.00    +0.000 C 
ATOM      2  C   UNL     1      47.665   6.277  12.465  0.00  0.00    +0.000 C 
ATOM      3  C   UNL     1      46.798   7.215  13.236  0.00  0.00    +0.000 C 
ENDROOT
BRANCH   1   7
ATOM      4  C   UNL     1      48.446   4.132  17.095  0.00  0.00    +0.000 A 
ATOM      5  C   UNL     1      47.518   3.454  16.342  0.00  0.00    +0.000 A 
ATOM      6  N   UNL     1      46.963   3.933  15.211  0.00  0.00    +0.000 NA
ATOM      7  C   UNL     1      47.345   5.164  14.797  0.00  0.00    +0.000 A 
ATOM      8  N   UNL     1      48.266   5.900  15.459  0.00  0.00    +0.000 NA
ATOM      9  C   UNL     1      48.785   5.366  16.590  0.00  0.00    +0.000 A 
BRANCH   4  11
ATOM     10  C   UNL     1      48.804   4.529  19.394  0.00  0.00    +0.000 C 
ATOM     11  O   UNL     1      49.044   3.722  18.244  0.00  0.00    +0.000 OA
ENDBRANCH   4  11
ENDBRANCH   1   7
BRANCH   1  12
ATOM     12  C   UNL     1      45.452   5.003  13.032  0.00  0.00    +0.000 A 
ATOM     13  C   UNL     1      44.201   5.644  13.044  0.00  0.00    +0.000 A 
ATOM     14  C   UNL     1      43.073   5.045  12.479  0.00  0.00    +0.000 A 
ATOM     15  C   UNL     1      43.171   3.782  11.903  0.00  0.00    +0.000 A 
ATOM     16  C   UNL     1      44.385   3.102  11.931  0.00  0.00    +0.000 A 
ATOM     17  C   UNL     1      45.508   3.702  12.500  0.00  0.00    +0.000 A 
ENDBRANCH   1  12
TORSDOF 3
ENDMDL
MODEL 7
REMARK VINA RESULT:    -5.109      3.182      6.013
REMARK INTER + INTRA:          -6.075
REMARK INTER:                  -6.292
REMARK INTRA:                   0.217
REMARK UNBOUND:                -0.070
REMARK  Name = 
REMARK  4 active torsions:
REMARK  status: ('A' for Active; 'I' for Inactive)
REMARK    1  A    between atoms: C_1  and  O_2
REMARK    2  A    between atoms: O_2  and  C_3
REMARK    3  A    between atoms: C_6  and  C_7
REMARK    4  A    between atoms: C_7  and  C_8
REMARK                            x       y       z     vdW  Elec       q    Type
REMARK                         _______ _______ _______ _____ _____    ______ ____
ROOT
ATOM      1  C   UNL     1      47.076   6.918  12.579  0.00  0.00    +0.000 C 
ATOM      2  C   UNL     1      48.582   6.636  12.632  0.00  0.00    +0.000 C 
ATOM      3  C   UNL     1      47.790   6.617  13.897  0.00  0.00    +0.000 C 
ENDROOT
BRANCH   1   7
ATOM      4  C   UNL     1      44.632   3.866  10.848  0.00  0.00    +0.000 A 
ATOM      5  C   UNL     1      44.936   3.921  12.187  0.00  0.00    +0.000 A 
ATOM      6  N   UNL     1      45.699   4.877  12.753  0.00  0.00    +0.000 NA
ATOM      7  C   UNL     1      46.200   5.841  11.945  0.00  0.00    +0.000 A 
ATOM      8  N   UNL     1      45.941   5.884  10.619  0.00  0.00    +0.000 NA
ATOM      9  C   UNL     1      45.170   4.895  10.108  0.00  0.00    +0.000 A 
BRANCH   4  11
ATOM     10  C   UNL     1      44.553   2.168   9.210  0.00  0.00    +0.000 C 
ATOM     11  O   UNL     1      43.880   2.937  10.203  0.00  0.00    +0.000 OA
ENDBRANCH   4  11
ENDBRANCH   1   7
BRANCH   1  12
ATOM     12  C   UNL     1      46.637   8.363  12.358  0.00  0.00    +0.000 A 
ATOM     13  C   UNL     1      47.566   9.360  12.014  0.00  0.00    +0.000 A 
ATOM     14  C   UNL     1      47.153  10.654  11.687  0.00  0.00    +0.000 A 
ATOM     15  C   UNL     1      45.801  10.980  11.713  0.00  0.00    +0.000 A 
ATOM     16  C   UNL     1      44.867  10.028  12.107  0.00  0.00    +0.000 A 
ATOM     17  C   UNL     1      45.283   8.738  12.438  0.00  0.00    +0.000 A 
ENDBRANCH   1  12
TORSDOF 3
ENDMDL
MODEL 8
REMARK VINA RESULT:    -5.079      2.852      5.722
REMARK INTER + INTRA:          -6.040
REMARK INTER:                  -6.027
REMARK INTRA:                  -0.013
REMARK UNBOUND:                -0.070
REMARK  Name = 
REMARK  4 active torsions:
REMARK  status: ('A' for Active; 'I' for Inactive)
REMARK    1  A    between atoms: C_1  and  O_2
REMARK    2  A    between atoms: O_2  and  C_3
REMARK    3  A    between atoms: C_6  and  C_7
REMARK    4  A    between atoms: C_7  and  C_8
REMARK                            x       y       z     vdW  Elec       q    Type
REMARK                         _______ _______ _______ _____ _____    ______ ____
ROOT
ATOM      1  C   UNL     1      45.800   6.792  11.752  0.00  0.00    +0.000 C 
ATOM      2  C   UNL     1      44.674   7.328  12.644  0.00  0.00    +0.000 C 
ATOM      3  C   UNL     1      45.007   8.044  11.377  0.00  0.00    +0.000 C 
ENDROOT
BRANCH   1   7
ATOM      4  C   UNL     1      45.016   3.165   9.627  0.00  0.00    +0.000 A 
ATOM      5  C   UNL     1      45.388   4.336   9.011  0.00  0.00    +0.000 A 
ATOM      6  N   UNL     1      45.645   5.487   9.663  0.00  0.00    +0.000 NA
ATOM      7  C   UNL     1      45.524   5.486  11.011  0.00  0.00    +0.000 A 
ATOM      8  N   UNL     1      45.183   4.379  11.709  0.00  0.00    +0.000 NA
ATOM      9  C   UNL     1      44.935   3.254  10.998  0.00  0.00    +0.000 A 
BRANCH   4  11
ATOM     10  C   UNL     1      45.810   1.351   8.341  0.00  0.00    +0.000 C 
ATOM     11  O   UNL     1      44.735   1.971   9.044  0.00  0.00    +0.000 OA
ENDBRANCH   4  11
ENDBRANCH   1   7
BRANCH   1  12
ATOM     12  C   UNL     1      47.236   7.011  12.222  0.00  0.00    +0.000 A 
ATOM     13  C   UNL     1      48.137   7.784  11.468  0.00  0.00    +0.000 A 
ATOM     14  C   UNL     1      49.409   8.093  11.953  0.00  0.00    +0.000 A 
ATOM     15  C   UNL     1      49.813   7.620  13.198  0.00  0.00    +0.000 A 
ATOM     16  C   UNL     1      48.963   6.804  13.937  0.00  0.00    +0.000 A 
ATOM     17  C   UNL     1      47.694   6.493  13.447  0.00  0.00    +0.000 A 
ENDBRANCH   1  12
TORSDOF 3
ENDMDL
MODEL 9
REMARK VINA RESULT:    -4.984      2.927      7.894
REMARK INTER + INTRA:          -5.929
REMARK INTER:                  -5.915
REMARK INTRA:                  -0.014
REMARK UNBOUND:                -0.070
REMARK  Name = 
REMARK  4 active torsions:
REMARK  status: ('A' for Active; 'I' for Inactive)
REMARK    1  A    between atoms: C_1  and  O_2
REMARK    2  A    between atoms: O_2  and  C_3
REMARK    3  A    between atoms: C_6  and  C_7
REMARK    4  A    between atoms: C_7  and  C_8
REMARK                            x       y       z     vdW  Elec       q    Type
REMARK                         _______ _______ _______ _____ _____    ______ ____
ROOT
ATOM      1  C   UNL     1      47.878   4.225  16.910  0.00  0.00    +0.000 C 
ATOM      2  C   UNL     1      48.670   2.913  16.946  0.00  0.00    +0.000 C 
ATOM      3  C   UNL     1      47.244   2.918  17.386  0.00  0.00    +0.000 C 
ENDROOT
BRANCH   1   7
ATOM      4  C   UNL     1      46.838   5.698  13.033  0.00  0.00    +0.000 A 
ATOM      5  C   UNL     1      46.163   4.677  13.659  0.00  0.00    +0.000 A 
ATOM      6  N   UNL     1      46.472   4.202  14.882  0.00  0.00    +0.000 NA
ATOM      7  C   UNL     1      47.516   4.768  15.530  0.00  0.00    +0.000 A 
ATOM      8  N   UNL     1      48.228   5.792  15.006  0.00  0.00    +0.000 NA
ATOM      9  C   UNL     1      47.873   6.223  13.773  0.00  0.00    +0.000 A 
BRANCH   4  11
ATOM     10  C   UNL     1      45.598   5.566  11.028  0.00  0.00    +0.000 C 
ATOM     11  O   UNL     1      46.594   6.226  11.806  0.00  0.00    +0.000 OA
ENDBRANCH   4  11
ENDBRANCH   1   7
BRANCH   1  12
ATOM     12  C   UNL     1      48.185   5.264  17.986  0.00  0.00    +0.000 A 
ATOM     13  C   UNL     1      47.177   5.742  18.842  0.00  0.00    +0.000 A 
ATOM     14  C   UNL     1      47.475   6.594  19.908  0.00  0.00    +0.000 A 
ATOM     15  C   UNL     1      48.788   6.999  20.128  0.00  0.00    +0.000 A 
ATOM     16  C   UNL     1      49.794   6.588  19.260  0.00  0.00    +0.000 A 
ATOM     17  C   UNL     1      49.492   5.740  18.194  0.00  0.00    +0.000 A 
ENDBRANCH   1  12
TORSDOF 3
ENDMDL
