MODEL 1
REMARK VINA RESULT:    -8.035      0.000      0.000
REMARK INTER + INTRA:         -13.654
REMARK INTER:                 -11.793
REMARK INTRA:                  -1.861
REMARK UNBOUND:                -1.861
REMARK  Name = 
REMARK  8 active torsions:
REMARK  status: ('A' for Active; 'I' for Inactive)
REMARK    1  A    between atoms: C_2  and  C_4
REMARK    2  A    between atoms: C_4  and  C_5
REMARK    3  A    between atoms: C_5  and  N_6
REMARK    4  A    between atoms: C_5  and  C_19
REMARK    5  A    between atoms: C_7  and  C_9
REMARK    6  A    between atoms: C_22  and  C_23
REMARK    7  A    between atoms: C_23  and  N_24
REMARK    8  A    between atoms: C_25  and  C_27
REMARK                            x       y       z     vdW  Elec       q    Type
REMARK                         _______ _______ _______ _____ _____    ______ ____
ROOT
ATOM      1  C   UNL     1      47.124   5.408  14.761  0.00  0.00    +0.000 C 
ENDROOT
BRANCH   1   2
ATOM      2  C   UNL     1      46.145   5.262  13.603  0.00  0.00    +0.000 A 
ATOM      3  C   UNL     1      45.815   3.980  13.133  0.00  0.00    +0.000 A 
ATOM      4  C   UNL     1      45.002   3.808  12.009  0.00  0.00    +0.000 A 
ATOM      5  C   UNL     1      44.488   4.914  11.322  0.00  0.00    +0.000 A 
ATOM      6  C   UNL     1      44.756   6.194  11.826  0.00  0.00    +0.000 A 
ATOM      7  C   UNL     1      45.576   6.367  12.950  0.00  0.00    +0.000 A 
BRANCH   5   8
ATOM      8  C   UNL     1      43.706   4.732  10.048  0.00  0.00    +0.000 C 
BRANCH   8   9
ATOM      9  N   UNL     1      44.287   3.758   9.155  0.00  0.00    +0.000 N 
ATOM     10  C   UNL     1      45.366   4.076   8.360  0.00  0.00    +0.000 C 
ATOM     11  O   UNL     1      45.927   5.169   8.408  0.00  0.00    +0.000 OA
ATOM     12  H   UNL     1      43.808   2.883   8.971  0.00  0.00    +0.000 HD
BRANCH  10  13
ATOM     13  C   UNL     1      45.867   2.921   7.485  0.00  0.00    +0.000 C 
ATOM     14  C   UNL     1      46.041   1.632   8.269  0.00  0.00    +0.000 C 
ATOM     15  C   UNL     1      47.035   0.875   7.427  0.00  0.00    +0.000 C 
ATOM     16  C   UNL     1      47.917   1.980   6.888  0.00  0.00    +0.000 C 
ATOM     17  O   UNL     1      47.131   3.182   6.850  0.00  0.00    +0.000 OA
ENDBRANCH  10  13
ENDBRANCH   8   9
ENDBRANCH   5   8
ENDBRANCH   1   2
BRANCH   1  18
ATOM     18  N   UNL     1      48.323   6.110  14.322  0.00  0.00    +0.000 N 
ATOM     19  C   UNL     1      48.949   7.066  15.083  0.00  0.00    +0.000 C 
ATOM     20  O   UNL     1      48.537   7.383  16.193  0.00  0.00    +0.000 OA
ATOM     21  H   UNL     1      48.642   5.930  13.375  0.00  0.00    +0.000 HD
BRANCH  19  22
ATOM     22  C   UNL     1      50.168   7.663  14.515  0.00  0.00    +0.000 A 
ATOM     23  C   UNL     1      51.363   7.608  15.218  0.00  0.00    +0.000 A 
ATOM     24  S   UNL     1      52.666   8.368  14.416  0.00  0.00    +0.000 S 
ATOM     25  C   UNL     1      51.665   8.848  13.129  0.00  0.00    +0.000 A 
ATOM     26  N   UNL     1      52.146   9.606  12.104  0.00  0.00    +0.000 NA
ATOM     27  C   UNL     1      51.262   9.944  11.227  0.00  0.00    +0.000 A 
ATOM     28  N   UNL     1      49.946   9.565  11.263  0.00  0.00    +0.000 N 
ATOM     29  C   UNL     1      49.441   8.721  12.218  0.00  0.00    +0.000 A 
ATOM     30  O   UNL     1      48.306   8.269  12.127  0.00  0.00    +0.000 OA
ATOM     31  C   UNL     1      50.370   8.382  13.279  0.00  0.00    +0.000 A 
ATOM     32  H   UNL     1      49.314   9.819  10.518  0.00  0.00    +0.000 HD
ENDBRANCH  19  22
ENDBRANCH   1  18
BRANCH   1  33
ATOM     33  C   UNL     1      47.486   4.067  15.418  0.00  0.00    +0.000 C 
BRANCH  33  35
ATOM     34  N   UNL     1      47.152   5.136  17.589  0.00  0.00    +0.000 N 
ATOM     35  C   UNL     1      47.053   3.988  16.863  0.00  0.00    +0.000 C 
ATOM     36  O   UNL     1      46.664   2.950  17.388  0.00  0.00    +0.000 OA
ATOM     37  H   UNL     1      46.933   5.048  18.574  0.00  0.00    +0.000 HD
ATOM     38  H   UNL     1      47.800   5.867  17.326  0.00  0.00    +0.000 HD
ENDBRANCH  33  35
ENDBRANCH   1  33
TORSDOF 8
ENDMDL
MODEL 2
REMARK VINA RESULT:    -7.593      2.324      5.073
REMARK INTER + INTRA:         -13.005
REMARK INTER:                 -11.487
REMARK INTRA:                  -1.518
REMARK UNBOUND:                -1.861
REMARK  Name = 
REMARK  8 active torsions:
REMARK  status: ('A' for Active; 'I' for Inactive)
REMARK    1  A    between atoms: C_2  and  C_4
REMARK    2  A    between atoms: C_4  and  C_5
REMARK    3  A    between atoms: C_5  and  N_6
REMARK    4  A    between atoms: C_5  and  C_19
REMARK    5  A    between atoms: C_7  and  C_9
REMARK    6  A    between atoms: C_22  and  C_23
REMARK    7  A    between atoms: C_23  and  N_24
REMARK    8  A    between atoms: C_25  and  C_27
REMARK                            x       y       z     vdW  Elec       q    Type
REMARK                         _______ _______ _______ _____ _____    ______ ____
ROOT
ATOM      1  C   UNL     1      48.018   6.666  13.799  0.00  0.00    +0.000 C 
ENDROOT
BRANCH   1   2
ATOM      2  C   UNL     1      46.903   5.789  13.241  0.00  0.00    +0.000 A 
ATOM      3  C   UNL     1      46.954   4.399  13.434  0.00  0.00    +0.000 A 
ATOM      4  C   UNL     1      46.006   3.553  12.852  0.00  0.00    +0.000 A 
ATOM      5  C   UNL     1      44.973   4.072  12.062  0.00  0.00    +0.000 A 
ATOM      6  C   UNL     1      44.876   5.462  11.922  0.00  0.00    +0.000 A 
ATOM      7  C   UNL     1      45.831   6.311  12.501  0.00  0.00    +0.000 A 
BRANCH   5   8
ATOM      8  C   UNL     1      44.019   3.153  11.345  0.00  0.00    +0.000 C 
BRANCH   8   9
ATOM      9  N   UNL     1      44.584   2.559  10.156  0.00  0.00    +0.000 N 
ATOM     10  C   UNL     1      44.585   3.233   8.955  0.00  0.00    +0.000 C 
ATOM     11  O   UNL     1      44.170   4.385   8.839  0.00  0.00    +0.000 OA
ATOM     12  H   UNL     1      44.831   1.575  10.144  0.00  0.00    +0.000 HD
BRANCH  10  13
ATOM     13  C   UNL     1      45.238   2.464   7.801  0.00  0.00    +0.000 C 
ATOM     14  C   UNL     1      46.182   1.377   8.286  0.00  0.00    +0.000 C 
ATOM     15  C   UNL     1      47.091   1.187   7.100  0.00  0.00    +0.000 C 
ATOM     16  C   UNL     1      47.199   2.589   6.541  0.00  0.00    +0.000 C 
ATOM     17  O   UNL     1      46.003   3.295   6.910  0.00  0.00    +0.000 OA
ENDBRANCH  10  13
ENDBRANCH   8   9
ENDBRANCH   5   8
ENDBRANCH   1   2
BRANCH   1  18
ATOM     18  N   UNL     1      47.913   6.751  15.251  0.00  0.00    +0.000 N 
ATOM     19  C   UNL     1      49.003   6.673  16.083  0.00  0.00    +0.000 C 
ATOM     20  O   UNL     1      50.142   6.535  15.649  0.00  0.00    +0.000 OA
ATOM     21  H   UNL     1      46.978   6.783  15.645  0.00  0.00    +0.000 HD
BRANCH  19  22
ATOM     22  C   UNL     1      48.739   6.806  17.524  0.00  0.00    +0.000 A 
ATOM     23  C   UNL     1      48.578   8.063  18.089  0.00  0.00    +0.000 A 
ATOM     24  S   UNL     1      48.299   8.027  19.774  0.00  0.00    +0.000 S 
ATOM     25  C   UNL     1      48.441   6.334  19.816  0.00  0.00    +0.000 A 
ATOM     26  N   UNL     1      48.365   5.648  20.990  0.00  0.00    +0.000 NA
ATOM     27  C   UNL     1      48.548   4.375  20.880  0.00  0.00    +0.000 A 
ATOM     28  N   UNL     1      48.765   3.720  19.695  0.00  0.00    +0.000 N 
ATOM     29  C   UNL     1      48.749   4.355  18.481  0.00  0.00    +0.000 A 
ATOM     30  O   UNL     1      48.779   3.720  17.434  0.00  0.00    +0.000 OA
ATOM     31  C   UNL     1      48.637   5.800  18.554  0.00  0.00    +0.000 A 
ATOM     32  H   UNL     1      48.849   2.715  19.668  0.00  0.00    +0.000 HD
ENDBRANCH  19  22
ENDBRANCH   1  18
BRANCH   1  33
ATOM     33  C   UNL     1      48.055   8.068  13.172  0.00  0.00    +0.000 C 
BRANCH  33  35
ATOM     34  N   UNL     1      50.338   7.464  12.551  0.00  0.00    +0.000 N 
ATOM     35  C   UNL     1      49.285   8.299  12.327  0.00  0.00    +0.000 C 
ATOM     36  O   UNL     1      49.372   9.204  11.504  0.00  0.00    +0.000 OA
ATOM     37  H   UNL     1      51.182   7.680  12.033  0.00  0.00    +0.000 HD
ATOM     38  H   UNL     1      50.452   6.990  13.437  0.00  0.00    +0.000 HD
ENDBRANCH  33  35
ENDBRANCH   1  33
TORSDOF 8
ENDMDL
MODEL 3
REMARK VINA RESULT:    -7.038      2.900      4.146
REMARK INTER + INTRA:         -12.190
REMARK INTER:                 -10.463
REMARK INTRA:                  -1.728
REMARK UNBOUND:                -1.861
REMARK  Name = 
REMARK  8 active torsions:
REMARK  status: ('A' for Active; 'I' for Inactive)
REMARK    1  A    between atoms: C_2  and  C_4
REMARK    2  A    between atoms: C_4  and  C_5
REMARK    3  A    between atoms: C_5  and  N_6
REMARK    4  A    between atoms: C_5  and  C_19
REMARK    5  A    between atoms: C_7  and  C_9
REMARK    6  A    between atoms: C_22  and  C_23
REMARK    7  A    between atoms: C_23  and  N_24
REMARK    8  A    between atoms: C_25  and  C_27
REMARK                            x       y       z     vdW  Elec       q    Type
REMARK                         _______ _______ _______ _____ _____    ______ ____
ROOT
ATOM      1  C   UNL     1      47.608   4.715  16.006  0.00  0.00    +0.000 C 
ENDROOT
BRANCH   1   2
ATOM      2  C   UNL     1      47.111   5.006  14.595  0.00  0.00    +0.000 A 
ATOM      3  C   UNL     1      47.551   6.163  13.931  0.00  0.00    +0.000 A 
ATOM      4  C   UNL     1      47.041   6.517  12.679  0.00  0.00    +0.000 A 
ATOM      5  C   UNL     1      46.078   5.721  12.047  0.00  0.00    +0.000 A 
ATOM      6  C   UNL     1      45.685   4.530  12.672  0.00  0.00    +0.000 A 
ATOM      7  C   UNL     1      46.193   4.177  13.931  0.00  0.00    +0.000 A 
BRANCH   5   8
ATOM      8  C   UNL     1      45.447   6.160  10.752  0.00  0.00    +0.000 C 
BRANCH   8   9
ATOM      9  N   UNL     1      45.764   5.295   9.640  0.00  0.00    +0.000 N 
ATOM     10  C   UNL     1      44.877   4.332   9.213  0.00  0.00    +0.000 C 
ATOM     11  O   UNL     1      43.758   4.195   9.703  0.00  0.00    +0.000 OA
ATOM     12  H   UNL     1      46.707   5.265   9.268  0.00  0.00    +0.000 HD
BRANCH  10  13
ATOM     13  C   UNL     1      45.364   3.514   8.011  0.00  0.00    +0.000 C 
ATOM     14  C   UNL     1      45.850   2.131   8.407  0.00  0.00    +0.000 C 
ATOM     15  C   UNL     1      46.768   1.773   7.268  0.00  0.00    +0.000 C 
ATOM     16  C   UNL     1      47.381   3.109   6.909  0.00  0.00    +0.000 C 
ATOM     17  O   UNL     1      46.446   4.132   7.291  0.00  0.00    +0.000 OA
ENDBRANCH  10  13
ENDBRANCH   8   9
ENDBRANCH   5   8
ENDBRANCH   1   2
BRANCH   1  18
ATOM     18  N   UNL     1      48.762   5.550  16.316  0.00  0.00    +0.000 N 
ATOM     19  C   UNL     1      48.859   6.290  17.468  0.00  0.00    +0.000 C 
ATOM     20  O   UNL     1      47.975   6.285  18.318  0.00  0.00    +0.000 OA
ATOM     21  H   UNL     1      49.473   5.640  15.597  0.00  0.00    +0.000 HD
BRANCH  19  22
ATOM     22  C   UNL     1      50.099   7.059  17.653  0.00  0.00    +0.000 A 
ATOM     23  C   UNL     1      50.305   8.230  16.938  0.00  0.00    +0.000 A 
ATOM     24  S   UNL     1      51.806   8.978  17.264  0.00  0.00    +0.000 S 
ATOM     25  C   UNL     1      52.257   7.733  18.329  0.00  0.00    +0.000 A 
ATOM     26  N   UNL     1      53.481   7.722  18.926  0.00  0.00    +0.000 NA
ATOM     27  C   UNL     1      53.709   6.688  19.663  0.00  0.00    +0.000 A 
ATOM     28  N   UNL     1      52.809   5.678  19.886  0.00  0.00    +0.000 N 
ATOM     29  C   UNL     1      51.532   5.697  19.389  0.00  0.00    +0.000 A 
ATOM     30  O   UNL     1      50.703   4.867  19.743  0.00  0.00    +0.000 OA
ATOM     31  C   UNL     1      51.252   6.793  18.480  0.00  0.00    +0.000 A 
ATOM     32  H   UNL     1      53.028   4.921  20.516  0.00  0.00    +0.000 HD
ENDBRANCH  19  22
ENDBRANCH   1  18
BRANCH   1  33
ATOM     33  C   UNL     1      47.930   3.231  16.238  0.00  0.00    +0.000 C 
BRANCH  33  35
ATOM     34  N   UNL     1      48.663   2.998  18.556  0.00  0.00    +0.000 N 
ATOM     35  C   UNL     1      49.035   3.023  17.246  0.00  0.00    +0.000 C 
ATOM     36  O   UNL     1      50.216   2.915  16.931  0.00  0.00    +0.000 OA
ATOM     37  H   UNL     1      49.424   2.937  19.223  0.00  0.00    +0.000 HD
ATOM     38  H   UNL     1      47.814   3.452  18.868  0.00  0.00    +0.000 HD
ENDBRANCH  33  35
ENDBRANCH   1  33
TORSDOF 8
ENDMDL
MODEL 4
REMARK VINA RESULT:    -6.940      3.094      5.126
REMARK INTER + INTRA:         -12.047
REMARK INTER:                 -10.399
REMARK INTRA:                  -1.648
REMARK UNBOUND:                -1.861
REMARK  Name = 
REMARK  8 active torsions:
REMARK  status: ('A' for Active; 'I' for Inactive)
REMARK    1  A    between atoms: C_2  and  C_4
REMARK    2  A    between atoms: C_4  and  C_5
REMARK    3  A    between atoms: C_5  and  N_6
REMARK    4  A    between atoms: C_5  and  C_19
REMARK    5  A    between atoms: C_7  and  C_9
REMARK    6  A    between atoms: C_22  and  C_23
REMARK    7  A    between atoms: C_23  and  N_24
REMARK    8  A    between atoms: C_25  and  C_27
REMARK                            x       y       z     vdW  Elec       q    Type
REMARK                         _______ _______ _______ _____ _____    ______ ____
ROOT
ATOM      1  C   UNL     1      49.081   7.192  14.482  0.00  0.00    +0.000 C 
ENDROOT
BRANCH   1   2
ATOM      2  C   UNL     1      47.994   6.634  13.571  0.00  0.00    +0.000 A 
ATOM      3  C   UNL     1      47.807   7.192  12.296  0.00  0.00    +0.000 A 
ATOM      4  C   UNL     1      46.757   6.777  11.472  0.00  0.00    +0.000 A 
ATOM      5  C   UNL     1      45.863   5.786  11.896  0.00  0.00    +0.000 A 
ATOM      6  C   UNL     1      46.085   5.177  13.138  0.00  0.00    +0.000 A 
ATOM      7  C   UNL     1      47.135   5.597  13.967  0.00  0.00    +0.000 A 
BRANCH   5   8
ATOM      8  C   UNL     1      44.668   5.419  11.057  0.00  0.00    +0.000 C 
BRANCH   8   9
ATOM      9  N   UNL     1      45.018   4.750   9.825  0.00  0.00    +0.000 N 
ATOM     10  C   UNL     1      44.553   3.484   9.547  0.00  0.00    +0.000 C 
ATOM     11  O   UNL     1      43.778   2.882  10.288  0.00  0.00    +0.000 OA
ATOM     12  H   UNL     1      45.745   5.127   9.227  0.00  0.00    +0.000 HD
BRANCH  10  13
ATOM     13  C   UNL     1      45.006   2.930   8.191  0.00  0.00    +0.000 C 
ATOM     14  C   UNL     1      46.006   1.795   8.331  0.00  0.00    +0.000 C 
ATOM     15  C   UNL     1      46.711   1.822   7.000  0.00  0.00    +0.000 C 
ATOM     16  C   UNL     1      46.739   3.299   6.673  0.00  0.00    +0.000 C 
ATOM     17  O   UNL     1      45.624   3.912   7.341  0.00  0.00    +0.000 OA
ENDBRANCH  10  13
ENDBRANCH   8   9
ENDBRANCH   5   8
ENDBRANCH   1   2
BRANCH   1  18
ATOM     18  N   UNL     1      48.654   7.125  15.874  0.00  0.00    +0.000 N 
ATOM     19  C   UNL     1      49.298   6.360  16.816  0.00  0.00    +0.000 C 
ATOM     20  O   UNL     1      50.286   5.688  16.539  0.00  0.00    +0.000 OA
ATOM     21  H   UNL     1      47.793   7.603  16.117  0.00  0.00    +0.000 HD
BRANCH  19  22
ATOM     22  C   UNL     1      48.767   6.419  18.186  0.00  0.00    +0.000 A 
ATOM     23  C   UNL     1      48.609   5.254  18.923  0.00  0.00    +0.000 A 
ATOM     24  S   UNL     1      47.962   5.512  20.483  0.00  0.00    +0.000 S 
ATOM     25  C   UNL     1      47.818   7.183  20.207  0.00  0.00    +0.000 A 
ATOM     26  N   UNL     1      47.266   8.008  21.139  0.00  0.00    +0.000 NA
ATOM     27  C   UNL     1      47.168   9.241  20.772  0.00  0.00    +0.000 A 
ATOM     28  N   UNL     1      47.603   9.732  19.569  0.00  0.00    +0.000 N 
ATOM     29  C   UNL     1      48.255   8.960  18.643  0.00  0.00    +0.000 A 
ATOM     30  O   UNL     1      48.778   9.462  17.655  0.00  0.00    +0.000 OA
ATOM     31  C   UNL     1      48.313   7.546  18.966  0.00  0.00    +0.000 A 
ATOM     32  H   UNL     1      47.545  10.718  19.361  0.00  0.00    +0.000 HD
ENDBRANCH  19  22
ENDBRANCH   1  18
BRANCH   1  33
ATOM     33  C   UNL     1      49.505   8.621  14.110  0.00  0.00    +0.000 C 
BRANCH  33  35
ATOM     34  N   UNL     1      51.751   7.753  14.523  0.00  0.00    +0.000 N 
ATOM     35  C   UNL     1      50.987   8.856  14.287  0.00  0.00    +0.000 C 
ATOM     36  O   UNL     1      51.495   9.972  14.260  0.00  0.00    +0.000 OA
ATOM     37  H   UNL     1      52.729   7.935  14.716  0.00  0.00    +0.000 HD
ATOM     38  H   UNL     1      51.351   6.915  14.924  0.00  0.00    +0.000 HD
ENDBRANCH  33  35
ENDBRANCH   1  33
TORSDOF 8
ENDMDL
MODEL 5
REMARK VINA RESULT:    -6.684      2.787      3.345
REMARK INTER + INTRA:         -11.671
REMARK INTER:                 -10.243
REMARK INTRA:                  -1.428
REMARK UNBOUND:                -1.861
REMARK  Name = 
REMARK  8 active torsions:
REMARK  status: ('A' for Active; 'I' for Inactive)
REMARK    1  A    between atoms: C_2  and  C_4
REMARK    2  A    between atoms: C_4  and  C_5
REMARK    3  A    between atoms: C_5  and  N_6
REMARK    4  A    between atoms: C_5  and  C_19
REMARK    5  A    between atoms: C_7  and  C_9
REMARK    6  A    between atoms: C_22  and  C_23
REMARK    7  A    between atoms: C_23  and  N_24
REMARK    8  A    between atoms: C_25  and  C_27
REMARK                            x       y       z     vdW  Elec       q    Type
REMARK                         _______ _______ _______ _____ _____    ______ ____
ROOT
ATOM      1  C   UNL     1      47.550   4.456  16.083  0.00  0.00    +0.000 C 
ENDROOT
BRANCH   1   2
ATOM      2  C   UNL     1      47.058   4.829  14.690  0.00  0.00    +0.000 A 
ATOM      3  C   UNL     1      47.569   5.975  14.059  0.00  0.00    +0.000 A 
ATOM      4  C   UNL     1      47.070   6.406  12.826  0.00  0.00    +0.000 A 
ATOM      5  C   UNL     1      46.046   5.701  12.183  0.00  0.00    +0.000 A 
ATOM      6  C   UNL     1      45.579   4.519  12.772  0.00  0.00    +0.000 A 
ATOM      7  C   UNL     1      46.076   4.089  14.012  0.00  0.00    +0.000 A 
BRANCH   5   8
ATOM      8  C   UNL     1      45.432   6.226  10.912  0.00  0.00    +0.000 C 
BRANCH   8   9
ATOM      9  N   UNL     1      45.713   5.404   9.758  0.00  0.00    +0.000 N 
ATOM     10  C   UNL     1      44.824   4.439   9.340  0.00  0.00    +0.000 C 
ATOM     11  O   UNL     1      43.731   4.265   9.875  0.00  0.00    +0.000 OA
ATOM     12  H   UNL     1      46.638   5.405   9.343  0.00  0.00    +0.000 HD
BRANCH  10  13
ATOM     13  C   UNL     1      45.270   3.670   8.091  0.00  0.00    +0.000 C 
ATOM     14  C   UNL     1      45.765   2.271   8.415  0.00  0.00    +0.000 C 
ATOM     15  C   UNL     1      46.645   1.959   7.233  0.00  0.00    +0.000 C 
ATOM     16  C   UNL     1      47.249   3.308   6.908  0.00  0.00    +0.000 C 
ATOM     17  O   UNL     1      46.328   4.315   7.361  0.00  0.00    +0.000 OA
ENDBRANCH  10  13
ENDBRANCH   8   9
ENDBRANCH   5   8
ENDBRANCH   1   2
BRANCH   1  18
ATOM     18  N   UNL     1      48.574   5.396  16.523  0.00  0.00    +0.000 N 
ATOM     19  C   UNL     1      48.431   6.185  17.639  0.00  0.00    +0.000 C 
ATOM     20  O   UNL     1      47.428   6.138  18.342  0.00  0.00    +0.000 OA
ATOM     21  H   UNL     1      49.379   5.518  15.918  0.00  0.00    +0.000 HD
BRANCH  19  22
ATOM     22  C   UNL     1      49.565   7.061  17.972  0.00  0.00    +0.000 A 
ATOM     23  C   UNL     1      50.633   6.568  18.707  0.00  0.00    +0.000 A 
ATOM     24  S   UNL     1      51.847   7.730  19.016  0.00  0.00    +0.000 S 
ATOM     25  C   UNL     1      50.960   8.947  18.227  0.00  0.00    +0.000 A 
ATOM     26  N   UNL     1      51.410  10.231  18.178  0.00  0.00    +0.000 NA
ATOM     27  C   UNL     1      50.608  11.059  17.599  0.00  0.00    +0.000 A 
ATOM     28  N   UNL     1      49.409  10.713  17.032  0.00  0.00    +0.000 N 
ATOM     29  C   UNL     1      48.963   9.418  16.968  0.00  0.00    +0.000 A 
ATOM     30  O   UNL     1      47.973   9.121  16.310  0.00  0.00    +0.000 OA
ATOM     31  C   UNL     1      49.784   8.459  17.683  0.00  0.00    +0.000 A 
ATOM     32  H   UNL     1      48.850  11.398  16.546  0.00  0.00    +0.000 HD
ENDBRANCH  19  22
ENDBRANCH   1  18
BRANCH   1  33
ATOM     33  C   UNL     1      48.060   3.010  16.176  0.00  0.00    +0.000 C 
BRANCH  33  35
ATOM     34  N   UNL     1      50.177   2.248  17.127  0.00  0.00    +0.000 N 
ATOM     35  C   UNL     1      48.947   2.779  17.376  0.00  0.00    +0.000 C 
ATOM     36  O   UNL     1      48.591   3.014  18.526  0.00  0.00    +0.000 OA
ATOM     37  H   UNL     1      50.729   2.026  17.947  0.00  0.00    +0.000 HD
ATOM     38  H   UNL     1      50.352   1.702  16.294  0.00  0.00    +0.000 HD
ENDBRANCH  33  35
ENDBRANCH   1  33
TORSDOF 8
ENDMDL
MODEL 6
REMARK VINA RESULT:    -6.624      1.968      2.607
REMARK INTER + INTRA:         -11.584
REMARK INTER:                  -9.794
REMARK INTRA:                  -1.790
REMARK UNBOUND:                -1.861
REMARK  Name = 
REMARK  8 active torsions:
REMARK  status: ('A' for Active; 'I' for Inactive)
REMARK    1  A    between atoms: C_2  and  C_4
REMARK    2  A    between atoms: C_4  and  C_5
REMARK    3  A    between atoms: C_5  and  N_6
REMARK    4  A    between atoms: C_5  and  C_19
REMARK    5  A    between atoms: C_7  and  C_9
REMARK    6  A    between atoms: C_22  and  C_23
REMARK    7  A    between atoms: C_23  and  N_24
REMARK    8  A    between atoms: C_25  and  C_27
REMARK                            x       y       z     vdW  Elec       q    Type
REMARK                         _______ _______ _______ _____ _____    ______ ____
ROOT
ATOM      1  C   UNL     1      48.674   7.196  14.724  0.00  0.00    +0.000 C 
ENDROOT
BRANCH   1   2
ATOM      2  C   UNL     1      47.656   6.716  13.697  0.00  0.00    +0.000 A 
ATOM      3  C   UNL     1      47.282   7.567  12.644  0.00  0.00    +0.000 A 
ATOM      4  C   UNL     1      46.278   7.204  11.741  0.00  0.00    +0.000 A 
ATOM      5  C   UNL     1      45.620   5.973  11.861  0.00  0.00    +0.000 A 
ATOM      6  C   UNL     1      46.035   5.091  12.867  0.00  0.00    +0.000 A 
ATOM      7  C   UNL     1      47.039   5.458  13.776  0.00  0.00    +0.000 A 
BRANCH   5   8
ATOM      8  C   UNL     1      44.464   5.630  10.959  0.00  0.00    +0.000 C 
BRANCH   8   9
ATOM      9  N   UNL     1      44.867   4.969   9.739  0.00  0.00    +0.000 N 
ATOM     10  C   UNL     1      44.729   3.607   9.590  0.00  0.00    +0.000 C 
ATOM     11  O   UNL     1      44.208   2.894  10.445  0.00  0.00    +0.000 OA
ATOM     12  H   UNL     1      45.413   5.467   9.044  0.00  0.00    +0.000 HD
BRANCH  10  13
ATOM     13  C   UNL     1      45.190   3.073   8.229  0.00  0.00    +0.000 C 
ATOM     14  C   UNL     1      46.034   1.817   8.353  0.00  0.00    +0.000 C 
ATOM     15  C   UNL     1      46.815   1.825   7.064  0.00  0.00    +0.000 C 
ATOM     16  C   UNL     1      47.041   3.302   6.827  0.00  0.00    +0.000 C 
ATOM     17  O   UNL     1      45.972   4.013   7.471  0.00  0.00    +0.000 OA
ENDBRANCH  10  13
ENDBRANCH   8   9
ENDBRANCH   5   8
ENDBRANCH   1   2
BRANCH   1  18
ATOM     18  N   UNL     1      49.977   7.377  14.095  0.00  0.00    +0.000 N 
ATOM     19  C   UNL     1      50.640   8.580  14.084  0.00  0.00    +0.000 C 
ATOM     20  O   UNL     1      50.173   9.581  14.616  0.00  0.00    +0.000 OA
ATOM     21  H   UNL     1      50.352   6.589  13.576  0.00  0.00    +0.000 HD
BRANCH  19  22
ATOM     22  C   UNL     1      51.960   8.596  13.437  0.00  0.00    +0.000 A 
ATOM     23  C   UNL     1      53.083   8.984  14.155  0.00  0.00    +0.000 A 
ATOM     24  S   UNL     1      54.524   8.961  13.238  0.00  0.00    +0.000 S 
ATOM     25  C   UNL     1      53.689   8.486  11.835  0.00  0.00    +0.000 A 
ATOM     26  N   UNL     1      54.334   8.342  10.645  0.00  0.00    +0.000 NA
ATOM     27  C   UNL     1      53.567   8.035   9.654  0.00  0.00    +0.000 A 
ATOM     28  N   UNL     1      52.216   7.826   9.751  0.00  0.00    +0.000 N 
ATOM     29  C   UNL     1      51.542   7.861  10.945  0.00  0.00    +0.000 A 
ATOM     30  O   UNL     1      50.372   7.506  11.023  0.00  0.00    +0.000 OA
ATOM     31  C   UNL     1      52.341   8.290  12.078  0.00  0.00    +0.000 A 
ATOM     32  H   UNL     1      51.678   7.536   8.948  0.00  0.00    +0.000 HD
ENDBRANCH  19  22
ENDBRANCH   1  18
BRANCH   1  33
ATOM     33  C   UNL     1      48.781   6.270  15.945  0.00  0.00    +0.000 C 
BRANCH  33  35
ATOM     34  N   UNL     1      48.029   6.921  18.175  0.00  0.00    +0.000 N 
ATOM     35  C   UNL     1      49.008   7.025  17.233  0.00  0.00    +0.000 C 
ATOM     36  O   UNL     1      49.992   7.727  17.433  0.00  0.00    +0.000 OA
ATOM     37  H   UNL     1      48.158   7.495  19.001  0.00  0.00    +0.000 HD
ATOM     38  H   UNL     1      47.077   6.693  17.919  0.00  0.00    +0.000 HD
ENDBRANCH  33  35
ENDBRANCH   1  33
TORSDOF 8
ENDMDL
MODEL 7
REMARK VINA RESULT:    -6.575      3.538      5.748
REMARK INTER + INTRA:         -11.512
REMARK INTER:                  -9.707
REMARK INTRA:                  -1.805
REMARK UNBOUND:                -1.861
REMARK  Name = 
REMARK  8 active torsions:
REMARK  status: ('A' for Active; 'I' for Inactive)
REMARK    1  A    between atoms: C_2  and  C_4
REMARK    2  A    between atoms: C_4  and  C_5
REMARK    3  A    between atoms: C_5  and  N_6
REMARK    4  A    between atoms: C_5  and  C_19
REMARK    5  A    between atoms: C_7  and  C_9
REMARK    6  A    between atoms: C_22  and  C_23
REMARK    7  A    between atoms: C_23  and  N_24
REMARK    8  A    between atoms: C_25  and  C_27
REMARK                            x       y       z     vdW  Elec       q    Type
REMARK                         _______ _______ _______ _____ _____    ______ ____
ROOT
ATOM      1  C   UNL     1      49.357   7.082  17.263  0.00  0.00    +0.000 C 
ENDROOT
BRANCH   1   2
ATOM      2  C   UNL     1      48.914   6.944  15.812  0.00  0.00    +0.000 A 
ATOM      3  C   UNL     1      49.240   7.953  14.890  0.00  0.00    +0.000 A 
ATOM      4  C   UNL     1      48.766   7.913  13.575  0.00  0.00    +0.000 A 
ATOM      5  C   UNL     1      47.953   6.859  13.140  0.00  0.00    +0.000 A 
ATOM      6  C   UNL     1      47.680   5.815  14.034  0.00  0.00    +0.000 A 
ATOM      7  C   UNL     1      48.151   5.858  15.354  0.00  0.00    +0.000 A 
BRANCH   5   8
ATOM      8  C   UNL     1      47.351   6.873  11.760  0.00  0.00    +0.000 C 
BRANCH   8   9
ATOM      9  N   UNL     1      46.307   5.892  11.581  0.00  0.00    +0.000 N 
ATOM     10  C   UNL     1      44.994   6.273  11.415  0.00  0.00    +0.000 C 
ATOM     11  O   UNL     1      44.647   7.451  11.348  0.00  0.00    +0.000 OA
ATOM     12  H   UNL     1      46.495   4.909  11.747  0.00  0.00    +0.000 HD
BRANCH  10  13
ATOM     13  C   UNL     1      44.018   5.106  11.222  0.00  0.00    +0.000 C 
ATOM     14  C   UNL     1      43.990   4.168  12.416  0.00  0.00    +0.000 C 
ATOM     15  C   UNL     1      43.480   2.888  11.808  0.00  0.00    +0.000 C 
ATOM     16  C   UNL     1      44.093   2.915  10.425  0.00  0.00    +0.000 C 
ATOM     17  O   UNL     1      44.311   4.291  10.074  0.00  0.00    +0.000 OA
ENDBRANCH  10  13
ENDBRANCH   8   9
ENDBRANCH   5   8
ENDBRANCH   1   2
BRANCH   1  18
ATOM     18  N   UNL     1      50.232   5.975  17.629  0.00  0.00    +0.000 N 
ATOM     19  C   UNL     1      51.556   5.921  17.271  0.00  0.00    +0.000 C 
ATOM     20  O   UNL     1      52.090   6.815  16.623  0.00  0.00    +0.000 OA
ATOM     21  H   UNL     1      49.802   5.181  18.095  0.00  0.00    +0.000 HD
BRANCH  19  22
ATOM     22  C   UNL     1      52.317   4.753  17.742  0.00  0.00    +0.000 A 
ATOM     23  C   UNL     1      53.602   4.913  18.238  0.00  0.00    +0.000 A 
ATOM     24  S   UNL     1      54.339   3.449  18.720  0.00  0.00    +0.000 S 
ATOM     25  C   UNL     1      52.987   2.543  18.228  0.00  0.00    +0.000 A 
ATOM     26  N   UNL     1      52.980   1.184  18.308  0.00  0.00    +0.000 NA
ATOM     27  C   UNL     1      51.913   0.625  17.847  0.00  0.00    +0.000 A 
ATOM     28  N   UNL     1      50.834   1.305  17.343  0.00  0.00    +0.000 N 
ATOM     29  C   UNL     1      50.755   2.674  17.336  0.00  0.00    +0.000 A 
ATOM     30  O   UNL     1      49.715   3.246  17.036  0.00  0.00    +0.000 OA
ATOM     31  C   UNL     1      51.966   3.352  17.761  0.00  0.00    +0.000 A 
ATOM     32  H   UNL     1      50.006   0.812  17.045  0.00  0.00    +0.000 HD
ENDBRANCH  19  22
ENDBRANCH   1  18
BRANCH   1  33
ATOM     33  C   UNL     1      48.181   7.196  18.245  0.00  0.00    +0.000 C 
BRANCH  33  35
ATOM     34  N   UNL     1      46.739   5.244  18.520  0.00  0.00    +0.000 N 
ATOM     35  C   UNL     1      47.865   5.890  18.934  0.00  0.00    +0.000 C 
ATOM     36  O   UNL     1      48.548   5.431  19.843  0.00  0.00    +0.000 OA
ATOM     37  H   UNL     1      46.499   4.410  19.045  0.00  0.00    +0.000 HD
ATOM     38  H   UNL     1      45.979   5.746  18.082  0.00  0.00    +0.000 HD
ENDBRANCH  33  35
ENDBRANCH   1  33
TORSDOF 8
ENDMDL
MODEL 8
REMARK VINA RESULT:    -6.547      4.047      8.711
REMARK INTER + INTRA:         -11.471
REMARK INTER:                  -9.716
REMARK INTRA:                  -1.754
REMARK UNBOUND:                -1.861
REMARK  Name = 
REMARK  8 active torsions:
REMARK  status: ('A' for Active; 'I' for Inactive)
REMARK    1  A    between atoms: C_2  and  C_4
REMARK    2  A    between atoms: C_4  and  C_5
REMARK    3  A    between atoms: C_5  and  N_6
REMARK    4  A    between atoms: C_5  and  C_19
REMARK    5  A    between atoms: C_7  and  C_9
REMARK    6  A    between atoms: C_22  and  C_23
REMARK    7  A    between atoms: C_23  and  N_24
REMARK    8  A    between atoms: C_25  and  C_27
REMARK                            x       y       z     vdW  Elec       q    Type
REMARK                         _______ _______ _______ _____ _____    ______ ____
ROOT
ATOM      1  C   UNL     1      48.312   7.018  13.803  0.00  0.00    +0.000 C 
ENDROOT
BRANCH   1   2
ATOM      2  C   UNL     1      48.620   6.276  15.097  0.00  0.00    +0.000 A 
ATOM      3  C   UNL     1      49.782   6.596  15.818  0.00  0.00    +0.000 A 
ATOM      4  C   UNL     1      50.152   5.869  16.954  0.00  0.00    +0.000 A 
ATOM      5  C   UNL     1      49.368   4.801  17.407  0.00  0.00    +0.000 A 
ATOM      6  C   UNL     1      48.172   4.520  16.732  0.00  0.00    +0.000 A 
ATOM      7  C   UNL     1      47.804   5.246  15.590  0.00  0.00    +0.000 A 
BRANCH   5   8
ATOM      8  C   UNL     1      49.824   3.949  18.561  0.00  0.00    +0.000 C 
BRANCH   8   9
ATOM      9  N   UNL     1      51.191   3.501  18.436  0.00  0.00    +0.000 N 
ATOM     10  C   UNL     1      51.495   2.310  17.815  0.00  0.00    +0.000 C 
ATOM     11  O   UNL     1      50.643   1.600  17.284  0.00  0.00    +0.000 OA
ATOM     12  H   UNL     1      51.930   3.966  18.952  0.00  0.00    +0.000 HD
BRANCH  10  13
ATOM     13  C   UNL     1      52.994   1.995  17.754  0.00  0.00    +0.000 C 
ATOM     14  C   UNL     1      53.277   0.622  17.170  0.00  0.00    +0.000 C 
ATOM     15  C   UNL     1      54.640   0.309  17.728  0.00  0.00    +0.000 C 
ATOM     16  C   UNL     1      54.588   0.948  19.099  0.00  0.00    +0.000 C 
ATOM     17  O   UNL     1      53.646   2.031  19.036  0.00  0.00    +0.000 OA
ENDBRANCH  10  13
ENDBRANCH   8   9
ENDBRANCH   5   8
ENDBRANCH   1   2
BRANCH   1  18
ATOM     18  N   UNL     1      47.554   6.162  12.899  0.00  0.00    +0.000 N 
ATOM     19  C   UNL     1      46.528   6.628  12.114  0.00  0.00    +0.000 C 
ATOM     20  O   UNL     1      46.192   7.808  12.120  0.00  0.00    +0.000 OA
ATOM     21  H   UNL     1      47.752   5.167  12.931  0.00  0.00    +0.000 HD
BRANCH  19  22
ATOM     22  C   UNL     1      45.878   5.648  11.231  0.00  0.00    +0.000 A 
ATOM     23  C   UNL     1      45.989   5.770   9.853  0.00  0.00    +0.000 A 
ATOM     24  S   UNL     1      45.156   4.556   8.988  0.00  0.00    +0.000 S 
ATOM     25  C   UNL     1      44.572   3.857  10.423  0.00  0.00    +0.000 A 
ATOM     26  N   UNL     1      43.726   2.790  10.396  0.00  0.00    +0.000 NA
ATOM     27  C   UNL     1      43.318   2.400  11.556  0.00  0.00    +0.000 A 
ATOM     28  N   UNL     1      43.705   2.960  12.746  0.00  0.00    +0.000 N 
ATOM     29  C   UNL     1      44.630   3.968  12.826  0.00  0.00    +0.000 A 
ATOM     30  O   UNL     1      45.079   4.330  13.907  0.00  0.00    +0.000 OA
ATOM     31  C   UNL     1      45.055   4.504  11.547  0.00  0.00    +0.000 A 
ATOM     32  H   UNL     1      43.391   2.576  13.624  0.00  0.00    +0.000 HD
ENDBRANCH  19  22
ENDBRANCH   1  18
BRANCH   1  33
ATOM     33  C   UNL     1      49.567   7.568  13.108  0.00  0.00    +0.000 C 
BRANCH  33  35
ATOM     34  N   UNL     1      48.810   9.414  11.700  0.00  0.00    +0.000 N 
ATOM     35  C   UNL     1      49.480   9.049  12.829  0.00  0.00    +0.000 C 
ATOM     36  O   UNL     1      50.005   9.897  13.543  0.00  0.00    +0.000 OA
ATOM     37  H   UNL     1      48.827  10.405  11.485  0.00  0.00    +0.000 HD
ATOM     38  H   UNL     1      48.711   8.777  10.921  0.00  0.00    +0.000 HD
ENDBRANCH  33  35
ENDBRANCH   1  33
TORSDOF 8
ENDMDL
MODEL 9
REMARK VINA RESULT:    -6.527      2.211      2.955
REMARK INTER + INTRA:         -11.441
REMARK INTER:                  -9.739
REMARK INTRA:                  -1.702
REMARK UNBOUND:                -1.861
REMARK  Name = 
REMARK  8 active torsions:
REMARK  status: ('A' for Active; 'I' for Inactive)
REMARK    1  A    between atoms: C_2  and  C_4
REMARK    2  A    between atoms: C_4  and  C_5
REMARK    3  A    between atoms: C_5  and  N_6
REMARK    4  A    between atoms: C_5  and  C_19
REMARK    5  A    between atoms: C_7  and  C_9
REMARK    6  A    between atoms: C_22  and  C_23
REMARK    7  A    between atoms: C_23  and  N_24
REMARK    8  A    between atoms: C_25  and  C_27
REMARK                            x       y       z     vdW  Elec       q    Type
REMARK                         _______ _______ _______ _____ _____    ______ ____
ROOT
ATOM      1  C   UNL     1      47.844   7.734  13.974  0.00  0.00    +0.000 C 
ENDROOT
BRANCH   1   2
ATOM      2  C   UNL     1      46.672   7.150  13.194  0.00  0.00    +0.000 A 
ATOM      3  C   UNL     1      46.445   5.764  13.221  0.00  0.00    +0.000 A 
ATOM      4  C   UNL     1      45.444   5.180  12.439  0.00  0.00    +0.000 A 
ATOM      5  C   UNL     1      44.635   5.965  11.609  0.00  0.00    +0.000 A 
ATOM      6  C   UNL     1      44.810   7.355  11.630  0.00  0.00    +0.000 A 
ATOM      7  C   UNL     1      45.818   7.941  12.410  0.00  0.00    +0.000 A 
BRANCH   5   8
ATOM      8  C   UNL     1      43.633   5.325  10.685  0.00  0.00    +0.000 C 
BRANCH   8   9
ATOM      9  N   UNL     1      44.238   4.696   9.534  0.00  0.00    +0.000 N 
ATOM     10  C   UNL     1      44.339   3.326   9.444  0.00  0.00    +0.000 C 
ATOM     11  O   UNL     1      43.873   2.567  10.293  0.00  0.00    +0.000 OA
ATOM     12  H   UNL     1      44.751   5.252   8.858  0.00  0.00    +0.000 HD
BRANCH  10  13
ATOM     13  C   UNL     1      44.991   2.825   8.150  0.00  0.00    +0.000 C 
ATOM     14  C   UNL     1      46.021   1.737   8.402  0.00  0.00    +0.000 C 
ATOM     15  C   UNL     1      46.891   1.828   7.175  0.00  0.00    +0.000 C 
ATOM     16  C   UNL     1      46.886   3.312   6.879  0.00  0.00    +0.000 C 
ATOM     17  O   UNL     1      45.664   3.855   7.405  0.00  0.00    +0.000 OA
ENDBRANCH  10  13
ENDBRANCH   8   9
ENDBRANCH   5   8
ENDBRANCH   1   2
BRANCH   1  18
ATOM     18  N   UNL     1      48.836   8.283  13.057  0.00  0.00    +0.000 N 
ATOM     19  C   UNL     1      49.086   9.628  12.946  0.00  0.00    +0.000 C 
ATOM     20  O   UNL     1      48.489  10.457  13.626  0.00  0.00    +0.000 OA
ATOM     21  H   UNL     1      49.288   7.631  12.422  0.00  0.00    +0.000 HD
BRANCH  19  22
ATOM     22  C   UNL     1      50.138  10.025  11.998  0.00  0.00    +0.000 A 
ATOM     23  C   UNL     1      49.855  10.925  10.980  0.00  0.00    +0.000 A 
ATOM     24  S   UNL     1      51.189  11.254   9.965  0.00  0.00    +0.000 S 
ATOM     25  C   UNL     1      52.175  10.162  10.816  0.00  0.00    +0.000 A 
ATOM     26  N   UNL     1      53.455   9.912  10.423  0.00  0.00    +0.000 NA
ATOM     27  C   UNL     1      54.066   9.019  11.125  0.00  0.00    +0.000 A 
ATOM     28  N   UNL     1      53.526   8.376  12.208  0.00  0.00    +0.000 N 
ATOM     29  C   UNL     1      52.280   8.669  12.700  0.00  0.00    +0.000 A 
ATOM     30  O   UNL     1      51.894   8.200  13.764  0.00  0.00    +0.000 OA
ATOM     31  C   UNL     1      51.514   9.601  11.895  0.00  0.00    +0.000 A 
ATOM     32  H   UNL     1      54.074   7.725  12.749  0.00  0.00    +0.000 HD
ENDBRANCH  19  22
ENDBRANCH   1  18
BRANCH   1  33
ATOM     33  C   UNL     1      48.490   6.727  14.937  0.00  0.00    +0.000 C 
BRANCH  33  35
ATOM     34  N   UNL     1      48.329   6.953  17.363  0.00  0.00    +0.000 N 
ATOM     35  C   UNL     1      48.955   7.363  16.225  0.00  0.00    +0.000 C 
ATOM     36  O   UNL     1      49.822   8.230  16.268  0.00  0.00    +0.000 OA
ATOM     37  H   UNL     1      48.598   7.445  18.208  0.00  0.00    +0.000 HD
ATOM     38  H   UNL     1      47.398   6.561  17.336  0.00  0.00    +0.000 HD
ENDBRANCH  33  35
ENDBRANCH   1  33
TORSDOF 8
ENDMDL
