MODEL 1
REMARK VINA RESULT:    -7.591      0.000      0.000
REMARK INTER + INTRA:         -12.133
REMARK INTER:                 -11.140
REMARK INTRA:                  -0.992
REMARK UNBOUND:                -0.992
REMARK  Name = 
REMARK  9 active torsions:
REMARK  status: ('A' for Active; 'I' for Inactive)
REMARK    1  A    between atoms: C_1  and  C_2
REMARK    2  A    between atoms: C_2  and  N_3
REMARK    3  A    between atoms: C_2  and  C_19
REMARK    4  A    between atoms: N_3  and  C_4
REMARK    5  A    between atoms: C_4  and  C_5
REMARK    6  A    between atoms: C_9  and  C_10
REMARK    7  A    between atoms: C_10  and  N_11
REMARK    8  A    between atoms: N_11  and  C_12
REMARK    9  A    between atoms: C_12  and  C_13
REMARK                            x       y       z     vdW  Elec       q    Type
REMARK                         _______ _______ _______ _____ _____    ______ ____
ROOT
ATOM      1  C   UNL     1      47.101   3.747  14.498  0.00  0.00    +0.000 C 
ENDROOT
BRANCH   1   2
ATOM      2  C   UNL     1      46.371   4.331  13.303  0.00  0.00    +0.000 A 
ATOM      3  N   UNL     1      46.569   5.636  13.026  0.00  0.00    +0.000 NA
ATOM      4  C   UNL     1      45.795   6.161  12.061  0.00  0.00    +0.000 A 
ATOM      5  C   UNL     1      44.843   5.448  11.371  0.00  0.00    +0.000 A 
ATOM      6  C   UNL     1      44.705   4.123  11.725  0.00  0.00    +0.000 A 
ATOM      7  N   UNL     1      45.465   3.548  12.687  0.00  0.00    +0.000 NA
BRANCH   6   8
ATOM      8  C   UNL     1      43.629   3.259  11.098  0.00  0.00    +0.000 C 
BRANCH   8   9
ATOM      9  N   UNL     1      44.167   2.183  10.244  0.00  0.00    +0.000 NA
ATOM     10  H   UNL     1      43.418   1.487  10.167  0.00  0.00    +0.000 HD
BRANCH   9  11
ATOM     11  C   UNL     1      44.484   2.671   8.897  0.00  0.00    +0.000 C 
BRANCH  11  12
ATOM     12  C   UNL     1      45.967   2.496   8.543  0.00  0.00    +0.000 C 
ATOM     13  C   UNL     1      46.387   3.196   7.257  0.00  0.00    +0.000 C 
ATOM     14  C   UNL     1      47.504   2.310   6.765  0.00  0.00    +0.000 C 
ATOM     15  C   UNL     1      47.010   0.934   7.156  0.00  0.00    +0.000 C 
ATOM     16  O   UNL     1      46.254   1.090   8.357  0.00  0.00    +0.000 OA
ENDBRANCH  11  12
ENDBRANCH   9  11
ENDBRANCH   8   9
ENDBRANCH   6   8
ENDBRANCH   1   2
BRANCH   1  17
ATOM     17  N   UNL     1      46.883   4.438  15.786  0.00  0.00    +0.000 NA
ATOM     18  H   UNL     1      45.970   4.155  16.160  0.00  0.00    +0.000 HD
BRANCH  17  20
ATOM     19  C   UNL     1      47.661   2.844  17.600  0.00  0.00    +0.000 C 
ATOM     20  C   UNL     1      47.938   4.090  16.732  0.00  0.00    +0.000 C 
BRANCH  20  21
ATOM     21  C   UNL     1      48.250   5.276  17.621  0.00  0.00    +0.000 A 
ATOM     22  C   UNL     1      48.135   5.251  19.002  0.00  0.00    +0.000 A 
ATOM     23  S   UNL     1      48.095   6.820  19.686  0.00  0.00    +0.000 S 
ATOM     24  C   UNL     1      48.337   7.550  18.166  0.00  0.00    +0.000 A 
ATOM     25  N   UNL     1      48.279   8.899  18.000  0.00  0.00    +0.000 NA
ATOM     26  C   UNL     1      48.546   9.293  16.798  0.00  0.00    +0.000 A 
ATOM     27  N   UNL     1      48.909   8.470  15.761  0.00  0.00    +0.000 N 
ATOM     28  C   UNL     1      48.977   7.100  15.880  0.00  0.00    +0.000 A 
ATOM     29  O   UNL     1      49.350   6.389  14.952  0.00  0.00    +0.000 OA
ATOM     30  C   UNL     1      48.582   6.608  17.186  0.00  0.00    +0.000 A 
ATOM     31  H   UNL     1      49.177   8.850  14.866  0.00  0.00    +0.000 HD
ENDBRANCH  20  21
ENDBRANCH  17  20
ENDBRANCH   1  17
TORSDOF 8
ENDMDL
MODEL 2
REMARK VINA RESULT:    -7.234      2.318      2.706
REMARK INTER + INTRA:         -11.610
REMARK INTER:                 -11.034
REMARK INTRA:                  -0.576
REMARK UNBOUND:                -0.992
REMARK  Name = 
REMARK  9 active torsions:
REMARK  status: ('A' for Active; 'I' for Inactive)
REMARK    1  A    between atoms: C_1  and  C_2
REMARK    2  A    between atoms: C_2  and  N_3
REMARK    3  A    between atoms: C_2  and  C_19
REMARK    4  A    between atoms: N_3  and  C_4
REMARK    5  A    between atoms: C_4  and  C_5
REMARK    6  A    between atoms: C_9  and  C_10
REMARK    7  A    between atoms: C_10  and  N_11
REMARK    8  A    between atoms: N_11  and  C_12
REMARK    9  A    between atoms: C_12  and  C_13
REMARK                            x       y       z     vdW  Elec       q    Type
REMARK                         _______ _______ _______ _____ _____    ______ ____
ROOT
ATOM      1  C   UNL     1      46.844   4.331  14.161  0.00  0.00    +0.000 C 
ENDROOT
BRANCH   1   2
ATOM      2  C   UNL     1      46.113   5.140  13.106  0.00  0.00    +0.000 A 
ATOM      3  N   UNL     1      46.133   6.483  13.223  0.00  0.00    +0.000 NA
ATOM      4  C   UNL     1      45.353   7.165  12.367  0.00  0.00    +0.000 A 
ATOM      5  C   UNL     1      44.563   6.569  11.412  0.00  0.00    +0.000 A 
ATOM      6  C   UNL     1      44.599   5.193  11.369  0.00  0.00    +0.000 A 
ATOM      7  N   UNL     1      45.373   4.462  12.207  0.00  0.00    +0.000 NA
BRANCH   6   8
ATOM      8  C   UNL     1      43.704   4.419  10.421  0.00  0.00    +0.000 C 
BRANCH   8   9
ATOM      9  N   UNL     1      44.235   4.345   9.046  0.00  0.00    +0.000 NA
ATOM     10  H   UNL     1      45.126   4.850   9.064  0.00  0.00    +0.000 HD
BRANCH   9  11
ATOM     11  C   UNL     1      44.497   2.958   8.644  0.00  0.00    +0.000 C 
BRANCH  11  12
ATOM     12  C   UNL     1      45.976   2.711   8.319  0.00  0.00    +0.000 C 
ATOM     13  C   UNL     1      46.379   3.108   6.905  0.00  0.00    +0.000 C 
ATOM     14  C   UNL     1      47.493   2.136   6.608  0.00  0.00    +0.000 C 
ATOM     15  C   UNL     1      47.009   0.881   7.301  0.00  0.00    +0.000 C 
ATOM     16  O   UNL     1      46.267   1.299   8.446  0.00  0.00    +0.000 OA
ENDBRANCH  11  12
ENDBRANCH   9  11
ENDBRANCH   8   9
ENDBRANCH   6   8
ENDBRANCH   1   2
BRANCH   1  17
ATOM     17  N   UNL     1      47.126   5.034  15.430  0.00  0.00    +0.000 NA
ATOM     18  H   UNL     1      46.234   5.284  15.873  0.00  0.00    +0.000 HD
BRANCH  17  20
ATOM     19  C   UNL     1      47.071   3.312  17.292  0.00  0.00    +0.000 C 
ATOM     20  C   UNL     1      47.902   4.178  16.320  0.00  0.00    +0.000 C 
BRANCH  20  21
ATOM     21  C   UNL     1      48.900   5.010  17.100  0.00  0.00    +0.000 A 
ATOM     22  C   UNL     1      48.708   6.346  17.413  0.00  0.00    +0.000 A 
ATOM     23  S   UNL     1      50.159   7.130  17.870  0.00  0.00    +0.000 S 
ATOM     24  C   UNL     1      51.044   5.678  17.760  0.00  0.00    +0.000 A 
ATOM     25  N   UNL     1      52.396   5.649  17.897  0.00  0.00    +0.000 NA
ATOM     26  C   UNL     1      52.905   4.462  17.848  0.00  0.00    +0.000 A 
ATOM     27  N   UNL     1      52.185   3.300  17.719  0.00  0.00    +0.000 N 
ATOM     28  C   UNL     1      50.816   3.280  17.572  0.00  0.00    +0.000 A 
ATOM     29  O   UNL     1      50.189   2.227  17.506  0.00  0.00    +0.000 OA
ATOM     30  C   UNL     1      50.216   4.599  17.516  0.00  0.00    +0.000 A 
ATOM     31  H   UNL     1      52.638   2.400  17.762  0.00  0.00    +0.000 HD
ENDBRANCH  20  21
ENDBRANCH  17  20
ENDBRANCH   1  17
TORSDOF 8
ENDMDL
MODEL 3
REMARK VINA RESULT:    -6.916      2.220      3.114
REMARK INTER + INTRA:         -11.143
REMARK INTER:                 -10.390
REMARK INTRA:                  -0.753
REMARK UNBOUND:                -0.992
REMARK  Name = 
REMARK  9 active torsions:
REMARK  status: ('A' for Active; 'I' for Inactive)
REMARK    1  A    between atoms: C_1  and  C_2
REMARK    2  A    between atoms: C_2  and  N_3
REMARK    3  A    between atoms: C_2  and  C_19
REMARK    4  A    between atoms: N_3  and  C_4
REMARK    5  A    between atoms: C_4  and  C_5
REMARK    6  A    between atoms: C_9  and  C_10
REMARK    7  A    between atoms: C_10  and  N_11
REMARK    8  A    between atoms: N_11  and  C_12
REMARK    9  A    between atoms: C_12  and  C_13
REMARK                            x       y       z     vdW  Elec       q    Type
REMARK                         _______ _______ _______ _____ _____    ______ ____
ROOT
ATOM      1  C   UNL     1      46.422   3.632  13.548  0.00  0.00    +0.000 C 
ENDROOT
BRANCH   1   2
ATOM      2  C   UNL     1      45.196   4.193  12.853  0.00  0.00    +0.000 A 
ATOM      3  N   UNL     1      44.160   4.578  13.626  0.00  0.00    +0.000 NA
ATOM      4  C   UNL     1      43.034   4.926  12.979  0.00  0.00    +0.000 A 
ATOM      5  C   UNL     1      42.901   4.905  11.610  0.00  0.00    +0.000 A 
ATOM      6  C   UNL     1      44.007   4.492  10.901  0.00  0.00    +0.000 A 
ATOM      7  N   UNL     1      45.166   4.137  11.508  0.00  0.00    +0.000 NA
BRANCH   6   8
ATOM      8  C   UNL     1      43.954   4.341   9.394  0.00  0.00    +0.000 C 
BRANCH   8   9
ATOM      9  N   UNL     1      45.207   4.734   8.722  0.00  0.00    +0.000 NA
ATOM     10  H   UNL     1      45.961   4.476   9.367  0.00  0.00    +0.000 HD
BRANCH   9  11
ATOM     11  C   UNL     1      45.401   3.997   7.467  0.00  0.00    +0.000 C 
BRANCH  11  12
ATOM     12  C   UNL     1      46.628   3.078   7.509  0.00  0.00    +0.000 C 
ATOM     13  C   UNL     1      47.048   2.535   6.149  0.00  0.00    +0.000 C 
ATOM     14  C   UNL     1      47.654   1.203   6.513  0.00  0.00    +0.000 C 
ATOM     15  C   UNL     1      46.763   0.751   7.649  0.00  0.00    +0.000 C 
ATOM     16  O   UNL     1      46.339   1.927   8.338  0.00  0.00    +0.000 OA
ENDBRANCH  11  12
ENDBRANCH   9  11
ENDBRANCH   8   9
ENDBRANCH   6   8
ENDBRANCH   1   2
BRANCH   1  17
ATOM     17  N   UNL     1      47.615   4.503  13.552  0.00  0.00    +0.000 NA
ATOM     18  H   UNL     1      47.913   4.657  12.582  0.00  0.00    +0.000 HD
BRANCH  17  20
ATOM     19  C   UNL     1      47.240   6.992  13.232  0.00  0.00    +0.000 C 
ATOM     20  C   UNL     1      47.306   5.780  14.187  0.00  0.00    +0.000 C 
BRANCH  20  21
ATOM     21  C   UNL     1      48.294   6.058  15.301  0.00  0.00    +0.000 A 
ATOM     22  C   UNL     1      49.211   7.097  15.273  0.00  0.00    +0.000 A 
ATOM     23  S   UNL     1      50.475   6.890  16.409  0.00  0.00    +0.000 S 
ATOM     24  C   UNL     1      49.763   5.471  17.026  0.00  0.00    +0.000 A 
ATOM     25  N   UNL     1      50.392   4.694  17.948  0.00  0.00    +0.000 NA
ATOM     26  C   UNL     1      49.690   3.689  18.357  0.00  0.00    +0.000 A 
ATOM     27  N   UNL     1      48.404   3.414  17.964  0.00  0.00    +0.000 N 
ATOM     28  C   UNL     1      47.728   4.168  17.031  0.00  0.00    +0.000 A 
ATOM     29  O   UNL     1      46.562   3.931  16.731  0.00  0.00    +0.000 OA
ATOM     30  C   UNL     1      48.519   5.245  16.468  0.00  0.00    +0.000 A 
ATOM     31  H   UNL     1      47.885   2.655  18.378  0.00  0.00    +0.000 HD
ENDBRANCH  20  21
ENDBRANCH  17  20
ENDBRANCH   1  17
TORSDOF 8
ENDMDL
MODEL 4
REMARK VINA RESULT:    -6.889      2.222      3.533
REMARK INTER + INTRA:         -11.103
REMARK INTER:                 -10.172
REMARK INTRA:                  -0.931
REMARK UNBOUND:                -0.992
REMARK  Name = 
REMARK  9 active torsions:
REMARK  status: ('A' for Active; 'I' for Inactive)
REMARK    1  A    between atoms: C_1  and  C_2
REMARK    2  A    between atoms: C_2  and  N_3
REMARK    3  A    between atoms: C_2  and  C_19
REMARK    4  A    between atoms: N_3  and  C_4
REMARK    5  A    between atoms: C_4  and  C_5
REMARK    6  A    between atoms: C_9  and  C_10
REMARK    7  A    between atoms: C_10  and  N_11
REMARK    8  A    between atoms: N_11  and  C_12
REMARK    9  A    between atoms: C_12  and  C_13
REMARK                            x       y       z     vdW  Elec       q    Type
REMARK                         _______ _______ _______ _____ _____    ______ ____
ROOT
ATOM      1  C   UNL     1      48.154   6.966  13.184  0.00  0.00    +0.000 C 
ENDROOT
BRANCH   1   2
ATOM      2  C   UNL     1      47.129   5.856  13.043  0.00  0.00    +0.000 A 
ATOM      3  N   UNL     1      47.441   4.649  13.557  0.00  0.00    +0.000 NA
ATOM      4  C   UNL     1      46.585   3.649  13.285  0.00  0.00    +0.000 A 
ATOM      5  C   UNL     1      45.447   3.802  12.528  0.00  0.00    +0.000 A 
ATOM      6  C   UNL     1      45.211   5.068  12.038  0.00  0.00    +0.000 A 
ATOM      7  N   UNL     1      46.042   6.108  12.290  0.00  0.00    +0.000 NA
BRANCH   6   8
ATOM      8  C   UNL     1      44.038   5.340  11.118  0.00  0.00    +0.000 C 
BRANCH   8   9
ATOM      9  N   UNL     1      44.003   4.456   9.937  0.00  0.00    +0.000 NA
ATOM     10  H   UNL     1      43.120   4.664   9.459  0.00  0.00    +0.000 HD
BRANCH   9  11
ATOM     11  C   UNL     1      45.107   4.743   9.014  0.00  0.00    +0.000 C 
BRANCH  11  12
ATOM     12  C   UNL     1      45.363   3.595   8.030  0.00  0.00    +0.000 C 
ATOM     13  C   UNL     1      45.728   2.274   8.695  0.00  0.00    +0.000 C 
ATOM     14  C   UNL     1      46.617   1.632   7.660  0.00  0.00    +0.000 C 
ATOM     15  C   UNL     1      47.363   2.825   7.103  0.00  0.00    +0.000 C 
ATOM     16  O   UNL     1      46.474   3.939   7.169  0.00  0.00    +0.000 OA
ENDBRANCH  11  12
ENDBRANCH   9  11
ENDBRANCH   8   9
ENDBRANCH   6   8
ENDBRANCH   1   2
BRANCH   1  17
ATOM     17  N   UNL     1      49.312   6.666  14.052  0.00  0.00    +0.000 NA
ATOM     18  H   UNL     1      50.132   7.168  13.691  0.00  0.00    +0.000 HD
BRANCH  17  20
ATOM     19  C   UNL     1      49.098   8.605  15.674  0.00  0.00    +0.000 C 
ATOM     20  C   UNL     1      49.037   7.083  15.423  0.00  0.00    +0.000 C 
BRANCH  20  21
ATOM     21  C   UNL     1      49.968   6.368  16.379  0.00  0.00    +0.000 A 
ATOM     22  C   UNL     1      51.227   6.836  16.720  0.00  0.00    +0.000 A 
ATOM     23  S   UNL     1      52.211   5.626  17.425  0.00  0.00    +0.000 S 
ATOM     24  C   UNL     1      50.941   4.491  17.383  0.00  0.00    +0.000 A 
ATOM     25  N   UNL     1      51.132   3.187  17.721  0.00  0.00    +0.000 NA
ATOM     26  C   UNL     1      50.054   2.473  17.695  0.00  0.00    +0.000 A 
ATOM     27  N   UNL     1      48.800   2.951  17.408  0.00  0.00    +0.000 N 
ATOM     28  C   UNL     1      48.559   4.260  17.056  0.00  0.00    +0.000 A 
ATOM     29  O   UNL     1      47.422   4.674  16.850  0.00  0.00    +0.000 OA
ATOM     30  C   UNL     1      49.758   5.071  16.970  0.00  0.00    +0.000 A 
ATOM     31  H   UNL     1      47.989   2.355  17.477  0.00  0.00    +0.000 HD
ENDBRANCH  20  21
ENDBRANCH  17  20
ENDBRANCH   1  17
TORSDOF 8
ENDMDL
MODEL 5
REMARK VINA RESULT:    -6.867      1.893      2.833
REMARK INTER + INTRA:         -11.070
REMARK INTER:                 -10.294
REMARK INTRA:                  -0.776
REMARK UNBOUND:                -0.992
REMARK  Name = 
REMARK  9 active torsions:
REMARK  status: ('A' for Active; 'I' for Inactive)
REMARK    1  A    between atoms: C_1  and  C_2
REMARK    2  A    between atoms: C_2  and  N_3
REMARK    3  A    between atoms: C_2  and  C_19
REMARK    4  A    between atoms: N_3  and  C_4
REMARK    5  A    between atoms: C_4  and  C_5
REMARK    6  A    between atoms: C_9  and  C_10
REMARK    7  A    between atoms: C_10  and  N_11
REMARK    8  A    between atoms: N_11  and  C_12
REMARK    9  A    between atoms: C_12  and  C_13
REMARK                            x       y       z     vdW  Elec       q    Type
REMARK                         _______ _______ _______ _____ _____    ______ ____
ROOT
ATOM      1  C   UNL     1      46.291   7.165  12.133  0.00  0.00    +0.000 C 
ENDROOT
BRANCH   1   2
ATOM      2  C   UNL     1      45.136   6.339  11.599  0.00  0.00    +0.000 A 
ATOM      3  N   UNL     1      43.895   6.857  11.703  0.00  0.00    +0.000 NA
ATOM      4  C   UNL     1      42.882   6.043  11.364  0.00  0.00    +0.000 A 
ATOM      5  C   UNL     1      43.052   4.748  10.933  0.00  0.00    +0.000 A 
ATOM      6  C   UNL     1      44.353   4.300  10.864  0.00  0.00    +0.000 A 
ATOM      7  N   UNL     1      45.408   5.085  11.190  0.00  0.00    +0.000 NA
BRANCH   6   8
ATOM      8  C   UNL     1      44.663   2.864  10.489  0.00  0.00    +0.000 C 
BRANCH   8   9
ATOM      9  N   UNL     1      44.276   2.524   9.107  0.00  0.00    +0.000 NA
ATOM     10  H   UNL     1      43.258   2.638   9.066  0.00  0.00    +0.000 HD
BRANCH   9  11
ATOM     11  C   UNL     1      44.882   3.442   8.135  0.00  0.00    +0.000 C 
BRANCH  11  12
ATOM     12  C   UNL     1      46.326   3.060   7.788  0.00  0.00    +0.000 C 
ATOM     13  C   UNL     1      46.682   3.242   6.318  0.00  0.00    +0.000 C 
ATOM     14  C   UNL     1      47.721   2.169   6.108  0.00  0.00    +0.000 C 
ATOM     15  C   UNL     1      47.199   1.050   6.982  0.00  0.00    +0.000 C 
ATOM     16  O   UNL     1      46.539   1.661   8.090  0.00  0.00    +0.000 OA
ENDBRANCH  11  12
ENDBRANCH   9  11
ENDBRANCH   8   9
ENDBRANCH   6   8
ENDBRANCH   1   2
BRANCH   1  17
ATOM     17  N   UNL     1      46.482   7.132  13.599  0.00  0.00    +0.000 NA
ATOM     18  H   UNL     1      45.940   6.350  13.983  0.00  0.00    +0.000 HD
BRANCH  17  20
ATOM     19  C   UNL     1      48.811   6.644  12.720  0.00  0.00    +0.000 C 
ATOM     20  C   UNL     1      47.895   6.966  13.921  0.00  0.00    +0.000 C 
BRANCH  20  21
ATOM     21  C   UNL     1      48.062   5.909  14.992  0.00  0.00    +0.000 A 
ATOM     22  C   UNL     1      47.344   4.723  15.020  0.00  0.00    +0.000 A 
ATOM     23  S   UNL     1      47.395   3.961  16.552  0.00  0.00    +0.000 S 
ATOM     24  C   UNL     1      48.459   5.140  17.166  0.00  0.00    +0.000 A 
ATOM     25  N   UNL     1      48.816   5.170  18.478  0.00  0.00    +0.000 NA
ATOM     26  C   UNL     1      49.678   6.089  18.768  0.00  0.00    +0.000 A 
ATOM     27  N   UNL     1      50.248   6.949  17.862  0.00  0.00    +0.000 N 
ATOM     28  C   UNL     1      49.914   6.959  16.526  0.00  0.00    +0.000 A 
ATOM     29  O   UNL     1      50.471   7.706  15.727  0.00  0.00    +0.000 OA
ATOM     30  C   UNL     1      48.871   6.013  16.179  0.00  0.00    +0.000 A 
ATOM     31  H   UNL     1      50.970   7.595  18.142  0.00  0.00    +0.000 HD
ENDBRANCH  20  21
ENDBRANCH  17  20
ENDBRANCH   1  17
TORSDOF 8
ENDMDL
MODEL 6
REMARK VINA RESULT:    -6.769      2.791      8.543
REMARK INTER + INTRA:         -10.926
REMARK INTER:                  -9.947
REMARK INTRA:                  -0.980
REMARK UNBOUND:                -0.992
REMARK  Name = 
REMARK  9 active torsions:
REMARK  status: ('A' for Active; 'I' for Inactive)
REMARK    1  A    between atoms: C_1  and  C_2
REMARK    2  A    between atoms: C_2  and  N_3
REMARK    3  A    between atoms: C_2  and  C_19
REMARK    4  A    between atoms: N_3  and  C_4
REMARK    5  A    between atoms: C_4  and  C_5
REMARK    6  A    between atoms: C_9  and  C_10
REMARK    7  A    between atoms: C_10  and  N_11
REMARK    8  A    between atoms: N_11  and  C_12
REMARK    9  A    between atoms: C_12  and  C_13
REMARK                            x       y       z     vdW  Elec       q    Type
REMARK                         _______ _______ _______ _____ _____    ______ ____
ROOT
ATOM      1  C   UNL     1      47.935   6.734  12.498  0.00  0.00    +0.000 C 
ENDROOT
BRANCH   1   2
ATOM      2  C   UNL     1      48.381   7.340  13.815  0.00  0.00    +0.000 A 
ATOM      3  N   UNL     1      47.892   8.553  14.144  0.00  0.00    +0.000 NA
ATOM      4  C   UNL     1      48.420   9.130  15.236  0.00  0.00    +0.000 A 
ATOM      5  C   UNL     1      49.406   8.555  16.003  0.00  0.00    +0.000 A 
ATOM      6  C   UNL     1      49.851   7.319  15.590  0.00  0.00    +0.000 A 
ATOM      7  N   UNL     1      49.345   6.695  14.499  0.00  0.00    +0.000 NA
BRANCH   6   8
ATOM      8  C   UNL     1      50.996   6.626  16.302  0.00  0.00    +0.000 C 
BRANCH   8   9
ATOM      9  N   UNL     1      50.617   5.328  16.893  0.00  0.00    +0.000 NA
ATOM     10  H   UNL     1      51.497   4.828  17.055  0.00  0.00    +0.000 HD
BRANCH   9  11
ATOM     11  C   UNL     1      49.939   5.500  18.183  0.00  0.00    +0.000 C 
BRANCH  11  12
ATOM     12  C   UNL     1      48.585   4.782  18.234  0.00  0.00    +0.000 C 
ATOM     13  C   UNL     1      48.686   3.262  18.262  0.00  0.00    +0.000 C 
ATOM     14  C   UNL     1      47.414   2.847  17.565  0.00  0.00    +0.000 C 
ATOM     15  C   UNL     1      47.271   3.920  16.507  0.00  0.00    +0.000 C 
ATOM     16  O   UNL     1      47.816   5.119  17.056  0.00  0.00    +0.000 OA
ENDBRANCH  11  12
ENDBRANCH   9  11
ENDBRANCH   8   9
ENDBRANCH   6   8
ENDBRANCH   1   2
BRANCH   1  17
ATOM     17  N   UNL     1      46.717   5.897  12.555  0.00  0.00    +0.000 NA
ATOM     18  H   UNL     1      46.250   6.058  13.455  0.00  0.00    +0.000 HD
BRANCH  17  20
ATOM     19  C   UNL     1      44.982   7.521  11.667  0.00  0.00    +0.000 C 
ATOM     20  C   UNL     1      45.818   6.239  11.458  0.00  0.00    +0.000 C 
BRANCH  20  21
ATOM     21  C   UNL     1      44.900   5.073  11.157  0.00  0.00    +0.000 A 
ATOM     22  C   UNL     1      43.918   4.623  12.025  0.00  0.00    +0.000 A 
ATOM     23  S   UNL     1      43.372   3.047  11.641  0.00  0.00    +0.000 S 
ATOM     24  C   UNL     1      44.357   2.983  10.253  0.00  0.00    +0.000 A 
ATOM     25  N   UNL     1      44.480   1.850   9.512  0.00  0.00    +0.000 NA
ATOM     26  C   UNL     1      45.216   1.987   8.458  0.00  0.00    +0.000 A 
ATOM     27  N   UNL     1      45.801   3.161   8.053  0.00  0.00    +0.000 N 
ATOM     28  C   UNL     1      45.709   4.332   8.773  0.00  0.00    +0.000 A 
ATOM     29  O   UNL     1      46.201   5.380   8.366  0.00  0.00    +0.000 OA
ATOM     30  C   UNL     1      44.979   4.194  10.018  0.00  0.00    +0.000 A 
ATOM     31  H   UNL     1      46.303   3.218   7.180  0.00  0.00    +0.000 HD
ENDBRANCH  20  21
ENDBRANCH  17  20
ENDBRANCH   1  17
TORSDOF 8
ENDMDL
MODEL 7
REMARK VINA RESULT:    -6.571      2.314      3.689
REMARK INTER + INTRA:         -10.636
REMARK INTER:                  -9.587
REMARK INTRA:                  -1.049
REMARK UNBOUND:                -0.992
REMARK  Name = 
REMARK  9 active torsions:
REMARK  status: ('A' for Active; 'I' for Inactive)
REMARK    1  A    between atoms: C_1  and  C_2
REMARK    2  A    between atoms: C_2  and  N_3
REMARK    3  A    between atoms: C_2  and  C_19
REMARK    4  A    between atoms: N_3  and  C_4
REMARK    5  A    between atoms: C_4  and  C_5
REMARK    6  A    between atoms: C_9  and  C_10
REMARK    7  A    between atoms: C_10  and  N_11
REMARK    8  A    between atoms: N_11  and  C_12
REMARK    9  A    between atoms: C_12  and  C_13
REMARK                            x       y       z     vdW  Elec       q    Type
REMARK                         _______ _______ _______ _____ _____    ______ ____
ROOT
ATOM      1  C   UNL     1      48.599   7.271  14.303  0.00  0.00    +0.000 C 
ENDROOT
BRANCH   1   2
ATOM      2  C   UNL     1      47.315   7.059  13.524  0.00  0.00    +0.000 A 
ATOM      3  N   UNL     1      46.607   8.153  13.175  0.00  0.00    +0.000 NA
ATOM      4  C   UNL     1      45.402   7.929  12.623  0.00  0.00    +0.000 A 
ATOM      5  C   UNL     1      44.881   6.675  12.408  0.00  0.00    +0.000 A 
ATOM      6  C   UNL     1      45.670   5.616  12.801  0.00  0.00    +0.000 A 
ATOM      7  N   UNL     1      46.893   5.791  13.357  0.00  0.00    +0.000 NA
BRANCH   6   8
ATOM      8  C   UNL     1      45.166   4.190  12.698  0.00  0.00    +0.000 C 
BRANCH   8   9
ATOM      9  N   UNL     1      43.769   4.095  12.232  0.00  0.00    +0.000 NA
ATOM     10  H   UNL     1      43.473   5.058  12.043  0.00  0.00    +0.000 HD
BRANCH   9  11
ATOM     11  C   UNL     1      43.667   3.327  10.986  0.00  0.00    +0.000 C 
BRANCH  11  12
ATOM     12  C   UNL     1      44.907   3.482  10.097  0.00  0.00    +0.000 C 
ATOM     13  C   UNL     1      44.662   4.273   8.818  0.00  0.00    +0.000 C 
ATOM     14  C   UNL     1      45.658   3.657   7.868  0.00  0.00    +0.000 C 
ATOM     15  C   UNL     1      45.629   2.202   8.283  0.00  0.00    +0.000 C 
ATOM     16  O   UNL     1      45.371   2.175   9.686  0.00  0.00    +0.000 OA
ENDBRANCH  11  12
ENDBRANCH   9  11
ENDBRANCH   8   9
ENDBRANCH   6   8
ENDBRANCH   1   2
BRANCH   1  17
ATOM     17  N   UNL     1      49.062   6.120  15.106  0.00  0.00    +0.000 NA
ATOM     18  H   UNL     1      50.084   6.065  15.043  0.00  0.00    +0.000 HD
BRANCH  17  20
ATOM     19  C   UNL     1      48.679   7.728  17.030  0.00  0.00    +0.000 C 
ATOM     20  C   UNL     1      48.656   6.279  16.499  0.00  0.00    +0.000 C 
BRANCH  20  21
ATOM     21  C   UNL     1      49.501   5.392  17.389  0.00  0.00    +0.000 A 
ATOM     22  C   UNL     1      50.335   5.875  18.386  0.00  0.00    +0.000 A 
ATOM     23  S   UNL     1      51.487   4.718  18.897  0.00  0.00    +0.000 S 
ATOM     24  C   UNL     1      50.826   3.525  17.877  0.00  0.00    +0.000 A 
ATOM     25  N   UNL     1      51.415   2.310  17.717  0.00  0.00    +0.000 NA
ATOM     26  C   UNL     1      50.753   1.499  16.958  0.00  0.00    +0.000 A 
ATOM     27  N   UNL     1      49.538   1.775  16.381  0.00  0.00    +0.000 N 
ATOM     28  C   UNL     1      48.906   2.992  16.510  0.00  0.00    +0.000 A 
ATOM     29  O   UNL     1      47.798   3.199  16.024  0.00  0.00    +0.000 OA
ATOM     30  C   UNL     1      49.667   3.966  17.269  0.00  0.00    +0.000 A 
ATOM     31  H   UNL     1      49.039   1.072  15.859  0.00  0.00    +0.000 HD
ENDBRANCH  20  21
ENDBRANCH  17  20
ENDBRANCH   1  17
TORSDOF 8
ENDMDL
MODEL 8
REMARK VINA RESULT:    -6.564      3.364      8.399
REMARK INTER + INTRA:         -10.626
REMARK INTER:                  -9.501
REMARK INTRA:                  -1.124
REMARK UNBOUND:                -0.992
REMARK  Name = 
REMARK  9 active torsions:
REMARK  status: ('A' for Active; 'I' for Inactive)
REMARK    1  A    between atoms: C_1  and  C_2
REMARK    2  A    between atoms: C_2  and  N_3
REMARK    3  A    between atoms: C_2  and  C_19
REMARK    4  A    between atoms: N_3  and  C_4
REMARK    5  A    between atoms: C_4  and  C_5
REMARK    6  A    between atoms: C_9  and  C_10
REMARK    7  A    between atoms: C_10  and  N_11
REMARK    8  A    between atoms: N_11  and  C_12
REMARK    9  A    between atoms: C_12  and  C_13
REMARK                            x       y       z     vdW  Elec       q    Type
REMARK                         _______ _______ _______ _____ _____    ______ ____
ROOT
ATOM      1  C   UNL     1      48.676   6.907  12.954  0.00  0.00    +0.000 C 
ENDROOT
BRANCH   1   2
ATOM      2  C   UNL     1      48.938   7.506  14.323  0.00  0.00    +0.000 A 
ATOM      3  N   UNL     1      48.586   8.792  14.522  0.00  0.00    +0.000 NA
ATOM      4  C   UNL     1      48.968   9.339  15.688  0.00  0.00    +0.000 A 
ATOM      5  C   UNL     1      49.679   8.665  16.652  0.00  0.00    +0.000 A 
ATOM      6  C   UNL     1      50.002   7.357  16.362  0.00  0.00    +0.000 A 
ATOM      7  N   UNL     1      49.635   6.761  15.203  0.00  0.00    +0.000 NA
BRANCH   6   8
ATOM      8  C   UNL     1      50.861   6.540  17.307  0.00  0.00    +0.000 C 
BRANCH   8   9
ATOM      9  N   UNL     1      50.856   5.096  17.001  0.00  0.00    +0.000 NA
ATOM     10  H   UNL     1      51.768   4.899  16.577  0.00  0.00    +0.000 HD
BRANCH   9  11
ATOM     11  C   UNL     1      50.727   4.287  18.218  0.00  0.00    +0.000 C 
BRANCH  11  12
ATOM     12  C   UNL     1      49.314   3.719  18.398  0.00  0.00    +0.000 C 
ATOM     13  C   UNL     1      48.819   2.891  17.219  0.00  0.00    +0.000 C 
ATOM     14  C   UNL     1      47.330   3.122  17.272  0.00  0.00    +0.000 C 
ATOM     15  C   UNL     1      47.250   4.568  17.709  0.00  0.00    +0.000 C 
ATOM     16  O   UNL     1      48.374   4.808  18.556  0.00  0.00    +0.000 OA
ENDBRANCH  11  12
ENDBRANCH   9  11
ENDBRANCH   8   9
ENDBRANCH   6   8
ENDBRANCH   1   2
BRANCH   1  17
ATOM     17  N   UNL     1      47.505   6.011  12.857  0.00  0.00    +0.000 NA
ATOM     18  H   UNL     1      47.108   5.887  13.795  0.00  0.00    +0.000 HD
BRANCH  17  20
ATOM     19  C   UNL     1      45.351   7.337  12.662  0.00  0.00    +0.000 C 
ATOM     20  C   UNL     1      46.503   6.583  11.964  0.00  0.00    +0.000 C 
BRANCH  20  21
ATOM     21  C   UNL     1      45.939   5.506  11.061  0.00  0.00    +0.000 A 
ATOM     22  C   UNL     1      45.946   5.583   9.676  0.00  0.00    +0.000 A 
ATOM     23  S   UNL     1      44.852   4.484   8.952  0.00  0.00    +0.000 S 
ATOM     24  C   UNL     1      44.433   3.817  10.462  0.00  0.00    +0.000 A 
ATOM     25  N   UNL     1      43.437   2.901  10.591  0.00  0.00    +0.000 NA
ATOM     26  C   UNL     1      43.288   2.450  11.794  0.00  0.00    +0.000 A 
ATOM     27  N   UNL     1      44.070   2.797  12.867  0.00  0.00    +0.000 N 
ATOM     28  C   UNL     1      45.086   3.723  12.786  0.00  0.00    +0.000 A 
ATOM     29  O   UNL     1      45.802   3.982  13.749  0.00  0.00    +0.000 OA
ATOM     30  C   UNL     1      45.217   4.331  11.477  0.00  0.00    +0.000 A 
ATOM     31  H   UNL     1      43.947   2.353  13.764  0.00  0.00    +0.000 HD
ENDBRANCH  20  21
ENDBRANCH  17  20
ENDBRANCH   1  17
TORSDOF 8
ENDMDL
MODEL 9
REMARK VINA RESULT:    -6.490      3.174      8.571
REMARK INTER + INTRA:         -10.517
REMARK INTER:                  -9.813
REMARK INTRA:                  -0.704
REMARK UNBOUND:                -0.992
REMARK  Name = 
REMARK  9 active torsions:
REMARK  status: ('A' for Active; 'I' for Inactive)
REMARK    1  A    between atoms: C_1  and  C_2
REMARK    2  A    between atoms: C_2  and  N_3
REMARK    3  A    between atoms: C_2  and  C_19
REMARK    4  A    between atoms: N_3  and  C_4
REMARK    5  A    between atoms: C_4  and  C_5
REMARK    6  A    between atoms: C_9  and  C_10
REMARK    7  A    between atoms: C_10  and  N_11
REMARK    8  A    between atoms: N_11  and  C_12
REMARK    9  A    between atoms: C_12  and  C_13
REMARK                            x       y       z     vdW  Elec       q    Type
REMARK                         _______ _______ _______ _____ _____    ______ ____
ROOT
ATOM      1  C   UNL     1      48.368   6.899  12.839  0.00  0.00    +0.000 C 
ENDROOT
BRANCH   1   2
ATOM      2  C   UNL     1      48.930   7.064  14.238  0.00  0.00    +0.000 A 
ATOM      3  N   UNL     1      49.815   8.061  14.443  0.00  0.00    +0.000 NA
ATOM      4  C   UNL     1      50.410   8.088  15.648  0.00  0.00    +0.000 A 
ATOM      5  C   UNL     1      50.162   7.173  16.644  0.00  0.00    +0.000 A 
ATOM      6  C   UNL     1      49.249   6.185  16.345  0.00  0.00    +0.000 A 
ATOM      7  N   UNL     1      48.619   6.120  15.146  0.00  0.00    +0.000 NA
BRANCH   6   8
ATOM      8  C   UNL     1      48.960   5.069  17.328  0.00  0.00    +0.000 C 
BRANCH   8   9
ATOM      9  N   UNL     1      49.143   3.722  16.754  0.00  0.00    +0.000 NA
ATOM     10  H   UNL     1      49.766   3.844  15.949  0.00  0.00    +0.000 HD
BRANCH   9  11
ATOM     11  C   UNL     1      49.791   2.813  17.706  0.00  0.00    +0.000 C 
BRANCH  11  12
ATOM     12  C   UNL     1      51.244   2.503  17.326  0.00  0.00    +0.000 C 
ATOM     13  C   UNL     1      51.655   1.055  17.563  0.00  0.00    +0.000 C 
ATOM     14  C   UNL     1      53.127   1.189  17.863  0.00  0.00    +0.000 C 
ATOM     15  C   UNL     1      53.174   2.486  18.640  0.00  0.00    +0.000 C 
ATOM     16  O   UNL     1      52.134   3.317  18.124  0.00  0.00    +0.000 OA
ENDBRANCH  11  12
ENDBRANCH   9  11
ENDBRANCH   8   9
ENDBRANCH   6   8
ENDBRANCH   1   2
BRANCH   1  17
ATOM     17  N   UNL     1      47.280   5.909  12.695  0.00  0.00    +0.000 NA
ATOM     18  H   UNL     1      46.867   5.739  13.619  0.00  0.00    +0.000 HD
BRANCH  17  20
ATOM     19  C   UNL     1      45.689   7.801  12.123  0.00  0.00    +0.000 C 
ATOM     20  C   UNL     1      46.261   6.409  11.778  0.00  0.00    +0.000 C 
BRANCH  20  21
ATOM     21  C   UNL     1      45.132   5.406  11.661  0.00  0.00    +0.000 A 
ATOM     22  C   UNL     1      44.224   5.149  12.677  0.00  0.00    +0.000 A 
ATOM     23  S   UNL     1      43.379   3.679  12.447  0.00  0.00    +0.000 S 
ATOM     24  C   UNL     1      44.131   3.417  10.941  0.00  0.00    +0.000 A 
ATOM     25  N   UNL     1      43.961   2.261  10.245  0.00  0.00    +0.000 NA
ATOM     26  C   UNL     1      44.550   2.247   9.094  0.00  0.00    +0.000 A 
ATOM     27  N   UNL     1      45.255   3.296   8.558  0.00  0.00    +0.000 N 
ATOM     28  C   UNL     1      45.458   4.482   9.227  0.00  0.00    +0.000 A 
ATOM     29  O   UNL     1      46.052   5.423   8.707  0.00  0.00    +0.000 OA
ATOM     30  C   UNL     1      44.902   4.499  10.566  0.00  0.00    +0.000 A 
ATOM     31  H   UNL     1      45.629   3.247   7.622  0.00  0.00    +0.000 HD
ENDBRANCH  20  21
ENDBRANCH  17  20
ENDBRANCH   1  17
TORSDOF 8
ENDMDL
