MODEL 1
REMARK VINA RESULT:    -8.715      0.000      0.000
REMARK INTER + INTRA:         -13.179
REMARK INTER:                 -12.281
REMARK INTRA:                  -0.899
REMARK UNBOUND:                -0.899
REMARK  Name = 
REMARK  8 active torsions:
REMARK  status: ('A' for Active; 'I' for Inactive)
REMARK    1  A    between atoms: C_1  and  C_2
REMARK    2  A    between atoms: C_2  and  N_3
REMARK    3  A    between atoms: C_2  and  C_25
REMARK    4  A    between atoms: N_3  and  C_4
REMARK    5  A    between atoms: C_4  and  C_5
REMARK    6  A    between atoms: C_9  and  C_10
REMARK    7  A    between atoms: C_10  and  N_11
REMARK    8  A    between atoms: C_12  and  C_14
REMARK                            x       y       z     vdW  Elec       q    Type
REMARK                         _______ _______ _______ _____ _____    ______ ____
ROOT
ATOM      1  C   UNL     1      44.972   5.331  11.189  0.00  0.00    +0.000 A 
ATOM      2  C   UNL     1      45.951   6.290  10.926  0.00  0.00    +0.000 A 
ATOM      3  C   UNL     1      46.906   6.549  11.897  0.00  0.00    +0.000 A 
ATOM      4  N   UNL     1      46.959   5.919  13.091  0.00  0.00    +0.000 NA
ATOM      5  C   UNL     1      46.013   4.978  13.339  0.00  0.00    +0.000 A 
ATOM      6  C   UNL     1      45.011   4.669  12.422  0.00  0.00    +0.000 A 
ENDROOT
BRANCH   1   7
ATOM      7  C   UNL     1      43.805   5.108  10.259  0.00  0.00    +0.000 C 
BRANCH   7   8
ATOM      8  N   UNL     1      44.154   4.379   9.036  0.00  0.00    +0.000 NA
ATOM      9  H   UNL     1      44.740   4.992   8.466  0.00  0.00    +0.000 HD
BRANCH   8  11
ATOM     10  C   UNL     1      44.117   2.005   9.873  0.00  0.00    +0.000 C 
ATOM     11  C   UNL     1      44.965   3.170   9.350  0.00  0.00    +0.000 C 
BRANCH  11  12
ATOM     12  C   UNL     1      45.817   2.689   8.173  0.00  0.00    +0.000 A 
ATOM     13  C   UNL     1      46.102   3.509   7.080  0.00  0.00    +0.000 A 
ATOM     14  C   UNL     1      46.953   3.037   6.082  0.00  0.00    +0.000 A 
ATOM     15  C   UNL     1      47.470   1.752   6.177  0.00  0.00    +0.000 A 
ATOM     16  C   UNL     1      47.101   0.981   7.264  0.00  0.00    +0.000 A 
ATOM     17  N   UNL     1      46.297   1.420   8.258  0.00  0.00    +0.000 NA
ENDBRANCH  11  12
ENDBRANCH   8  11
ENDBRANCH   7   8
ENDBRANCH   1   7
BRANCH   5  18
ATOM     18  C   UNL     1      46.041   4.295  14.685  0.00  0.00    +0.000 C 
BRANCH  18  19
ATOM     19  N   UNL     1      47.248   4.585  15.429  0.00  0.00    +0.000 N 
ATOM     20  C   UNL     1      47.473   4.100  16.690  0.00  0.00    +0.000 C 
ATOM     21  O   UNL     1      46.645   3.404  17.273  0.00  0.00    +0.000 OA
ATOM     22  H   UNL     1      47.828   5.333  15.058  0.00  0.00    +0.000 HD
BRANCH  20  23
ATOM     23  C   UNL     1      48.784   4.390  17.288  0.00  0.00    +0.000 A 
ATOM     24  C   UNL     1      49.025   5.649  17.824  0.00  0.00    +0.000 A 
ATOM     25  S   UNL     1      50.574   5.819  18.514  0.00  0.00    +0.000 S 
ATOM     26  C   UNL     1      50.997   4.228  18.088  0.00  0.00    +0.000 A 
ATOM     27  N   UNL     1      52.232   3.734  18.377  0.00  0.00    +0.000 NA
ATOM     28  C   UNL     1      52.430   2.523  17.972  0.00  0.00    +0.000 A 
ATOM     29  N   UNL     1      51.502   1.761  17.313  0.00  0.00    +0.000 N 
ATOM     30  C   UNL     1      50.226   2.198  17.049  0.00  0.00    +0.000 A 
ATOM     31  O   UNL     1      49.393   1.459  16.540  0.00  0.00    +0.000 OA
ATOM     32  C   UNL     1      49.961   3.568  17.451  0.00  0.00    +0.000 A 
ATOM     33  H   UNL     1      51.711   0.812  17.039  0.00  0.00    +0.000 HD
ENDBRANCH  20  23
ENDBRANCH  18  19
ENDBRANCH   5  18
TORSDOF 7
ENDMDL
MODEL 2
REMARK VINA RESULT:    -8.501      1.601      1.949
REMARK INTER + INTRA:         -12.879
REMARK INTER:                 -11.797
REMARK INTRA:                  -1.082
REMARK UNBOUND:                -0.899
REMARK  Name = 
REMARK  8 active torsions:
REMARK  status: ('A' for Active; 'I' for Inactive)
REMARK    1  A    between atoms: C_1  and  C_2
REMARK    2  A    between atoms: C_2  and  N_3
REMARK    3  A    between atoms: C_2  and  C_25
REMARK    4  A    between atoms: N_3  and  C_4
REMARK    5  A    between atoms: C_4  and  C_5
REMARK    6  A    between atoms: C_9  and  C_10
REMARK    7  A    between atoms: C_10  and  N_11
REMARK    8  A    between atoms: C_12  and  C_14
REMARK                            x       y       z     vdW  Elec       q    Type
REMARK                         _______ _______ _______ _____ _____    ______ ____
ROOT
ATOM      1  C   UNL     1      45.184   5.174  11.441  0.00  0.00    +0.000 A 
ATOM      2  C   UNL     1      45.869   6.377  11.264  0.00  0.00    +0.000 A 
ATOM      3  C   UNL     1      46.872   6.709  12.162  0.00  0.00    +0.000 A 
ATOM      4  N   UNL     1      47.242   5.930  13.202  0.00  0.00    +0.000 NA
ATOM      5  C   UNL     1      46.583   4.754  13.363  0.00  0.00    +0.000 A 
ATOM      6  C   UNL     1      45.553   4.355  12.514  0.00  0.00    +0.000 A 
ENDROOT
BRANCH   1   7
ATOM      7  C   UNL     1      43.974   4.817  10.612  0.00  0.00    +0.000 C 
BRANCH   7   8
ATOM      8  N   UNL     1      44.301   4.311   9.275  0.00  0.00    +0.000 NA
ATOM      9  H   UNL     1      44.931   4.984   8.835  0.00  0.00    +0.000 HD
BRANCH   8  11
ATOM     10  C   UNL     1      44.110   1.826   9.632  0.00  0.00    +0.000 C 
ATOM     11  C   UNL     1      45.035   3.018   9.360  0.00  0.00    +0.000 C 
BRANCH  11  12
ATOM     12  C   UNL     1      45.891   2.725   8.126  0.00  0.00    +0.000 A 
ATOM     13  C   UNL     1      46.080   3.668   7.114  0.00  0.00    +0.000 A 
ATOM     14  C   UNL     1      46.940   3.366   6.059  0.00  0.00    +0.000 A 
ATOM     15  C   UNL     1      47.560   2.126   6.017  0.00  0.00    +0.000 A 
ATOM     16  C   UNL     1      47.284   1.225   7.029  0.00  0.00    +0.000 A 
ATOM     17  N   UNL     1      46.474   1.498   8.076  0.00  0.00    +0.000 NA
ENDBRANCH  11  12
ENDBRANCH   8  11
ENDBRANCH   7   8
ENDBRANCH   1   7
BRANCH   5  18
ATOM     18  C   UNL     1      46.964   3.895  14.544  0.00  0.00    +0.000 C 
BRANCH  18  19
ATOM     19  N   UNL     1      47.345   4.678  15.701  0.00  0.00    +0.000 N 
ATOM     20  C   UNL     1      47.119   4.259  16.984  0.00  0.00    +0.000 C 
ATOM     21  O   UNL     1      46.553   3.195  17.227  0.00  0.00    +0.000 OA
ATOM     22  H   UNL     1      47.599   5.645  15.516  0.00  0.00    +0.000 HD
BRANCH  20  23
ATOM     23  C   UNL     1      47.647   5.106  18.062  0.00  0.00    +0.000 A 
ATOM     24  C   UNL     1      46.768   5.672  18.977  0.00  0.00    +0.000 A 
ATOM     25  S   UNL     1      47.534   6.595  20.188  0.00  0.00    +0.000 S 
ATOM     26  C   UNL     1      49.068   6.307  19.513  0.00  0.00    +0.000 A 
ATOM     27  N   UNL     1      50.187   6.846  20.069  0.00  0.00    +0.000 NA
ATOM     28  C   UNL     1      51.281   6.571  19.439  0.00  0.00    +0.000 A 
ATOM     29  N   UNL     1      51.357   5.799  18.311  0.00  0.00    +0.000 N 
ATOM     30  C   UNL     1      50.261   5.189  17.746  0.00  0.00    +0.000 A 
ATOM     31  O   UNL     1      50.376   4.432  16.791  0.00  0.00    +0.000 OA
ATOM     32  C   UNL     1      48.999   5.496  18.393  0.00  0.00    +0.000 A 
ATOM     33  H   UNL     1      52.245   5.604  17.874  0.00  0.00    +0.000 HD
ENDBRANCH  20  23
ENDBRANCH  18  19
ENDBRANCH   5  18
TORSDOF 7
ENDMDL
MODEL 3
REMARK VINA RESULT:    -7.638      2.089      2.672
REMARK INTER + INTRA:         -11.662
REMARK INTER:                 -11.119
REMARK INTRA:                  -0.543
REMARK UNBOUND:                -0.899
REMARK  Name = 
REMARK  8 active torsions:
REMARK  status: ('A' for Active; 'I' for Inactive)
REMARK    1  A    between atoms: C_1  and  C_2
REMARK    2  A    between atoms: C_2  and  N_3
REMARK    3  A    between atoms: C_2  and  C_25
REMARK    4  A    between atoms: N_3  and  C_4
REMARK    5  A    between atoms: C_4  and  C_5
REMARK    6  A    between atoms: C_9  and  C_10
REMARK    7  A    between atoms: C_10  and  N_11
REMARK    8  A    between atoms: C_12  and  C_14
REMARK                            x       y       z     vdW  Elec       q    Type
REMARK                         _______ _______ _______ _____ _____    ______ ____
ROOT
ATOM      1  C   UNL     1      45.726   5.583  11.096  0.00  0.00    +0.000 A 
ATOM      2  C   UNL     1      44.905   4.800  11.909  0.00  0.00    +0.000 A 
ATOM      3  C   UNL     1      45.146   4.779  13.274  0.00  0.00    +0.000 A 
ATOM      4  N   UNL     1      46.128   5.484  13.878  0.00  0.00    +0.000 NA
ATOM      5  C   UNL     1      46.917   6.254  13.086  0.00  0.00    +0.000 A 
ATOM      6  C   UNL     1      46.750   6.319  11.704  0.00  0.00    +0.000 A 
ENDROOT
BRANCH   1   7
ATOM      7  C   UNL     1      45.637   5.533   9.591  0.00  0.00    +0.000 C 
BRANCH   7   8
ATOM      8  N   UNL     1      44.700   4.525   9.086  0.00  0.00    +0.000 NA
ATOM      9  H   UNL     1      44.547   4.713   8.094  0.00  0.00    +0.000 HD
BRANCH   8  11
ATOM     10  C   UNL     1      44.237   2.086   9.507  0.00  0.00    +0.000 C 
ATOM     11  C   UNL     1      45.284   3.159   9.185  0.00  0.00    +0.000 C 
BRANCH  11  12
ATOM     12  C   UNL     1      46.070   2.744   7.939  0.00  0.00    +0.000 A 
ATOM     13  C   UNL     1      46.219   3.591   6.841  0.00  0.00    +0.000 A 
ATOM     14  C   UNL     1      47.018   3.183   5.773  0.00  0.00    +0.000 A 
ATOM     15  C   UNL     1      47.617   1.931   5.809  0.00  0.00    +0.000 A 
ATOM     16  C   UNL     1      47.381   1.127   6.908  0.00  0.00    +0.000 A 
ATOM     17  N   UNL     1      46.632   1.505   7.968  0.00  0.00    +0.000 NA
ENDBRANCH  11  12
ENDBRANCH   8  11
ENDBRANCH   7   8
ENDBRANCH   1   7
BRANCH   5  18
ATOM     18  C   UNL     1      48.041   7.015  13.747  0.00  0.00    +0.000 C 
BRANCH  18  19
ATOM     19  N   UNL     1      47.930   7.027  15.190  0.00  0.00    +0.000 N 
ATOM     20  C   UNL     1      48.969   6.686  16.014  0.00  0.00    +0.000 C 
ATOM     21  O   UNL     1      50.056   6.326  15.568  0.00  0.00    +0.000 OA
ATOM     22  H   UNL     1      46.986   7.099  15.561  0.00  0.00    +0.000 HD
BRANCH  20  23
ATOM     23  C   UNL     1      48.749   6.840  17.459  0.00  0.00    +0.000 A 
ATOM     24  C   UNL     1      48.582   8.112  17.991  0.00  0.00    +0.000 A 
ATOM     25  S   UNL     1      48.298   8.124  19.672  0.00  0.00    +0.000 S 
ATOM     26  C   UNL     1      48.428   6.430  19.760  0.00  0.00    +0.000 A 
ATOM     27  N   UNL     1      48.306   5.783  20.950  0.00  0.00    +0.000 NA
ATOM     28  C   UNL     1      48.455   4.501  20.879  0.00  0.00    +0.000 A 
ATOM     29  N   UNL     1      48.706   3.811  19.723  0.00  0.00    +0.000 N 
ATOM     30  C   UNL     1      48.782   4.416  18.491  0.00  0.00    +0.000 A 
ATOM     31  O   UNL     1      48.917   3.759  17.466  0.00  0.00    +0.000 OA
ATOM     32  C   UNL     1      48.659   5.862  18.519  0.00  0.00    +0.000 A 
ATOM     33  H   UNL     1      48.793   2.805  19.728  0.00  0.00    +0.000 HD
ENDBRANCH  20  23
ENDBRANCH  18  19
ENDBRANCH   5  18
TORSDOF 7
ENDMDL
MODEL 4
REMARK VINA RESULT:    -7.503      3.361      8.849
REMARK INTER + INTRA:         -11.473
REMARK INTER:                 -10.518
REMARK INTRA:                  -0.955
REMARK UNBOUND:                -0.899
REMARK  Name = 
REMARK  8 active torsions:
REMARK  status: ('A' for Active; 'I' for Inactive)
REMARK    1  A    between atoms: C_1  and  C_2
REMARK    2  A    between atoms: C_2  and  N_3
REMARK    3  A    between atoms: C_2  and  C_25
REMARK    4  A    between atoms: N_3  and  C_4
REMARK    5  A    between atoms: C_4  and  C_5
REMARK    6  A    between atoms: C_9  and  C_10
REMARK    7  A    between atoms: C_10  and  N_11
REMARK    8  A    between atoms: C_12  and  C_14
REMARK                            x       y       z     vdW  Elec       q    Type
REMARK                         _______ _______ _______ _____ _____    ______ ____
ROOT
ATOM      1  C   UNL     1      49.283   7.126  15.202  0.00  0.00    +0.000 A 
ATOM      2  C   UNL     1      50.519   7.698  14.895  0.00  0.00    +0.000 A 
ATOM      3  C   UNL     1      50.683   8.300  13.657  0.00  0.00    +0.000 A 
ATOM      4  N   UNL     1      49.712   8.381  12.722  0.00  0.00    +0.000 NA
ATOM      5  C   UNL     1      48.508   7.836  13.028  0.00  0.00    +0.000 A 
ATOM      6  C   UNL     1      48.265   7.199  14.244  0.00  0.00    +0.000 A 
ENDROOT
BRANCH   1   7
ATOM      7  C   UNL     1      49.072   6.310  16.454  0.00  0.00    +0.000 C 
BRANCH   7   8
ATOM      8  N   UNL     1      48.513   4.978  16.205  0.00  0.00    +0.000 NA
ATOM      9  H   UNL     1      49.073   4.539  15.472  0.00  0.00    +0.000 HD
BRANCH   8  11
ATOM     10  C   UNL     1      47.522   3.059  17.498  0.00  0.00    +0.000 C 
ATOM     11  C   UNL     1      48.628   4.117  17.414  0.00  0.00    +0.000 C 
BRANCH  11  12
ATOM     12  C   UNL     1      49.992   3.438  17.547  0.00  0.00    +0.000 A 
ATOM     13  C   UNL     1      51.067   4.052  18.191  0.00  0.00    +0.000 A 
ATOM     14  C   UNL     1      52.257   3.344  18.351  0.00  0.00    +0.000 A 
ATOM     15  C   UNL     1      52.360   2.059  17.836  0.00  0.00    +0.000 A 
ATOM     16  C   UNL     1      51.270   1.536  17.166  0.00  0.00    +0.000 A 
ATOM     17  N   UNL     1      50.096   2.190  17.017  0.00  0.00    +0.000 NA
ENDBRANCH  11  12
ENDBRANCH   8  11
ENDBRANCH   7   8
ENDBRANCH   1   7
BRANCH   5  18
ATOM     18  C   UNL     1      47.427   7.887  11.975  0.00  0.00    +0.000 C 
BRANCH  18  19
ATOM     19  N   UNL     1      46.717   6.633  11.847  0.00  0.00    +0.000 N 
ATOM     20  C   UNL     1      45.366   6.568  11.633  0.00  0.00    +0.000 C 
ATOM     21  O   UNL     1      44.673   7.580  11.561  0.00  0.00    +0.000 OA
ATOM     22  H   UNL     1      47.230   5.802  12.129  0.00  0.00    +0.000 HD
BRANCH  20  23
ATOM     23  C   UNL     1      44.791   5.232  11.422  0.00  0.00    +0.000 A 
ATOM     24  C   UNL     1      44.013   4.659  12.420  0.00  0.00    +0.000 A 
ATOM     25  S   UNL     1      43.387   3.127  12.012  0.00  0.00    +0.000 S 
ATOM     26  C   UNL     1      44.165   3.152  10.500  0.00  0.00    +0.000 A 
ATOM     27  N   UNL     1      44.056   2.102   9.642  0.00  0.00    +0.000 NA
ATOM     28  C   UNL     1      44.720   2.240   8.542  0.00  0.00    +0.000 A 
ATOM     29  N   UNL     1      45.475   3.336   8.222  0.00  0.00    +0.000 N 
ATOM     30  C   UNL     1      45.570   4.443   9.032  0.00  0.00    +0.000 A 
ATOM     31  O   UNL     1      46.180   5.443   8.675  0.00  0.00    +0.000 OA
ATOM     32  C   UNL     1      44.872   4.325  10.299  0.00  0.00    +0.000 A 
ATOM     33  H   UNL     1      45.957   3.394   7.337  0.00  0.00    +0.000 HD
ENDBRANCH  20  23
ENDBRANCH  18  19
ENDBRANCH   5  18
TORSDOF 7
ENDMDL
MODEL 5
REMARK VINA RESULT:    -7.287      3.817      9.803
REMARK INTER + INTRA:         -11.168
REMARK INTER:                  -9.868
REMARK INTRA:                  -1.300
REMARK UNBOUND:                -0.899
REMARK  Name = 
REMARK  8 active torsions:
REMARK  status: ('A' for Active; 'I' for Inactive)
REMARK    1  A    between atoms: C_1  and  C_2
REMARK    2  A    between atoms: C_2  and  N_3
REMARK    3  A    between atoms: C_2  and  C_25
REMARK    4  A    between atoms: N_3  and  C_4
REMARK    5  A    between atoms: C_4  and  C_5
REMARK    6  A    between atoms: C_9  and  C_10
REMARK    7  A    between atoms: C_10  and  N_11
REMARK    8  A    between atoms: C_12  and  C_14
REMARK                            x       y       z     vdW  Elec       q    Type
REMARK                         _______ _______ _______ _____ _____    ______ ____
ROOT
ATOM      1  C   UNL     1      50.746   3.757  18.030  0.00  0.00    +0.000 A 
ATOM      2  C   UNL     1      51.313   2.609  17.472  0.00  0.00    +0.000 A 
ATOM      3  C   UNL     1      50.499   1.749  16.751  0.00  0.00    +0.000 A 
ATOM      4  N   UNL     1      49.181   1.957  16.539  0.00  0.00    +0.000 NA
ATOM      5  C   UNL     1      48.636   3.080  17.072  0.00  0.00    +0.000 A 
ATOM      6  C   UNL     1      49.382   3.987  17.823  0.00  0.00    +0.000 A 
ENDROOT
BRANCH   1   7
ATOM      7  C   UNL     1      51.521   4.654  18.964  0.00  0.00    +0.000 C 
BRANCH   7   8
ATOM      8  N   UNL     1      50.936   4.759  20.304  0.00  0.00    +0.000 NA
ATOM      9  H   UNL     1      51.571   4.294  20.956  0.00  0.00    +0.000 HD
BRANCH   8  11
ATOM     10  C   UNL     1      52.149   6.954  20.533  0.00  0.00    +0.000 C 
ATOM     11  C   UNL     1      50.839   6.182  20.732  0.00  0.00    +0.000 C 
BRANCH  11  12
ATOM     12  C   UNL     1      49.695   6.942  20.057  0.00  0.00    +0.000 A 
ATOM     13  C   UNL     1      48.368   6.522  20.155  0.00  0.00    +0.000 A 
ATOM     14  C   UNL     1      47.365   7.307  19.587  0.00  0.00    +0.000 A 
ATOM     15  C   UNL     1      47.709   8.467  18.906  0.00  0.00    +0.000 A 
ATOM     16  C   UNL     1      49.050   8.789  18.807  0.00  0.00    +0.000 A 
ATOM     17  N   UNL     1      50.041   8.062  19.368  0.00  0.00    +0.000 NA
ENDBRANCH  11  12
ENDBRANCH   8  11
ENDBRANCH   7   8
ENDBRANCH   1   7
BRANCH   5  18
ATOM     18  C   UNL     1      47.156   3.301  16.874  0.00  0.00    +0.000 C 
BRANCH  18  19
ATOM     19  N   UNL     1      46.875   4.333  15.898  0.00  0.00    +0.000 N 
ATOM     20  C   UNL     1      46.915   4.105  14.549  0.00  0.00    +0.000 C 
ATOM     21  O   UNL     1      47.219   3.007  14.088  0.00  0.00    +0.000 OA
ATOM     22  H   UNL     1      46.849   5.284  16.255  0.00  0.00    +0.000 HD
BRANCH  20  23
ATOM     23  C   UNL     1      46.510   5.214  13.675  0.00  0.00    +0.000 A 
ATOM     24  C   UNL     1      47.386   6.272  13.467  0.00  0.00    +0.000 A 
ATOM     25  S   UNL     1      46.788   7.461  12.401  0.00  0.00    +0.000 S 
ATOM     26  C   UNL     1      45.319   6.627  12.209  0.00  0.00    +0.000 A 
ATOM     27  N   UNL     1      44.330   7.129  11.420  0.00  0.00    +0.000 NA
ATOM     28  C   UNL     1      43.257   6.410  11.386  0.00  0.00    +0.000 A 
ATOM     29  N   UNL     1      43.089   5.231  12.062  0.00  0.00    +0.000 N 
ATOM     30  C   UNL     1      44.079   4.658  12.825  0.00  0.00    +0.000 A 
ATOM     31  O   UNL     1      43.928   3.558  13.342  0.00  0.00    +0.000 OA
ATOM     32  C   UNL     1      45.295   5.445  12.928  0.00  0.00    +0.000 A 
ATOM     33  H   UNL     1      42.233   4.703  11.980  0.00  0.00    +0.000 HD
ENDBRANCH  20  23
ENDBRANCH  18  19
ENDBRANCH   5  18
TORSDOF 7
ENDMDL
MODEL 6
REMARK VINA RESULT:    -7.274      3.350      4.714
REMARK INTER + INTRA:         -11.149
REMARK INTER:                 -10.148
REMARK INTRA:                  -1.002
REMARK UNBOUND:                -0.899
REMARK  Name = 
REMARK  8 active torsions:
REMARK  status: ('A' for Active; 'I' for Inactive)
REMARK    1  A    between atoms: C_1  and  C_2
REMARK    2  A    between atoms: C_2  and  N_3
REMARK    3  A    between atoms: C_2  and  C_25
REMARK    4  A    between atoms: N_3  and  C_4
REMARK    5  A    between atoms: C_4  and  C_5
REMARK    6  A    between atoms: C_9  and  C_10
REMARK    7  A    between atoms: C_10  and  N_11
REMARK    8  A    between atoms: C_12  and  C_14
REMARK                            x       y       z     vdW  Elec       q    Type
REMARK                         _______ _______ _______ _____ _____    ______ ____
ROOT
ATOM      1  C   UNL     1      44.635   5.065  11.101  0.00  0.00    +0.000 A 
ATOM      2  C   UNL     1      43.463   4.558  11.666  0.00  0.00    +0.000 A 
ATOM      3  C   UNL     1      43.451   4.262  13.020  0.00  0.00    +0.000 A 
ATOM      4  N   UNL     1      44.508   4.444  13.842  0.00  0.00    +0.000 NA
ATOM      5  C   UNL     1      45.642   4.949  13.292  0.00  0.00    +0.000 A 
ATOM      6  C   UNL     1      45.740   5.259  11.937  0.00  0.00    +0.000 A 
ENDROOT
BRANCH   1   7
ATOM      7  C   UNL     1      44.783   5.256   9.612  0.00  0.00    +0.000 C 
BRANCH   7   8
ATOM      8  N   UNL     1      44.254   4.144   8.816  0.00  0.00    +0.000 NA
ATOM      9  H   UNL     1      44.336   4.402   7.831  0.00  0.00    +0.000 HD
BRANCH   8  11
ATOM     10  C   UNL     1      44.215   1.677   9.316  0.00  0.00    +0.000 C 
ATOM     11  C   UNL     1      45.069   2.914   9.013  0.00  0.00    +0.000 C 
BRANCH  11  12
ATOM     12  C   UNL     1      46.003   2.611   7.840  0.00  0.00    +0.000 A 
ATOM     13  C   UNL     1      46.120   3.469   6.745  0.00  0.00    +0.000 A 
ATOM     14  C   UNL     1      47.052   3.175   5.750  0.00  0.00    +0.000 A 
ATOM     15  C   UNL     1      47.816   2.020   5.850  0.00  0.00    +0.000 A 
ATOM     16  C   UNL     1      47.607   1.193   6.938  0.00  0.00    +0.000 A 
ATOM     17  N   UNL     1      46.729   1.464   7.930  0.00  0.00    +0.000 NA
ENDBRANCH  11  12
ENDBRANCH   8  11
ENDBRANCH   7   8
ENDBRANCH   1   7
BRANCH   5  18
ATOM     18  C   UNL     1      46.840   5.120  14.194  0.00  0.00    +0.000 C 
BRANCH  18  19
ATOM     19  N   UNL     1      47.326   6.484  14.219  0.00  0.00    +0.000 N 
ATOM     20  C   UNL     1      48.514   6.834  14.803  0.00  0.00    +0.000 C 
ATOM     21  O   UNL     1      49.228   6.006  15.364  0.00  0.00    +0.000 OA
ATOM     22  H   UNL     1      46.649   7.199  13.967  0.00  0.00    +0.000 HD
BRANCH  20  23
ATOM     23  C   UNL     1      48.932   8.236  14.666  0.00  0.00    +0.000 A 
ATOM     24  C   UNL     1      48.793   9.097  15.748  0.00  0.00    +0.000 A 
ATOM     25  S   UNL     1      49.357  10.678  15.447  0.00  0.00    +0.000 S 
ATOM     26  C   UNL     1      49.772  10.283  13.846  0.00  0.00    +0.000 A 
ATOM     27  N   UNL     1      50.300  11.219  13.011  0.00  0.00    +0.000 NA
ATOM     28  C   UNL     1      50.541  10.793  11.816  0.00  0.00    +0.000 A 
ATOM     29  N   UNL     1      50.311   9.513  11.384  0.00  0.00    +0.000 N 
ATOM     30  C   UNL     1      49.832   8.521  12.207  0.00  0.00    +0.000 A 
ATOM     31  O   UNL     1      49.723   7.366  11.814  0.00  0.00    +0.000 OA
ATOM     32  C   UNL     1      49.507   8.956  13.553  0.00  0.00    +0.000 A 
ATOM     33  H   UNL     1      50.539   9.235  10.442  0.00  0.00    +0.000 HD
ENDBRANCH  20  23
ENDBRANCH  18  19
ENDBRANCH   5  18
TORSDOF 7
ENDMDL
MODEL 7
REMARK VINA RESULT:    -7.248      3.627      9.666
REMARK INTER + INTRA:         -11.112
REMARK INTER:                  -9.847
REMARK INTRA:                  -1.265
REMARK UNBOUND:                -0.899
REMARK  Name = 
REMARK  8 active torsions:
REMARK  status: ('A' for Active; 'I' for Inactive)
REMARK    1  A    between atoms: C_1  and  C_2
REMARK    2  A    between atoms: C_2  and  N_3
REMARK    3  A    between atoms: C_2  and  C_25
REMARK    4  A    between atoms: N_3  and  C_4
REMARK    5  A    between atoms: C_4  and  C_5
REMARK    6  A    between atoms: C_9  and  C_10
REMARK    7  A    between atoms: C_10  and  N_11
REMARK    8  A    between atoms: C_12  and  C_14
REMARK                            x       y       z     vdW  Elec       q    Type
REMARK                         _______ _______ _______ _____ _____    ______ ____
ROOT
ATOM      1  C   UNL     1      49.451   4.900  18.795  0.00  0.00    +0.000 A 
ATOM      2  C   UNL     1      48.867   3.669  18.491  0.00  0.00    +0.000 A 
ATOM      3  C   UNL     1      48.283   3.499  17.246  0.00  0.00    +0.000 A 
ATOM      4  N   UNL     1      48.252   4.454  16.290  0.00  0.00    +0.000 NA
ATOM      5  C   UNL     1      48.831   5.646  16.584  0.00  0.00    +0.000 A 
ATOM      6  C   UNL     1      49.426   5.902  17.818  0.00  0.00    +0.000 A 
ENDROOT
BRANCH   1   7
ATOM      7  C   UNL     1      49.958   5.221  20.179  0.00  0.00    +0.000 C 
BRANCH   7   8
ATOM      8  N   UNL     1      51.096   4.397  20.599  0.00  0.00    +0.000 NA
ATOM      9  H   UNL     1      50.832   3.418  20.473  0.00  0.00    +0.000 HD
BRANCH   8  11
ATOM     10  C   UNL     1      53.350   5.504  20.415  0.00  0.00    +0.000 C 
ATOM     11  C   UNL     1      52.280   4.644  19.731  0.00  0.00    +0.000 C 
BRANCH  11  12
ATOM     12  C   UNL     1      52.923   3.359  19.203  0.00  0.00    +0.000 A 
ATOM     13  C   UNL     1      52.380   2.643  18.135  0.00  0.00    +0.000 A 
ATOM     14  C   UNL     1      53.062   1.528  17.650  0.00  0.00    +0.000 A 
ATOM     15  C   UNL     1      54.244   1.132  18.260  0.00  0.00    +0.000 A 
ATOM     16  C   UNL     1      54.693   1.862  19.345  0.00  0.00    +0.000 A 
ATOM     17  N   UNL     1      54.066   2.961  19.822  0.00  0.00    +0.000 NA
ENDBRANCH  11  12
ENDBRANCH   8  11
ENDBRANCH   7   8
ENDBRANCH   1   7
BRANCH   5  18
ATOM     18  C   UNL     1      48.767   6.732  15.537  0.00  0.00    +0.000 C 
BRANCH  18  19
ATOM     19  N   UNL     1      47.582   6.636  14.711  0.00  0.00    +0.000 N 
ATOM     20  C   UNL     1      47.620   6.196  13.415  0.00  0.00    +0.000 C 
ATOM     21  O   UNL     1      48.674   5.878  12.870  0.00  0.00    +0.000 OA
ATOM     22  H   UNL     1      46.754   7.105  15.068  0.00  0.00    +0.000 HD
BRANCH  20  23
ATOM     23  C   UNL     1      46.330   6.053  12.725  0.00  0.00    +0.000 A 
ATOM     24  C   UNL     1      45.718   7.177  12.185  0.00  0.00    +0.000 A 
ATOM     25  S   UNL     1      44.250   6.845  11.385  0.00  0.00    +0.000 S 
ATOM     26  C   UNL     1      44.356   5.190  11.764  0.00  0.00    +0.000 A 
ATOM     27  N   UNL     1      43.379   4.323  11.381  0.00  0.00    +0.000 NA
ATOM     28  C   UNL     1      43.571   3.103  11.759  0.00  0.00    +0.000 A 
ATOM     29  N   UNL     1      44.654   2.671  12.477  0.00  0.00    +0.000 N 
ATOM     30  C   UNL     1      45.691   3.500  12.837  0.00  0.00    +0.000 A 
ATOM     31  O   UNL     1      46.688   3.064  13.400  0.00  0.00    +0.000 OA
ATOM     32  C   UNL     1      45.508   4.892  12.470  0.00  0.00    +0.000 A 
ATOM     33  H   UNL     1      44.758   1.699  12.727  0.00  0.00    +0.000 HD
ENDBRANCH  20  23
ENDBRANCH  18  19
ENDBRANCH   5  18
TORSDOF 7
ENDMDL
MODEL 8
REMARK VINA RESULT:    -7.148      3.848      8.507
REMARK INTER + INTRA:         -10.972
REMARK INTER:                  -9.813
REMARK INTRA:                  -1.159
REMARK UNBOUND:                -0.899
REMARK  Name = 
REMARK  8 active torsions:
REMARK  status: ('A' for Active; 'I' for Inactive)
REMARK    1  A    between atoms: C_1  and  C_2
REMARK    2  A    between atoms: C_2  and  N_3
REMARK    3  A    between atoms: C_2  and  C_25
REMARK    4  A    between atoms: N_3  and  C_4
REMARK    5  A    between atoms: C_4  and  C_5
REMARK    6  A    between atoms: C_9  and  C_10
REMARK    7  A    between atoms: C_10  and  N_11
REMARK    8  A    between atoms: C_12  and  C_14
REMARK                            x       y       z     vdW  Elec       q    Type
REMARK                         _______ _______ _______ _____ _____    ______ ____
ROOT
ATOM      1  C   UNL     1      48.745   9.203  16.800  0.00  0.00    +0.000 A 
ATOM      2  C   UNL     1      49.142  10.497  16.458  0.00  0.00    +0.000 A 
ATOM      3  C   UNL     1      49.630  10.726  15.180  0.00  0.00    +0.000 A 
ATOM      4  N   UNL     1      49.737   9.772  14.230  0.00  0.00    +0.000 NA
ATOM      5  C   UNL     1      49.338   8.518  14.563  0.00  0.00    +0.000 A 
ATOM      6  C   UNL     1      48.851   8.201  15.829  0.00  0.00    +0.000 A 
ENDROOT
BRANCH   1   7
ATOM      7  C   UNL     1      48.362   8.836  18.213  0.00  0.00    +0.000 C 
BRANCH   7   8
ATOM      8  N   UNL     1      47.468   7.677  18.301  0.00  0.00    +0.000 NA
ATOM      9  H   UNL     1      47.313   7.333  17.352  0.00  0.00    +0.000 HD
BRANCH   8  11
ATOM     10  C   UNL     1      47.422   6.309  20.414  0.00  0.00    +0.000 C 
ATOM     11  C   UNL     1      48.105   6.570  19.066  0.00  0.00    +0.000 C 
BRANCH  11  12
ATOM     12  C   UNL     1      48.193   5.261  18.279  0.00  0.00    +0.000 A 
ATOM     13  C   UNL     1      49.412   4.635  18.014  0.00  0.00    +0.000 A 
ATOM     14  C   UNL     1      49.414   3.402  17.365  0.00  0.00    +0.000 A 
ATOM     15  C   UNL     1      48.209   2.839  16.964  0.00  0.00    +0.000 A 
ATOM     16  C   UNL     1      47.047   3.543  17.216  0.00  0.00    +0.000 A 
ATOM     17  N   UNL     1      47.012   4.729  17.865  0.00  0.00    +0.000 NA
ENDBRANCH  11  12
ENDBRANCH   8  11
ENDBRANCH   7   8
ENDBRANCH   1   7
BRANCH   5  18
ATOM     18  C   UNL     1      49.490   7.436  13.520  0.00  0.00    +0.000 C 
BRANCH  18  19
ATOM     19  N   UNL     1      48.233   7.095  12.888  0.00  0.00    +0.000 N 
ATOM     20  C   UNL     1      47.432   6.079  13.336  0.00  0.00    +0.000 C 
ATOM     21  O   UNL     1      47.751   5.379  14.295  0.00  0.00    +0.000 OA
ATOM     22  H   UNL     1      48.072   7.507  11.973  0.00  0.00    +0.000 HD
BRANCH  20  23
ATOM     23  C   UNL     1      46.137   5.908  12.663  0.00  0.00    +0.000 A 
ATOM     24  C   UNL     1      45.495   7.018  12.129  0.00  0.00    +0.000 A 
ATOM     25  S   UNL     1      44.024   6.653  11.348  0.00  0.00    +0.000 S 
ATOM     26  C   UNL     1      44.169   5.002  11.730  0.00  0.00    +0.000 A 
ATOM     27  N   UNL     1      43.206   4.114  11.361  0.00  0.00    +0.000 NA
ATOM     28  C   UNL     1      43.427   2.899  11.739  0.00  0.00    +0.000 A 
ATOM     29  N   UNL     1      44.529   2.492  12.444  0.00  0.00    +0.000 N 
ATOM     30  C   UNL     1      45.553   3.342  12.789  0.00  0.00    +0.000 A 
ATOM     31  O   UNL     1      46.566   2.928  13.340  0.00  0.00    +0.000 OA
ATOM     32  C   UNL     1      45.337   4.729  12.421  0.00  0.00    +0.000 A 
ATOM     33  H   UNL     1      44.655   1.523  12.694  0.00  0.00    +0.000 HD
ENDBRANCH  20  23
ENDBRANCH  18  19
ENDBRANCH   5  18
TORSDOF 7
ENDMDL
MODEL 9
REMARK VINA RESULT:    -6.919      3.625      8.779
REMARK INTER + INTRA:         -10.649
REMARK INTER:                  -9.335
REMARK INTRA:                  -1.314
REMARK UNBOUND:                -0.899
REMARK  Name = 
REMARK  8 active torsions:
REMARK  status: ('A' for Active; 'I' for Inactive)
REMARK    1  A    between atoms: C_1  and  C_2
REMARK    2  A    between atoms: C_2  and  N_3
REMARK    3  A    between atoms: C_2  and  C_25
REMARK    4  A    between atoms: N_3  and  C_4
REMARK    5  A    between atoms: C_4  and  C_5
REMARK    6  A    between atoms: C_9  and  C_10
REMARK    7  A    between atoms: C_10  and  N_11
REMARK    8  A    between atoms: C_12  and  C_14
REMARK                            x       y       z     vdW  Elec       q    Type
REMARK                         _______ _______ _______ _____ _____    ______ ____
ROOT
ATOM      1  C   UNL     1      50.141   8.199  14.033  0.00  0.00    +0.000 A 
ATOM      2  C   UNL     1      50.953   8.146  12.899  0.00  0.00    +0.000 A 
ATOM      3  C   UNL     1      50.351   8.116  11.651  0.00  0.00    +0.000 A 
ATOM      4  N   UNL     1      49.015   8.147  11.456  0.00  0.00    +0.000 NA
ATOM      5  C   UNL     1      48.228   8.212  12.560  0.00  0.00    +0.000 A 
ATOM      6  C   UNL     1      48.754   8.230  13.850  0.00  0.00    +0.000 A 
ENDROOT
BRANCH   1   7
ATOM      7  C   UNL     1      50.707   8.068  15.425  0.00  0.00    +0.000 C 
BRANCH   7   8
ATOM      8  N   UNL     1      50.872   6.680  15.869  0.00  0.00    +0.000 NA
ATOM      9  H   UNL     1      51.870   6.517  16.010  0.00  0.00    +0.000 HD
BRANCH   8  11
ATOM     10  C   UNL     1      49.527   7.721  17.725  0.00  0.00    +0.000 C 
ATOM     11  C   UNL     1      50.204   6.457  17.181  0.00  0.00    +0.000 C 
BRANCH  11  12
ATOM     12  C   UNL     1      49.194   5.308  17.160  0.00  0.00    +0.000 A 
ATOM     13  C   UNL     1      48.117   5.285  16.274  0.00  0.00    +0.000 A 
ATOM     14  C   UNL     1      47.282   4.168  16.250  0.00  0.00    +0.000 A 
ATOM     15  C   UNL     1      47.518   3.121  17.131  0.00  0.00    +0.000 A 
ATOM     16  C   UNL     1      48.575   3.240  18.015  0.00  0.00    +0.000 A 
ATOM     17  N   UNL     1      49.414   4.299  18.044  0.00  0.00    +0.000 NA
ENDBRANCH  11  12
ENDBRANCH   8  11
ENDBRANCH   7   8
ENDBRANCH   1   7
BRANCH   5  18
ATOM     18  C   UNL     1      46.732   8.209  12.354  0.00  0.00    +0.000 C 
BRANCH  18  19
ATOM     19  N   UNL     1      46.203   6.876  12.152  0.00  0.00    +0.000 N 
ATOM     20  C   UNL     1      44.938   6.648  11.681  0.00  0.00    +0.000 C 
ATOM     21  O   UNL     1      44.167   7.570  11.424  0.00  0.00    +0.000 OA
ATOM     22  H   UNL     1      46.737   6.120  12.571  0.00  0.00    +0.000 HD
BRANCH  20  23
ATOM     23  C   UNL     1      44.566   5.249  11.429  0.00  0.00    +0.000 A 
ATOM     24  C   UNL     1      43.796   4.569  12.364  0.00  0.00    +0.000 A 
ATOM     25  S   UNL     1      43.416   2.970  11.911  0.00  0.00    +0.000 S 
ATOM     26  C   UNL     1      44.301   3.111  10.466  0.00  0.00    +0.000 A 
ATOM     27  N   UNL     1      44.402   2.063   9.604  0.00  0.00    +0.000 NA
ATOM     28  C   UNL     1      45.127   2.297   8.561  0.00  0.00    +0.000 A 
ATOM     29  N   UNL     1      45.750   3.487   8.298  0.00  0.00    +0.000 N 
ATOM     30  C   UNL     1      45.631   4.590   9.110  0.00  0.00    +0.000 A 
ATOM     31  O   UNL     1      46.127   5.666   8.800  0.00  0.00    +0.000 OA
ATOM     32  C   UNL     1      44.857   4.370  10.319  0.00  0.00    +0.000 A 
ATOM     33  H   UNL     1      46.288   3.616   7.454  0.00  0.00    +0.000 HD
ENDBRANCH  20  23
ENDBRANCH  18  19
ENDBRANCH   5  18
TORSDOF 7
ENDMDL
