MODEL 1
REMARK VINA RESULT:    -7.291      0.000      0.000
REMARK INTER + INTRA:         -10.935
REMARK INTER:                 -10.488
REMARK INTRA:                  -0.447
REMARK UNBOUND:                -0.447
REMARK  Name = 
REMARK  9 active torsions:
REMARK  status: ('A' for Active; 'I' for Inactive)
REMARK    1  A    between atoms: C_1  and  O_2
REMARK    2  A    between atoms: O_2  and  C_3
REMARK    3  A    between atoms: C_3  and  C_4
REMARK    4  A    between atoms: C_4  and  N_5
REMARK    5  A    between atoms: C_4  and  C_6
REMARK    6  A    between atoms: C_9  and  C_10
REMARK    7  A    between atoms: C_10  and  O_11
REMARK    8  A    between atoms: O_11  and  C_12
REMARK    9  A    between atoms: C_16  and  C_17
REMARK                            x       y       z     vdW  Elec       q    Type
REMARK                         _______ _______ _______ _____ _____    ______ ____
ROOT
ATOM      1  C   UNL     1      46.669   4.958  13.669  0.00  0.00    +0.000 A 
ATOM      2  C   UNL     1      46.454   3.600  13.480  0.00  0.00    +0.000 A 
ATOM      3  N   UNL     1      45.414   3.105  12.764  0.00  0.00    +0.000 NA
ATOM      4  C   UNL     1      44.557   4.025  12.247  0.00  0.00    +0.000 A 
ATOM      5  C   UNL     1      44.782   5.385  12.418  0.00  0.00    +0.000 A 
ATOM      6  N   UNL     1      45.829   5.879  13.120  0.00  0.00    +0.000 NA
ENDROOT
BRANCH   1   7
ATOM      7  C   UNL     1      47.814   5.443  14.542  0.00  0.00    +0.000 C 
BRANCH   7   8
ATOM      8  N   UNL     1      47.475   5.387  15.982  0.00  0.00    +0.000 NA
ATOM      9  H   UNL     1      48.289   5.031  16.486  0.00  0.00    +0.000 HD
ATOM     10  H   UNL     1      46.766   4.658  16.088  0.00  0.00    +0.000 HD
ENDBRANCH   7   8
BRANCH   7  11
ATOM     11  C   UNL     1      48.232   6.869  14.114  0.00  0.00    +0.000 C 
BRANCH  11  13
ATOM     12  C   UNL     1      48.870   7.500  11.945  0.00  0.00    +0.000 C 
ATOM     13  O   UNL     1      49.274   6.817  13.129  0.00  0.00    +0.000 OA
ENDBRANCH  11  13
ENDBRANCH   7  11
ENDBRANCH   1   7
BRANCH   4  14
ATOM     14  C   UNL     1      43.352   3.538  11.484  0.00  0.00    +0.000 C 
BRANCH  14  15
ATOM     15  O   UNL     1      43.743   2.514  10.565  0.00  0.00    +0.000 OA
BRANCH  15  16
ATOM     16  C   UNL     1      44.566   2.882   9.533  0.00  0.00    +0.000 A 
ATOM     17  C   UNL     1      44.671   4.156   8.986  0.00  0.00    +0.000 A 
ATOM     18  C   UNL     1      45.569   4.360   7.946  0.00  0.00    +0.000 A 
ATOM     19  N   UNL     1      46.347   3.393   7.418  0.00  0.00    +0.000 NA
ATOM     20  C   UNL     1      46.223   2.154   7.975  0.00  0.00    +0.000 A 
ATOM     21  C   UNL     1      45.358   1.859   9.019  0.00  0.00    +0.000 A 
BRANCH  20  22
ATOM     22  C   UNL     1      47.091   1.076   7.404  0.00  0.00    +0.000 C 
ATOM     23  N   UNL     1      46.725  -0.207   7.709  0.00  0.00    +0.000 N 
ATOM     24  O   UNL     1      48.073   1.313   6.706  0.00  0.00    +0.000 OA
ATOM     25  H   UNL     1      45.905  -0.372   8.280  0.00  0.00    +0.000 HD
ATOM     26  H   UNL     1      47.267  -0.976   7.350  0.00  0.00    +0.000 HD
ENDBRANCH  20  22
ENDBRANCH  15  16
ENDBRANCH  14  15
ENDBRANCH   4  14
TORSDOF 8
ENDMDL
MODEL 2
REMARK VINA RESULT:    -7.169      1.446      2.014
REMARK INTER + INTRA:         -10.759
REMARK INTER:                 -10.470
REMARK INTRA:                  -0.288
REMARK UNBOUND:                -0.447
REMARK  Name = 
REMARK  9 active torsions:
REMARK  status: ('A' for Active; 'I' for Inactive)
REMARK    1  A    between atoms: C_1  and  O_2
REMARK    2  A    between atoms: O_2  and  C_3
REMARK    3  A    between atoms: C_3  and  C_4
REMARK    4  A    between atoms: C_4  and  N_5
REMARK    5  A    between atoms: C_4  and  C_6
REMARK    6  A    between atoms: C_9  and  C_10
REMARK    7  A    between atoms: C_10  and  O_11
REMARK    8  A    between atoms: O_11  and  C_12
REMARK    9  A    between atoms: C_16  and  C_17
REMARK                            x       y       z     vdW  Elec       q    Type
REMARK                         _______ _______ _______ _____ _____    ______ ____
ROOT
ATOM      1  C   UNL     1      46.437   5.128  13.714  0.00  0.00    +0.000 A 
ATOM      2  C   UNL     1      46.316   3.766  13.470  0.00  0.00    +0.000 A 
ATOM      3  N   UNL     1      45.332   3.234  12.703  0.00  0.00    +0.000 NA
ATOM      4  C   UNL     1      44.434   4.118  12.190  0.00  0.00    +0.000 A 
ATOM      5  C   UNL     1      44.566   5.481  12.417  0.00  0.00    +0.000 A 
ATOM      6  N   UNL     1      45.557   6.013  13.170  0.00  0.00    +0.000 NA
ENDROOT
BRANCH   1   7
ATOM      7  C   UNL     1      47.521   5.651  14.641  0.00  0.00    +0.000 C 
BRANCH   7   8
ATOM      8  N   UNL     1      48.676   6.194  13.891  0.00  0.00    +0.000 NA
ATOM      9  H   UNL     1      49.225   6.773  14.528  0.00  0.00    +0.000 HD
ATOM     10  H   UNL     1      48.298   6.851  13.205  0.00  0.00    +0.000 HD
ENDBRANCH   7   8
BRANCH   7  11
ATOM     11  C   UNL     1      47.956   4.537  15.621  0.00  0.00    +0.000 C 
BRANCH  11  13
ATOM     12  C   UNL     1      47.207   3.233  17.423  0.00  0.00    +0.000 C 
ATOM     13  O   UNL     1      47.071   4.481  16.749  0.00  0.00    +0.000 OA
ENDBRANCH  11  13
ENDBRANCH   7  11
ENDBRANCH   1   7
BRANCH   4  14
ATOM     14  C   UNL     1      43.287   3.585  11.371  0.00  0.00    +0.000 C 
BRANCH  14  15
ATOM     15  O   UNL     1      43.752   2.544  10.507  0.00  0.00    +0.000 OA
BRANCH  15  16
ATOM     16  C   UNL     1      44.607   2.905   9.499  0.00  0.00    +0.000 A 
ATOM     17  C   UNL     1      44.760   4.184   8.976  0.00  0.00    +0.000 A 
ATOM     18  C   UNL     1      45.686   4.379   7.958  0.00  0.00    +0.000 A 
ATOM     19  N   UNL     1      46.446   3.398   7.431  0.00  0.00    +0.000 NA
ATOM     20  C   UNL     1      46.276   2.154   7.964  0.00  0.00    +0.000 A 
ATOM     21  C   UNL     1      45.380   1.867   8.984  0.00  0.00    +0.000 A 
BRANCH  20  22
ATOM     22  C   UNL     1      47.124   1.062   7.393  0.00  0.00    +0.000 C 
ATOM     23  N   UNL     1      46.723  -0.215   7.679  0.00  0.00    +0.000 N 
ATOM     24  O   UNL     1      48.120   1.281   6.709  0.00  0.00    +0.000 OA
ATOM     25  H   UNL     1      45.892  -0.366   8.239  0.00  0.00    +0.000 HD
ATOM     26  H   UNL     1      47.251  -0.994   7.320  0.00  0.00    +0.000 HD
ENDBRANCH  20  22
ENDBRANCH  15  16
ENDBRANCH  14  15
ENDBRANCH   4  14
TORSDOF 8
ENDMDL
MODEL 3
REMARK VINA RESULT:    -6.699      1.767      2.487
REMARK INTER + INTRA:         -10.083
REMARK INTER:                  -9.543
REMARK INTRA:                  -0.541
REMARK UNBOUND:                -0.447
REMARK  Name = 
REMARK  9 active torsions:
REMARK  status: ('A' for Active; 'I' for Inactive)
REMARK    1  A    between atoms: C_1  and  O_2
REMARK    2  A    between atoms: O_2  and  C_3
REMARK    3  A    between atoms: C_3  and  C_4
REMARK    4  A    between atoms: C_4  and  N_5
REMARK    5  A    between atoms: C_4  and  C_6
REMARK    6  A    between atoms: C_9  and  C_10
REMARK    7  A    between atoms: C_10  and  O_11
REMARK    8  A    between atoms: O_11  and  C_12
REMARK    9  A    between atoms: C_16  and  C_17
REMARK                            x       y       z     vdW  Elec       q    Type
REMARK                         _______ _______ _______ _____ _____    ______ ____
ROOT
ATOM      1  C   UNL     1      46.842   5.957  13.031  0.00  0.00    +0.000 A 
ATOM      2  C   UNL     1      45.874   5.030  13.390  0.00  0.00    +0.000 A 
ATOM      3  N   UNL     1      44.905   4.602  12.543  0.00  0.00    +0.000 NA
ATOM      4  C   UNL     1      44.914   5.155  11.301  0.00  0.00    +0.000 A 
ATOM      5  C   UNL     1      45.895   6.068  10.934  0.00  0.00    +0.000 A 
ATOM      6  N   UNL     1      46.871   6.483  11.776  0.00  0.00    +0.000 NA
ENDROOT
BRANCH   1   7
ATOM      7  C   UNL     1      47.856   6.447  14.051  0.00  0.00    +0.000 C 
BRANCH   7   8
ATOM      8  N   UNL     1      49.218   6.541  13.477  0.00  0.00    +0.000 NA
ATOM      9  H   UNL     1      49.140   6.462  12.462  0.00  0.00    +0.000 HD
ATOM     10  H   UNL     1      49.716   5.696  13.765  0.00  0.00    +0.000 HD
ENDBRANCH   7   8
BRANCH   7  11
ATOM     11  C   UNL     1      47.829   5.534  15.299  0.00  0.00    +0.000 C 
BRANCH  11  13
ATOM     12  C   UNL     1      48.979   5.050  17.287  0.00  0.00    +0.000 C 
ATOM     13  O   UNL     1      49.107   5.527  15.950  0.00  0.00    +0.000 OA
ENDBRANCH  11  13
ENDBRANCH   7  11
ENDBRANCH   1   7
BRANCH   4  14
ATOM     14  C   UNL     1      43.833   4.760  10.329  0.00  0.00    +0.000 C 
BRANCH  14  15
ATOM     15  O   UNL     1      44.385   4.640   9.014  0.00  0.00    +0.000 OA
BRANCH  15  16
ATOM     16  C   UNL     1      44.953   3.438   8.684  0.00  0.00    +0.000 A 
ATOM     17  C   UNL     1      44.654   2.208   9.256  0.00  0.00    +0.000 A 
ATOM     18  C   UNL     1      45.320   1.080   8.793  0.00  0.00    +0.000 A 
ATOM     19  N   UNL     1      46.254   1.100   7.820  0.00  0.00    +0.000 NA
ATOM     20  C   UNL     1      46.526   2.320   7.276  0.00  0.00    +0.000 A 
ATOM     21  C   UNL     1      45.909   3.498   7.672  0.00  0.00    +0.000 A 
BRANCH  20  22
ATOM     22  C   UNL     1      47.553   2.352   6.188  0.00  0.00    +0.000 C 
ATOM     23  N   UNL     1      47.399   3.338   5.251  0.00  0.00    +0.000 N 
ATOM     24  O   UNL     1      48.481   1.549   6.125  0.00  0.00    +0.000 OA
ATOM     25  H   UNL     1      46.629   3.991   5.333  0.00  0.00    +0.000 HD
ATOM     26  H   UNL     1      48.061   3.413   4.496  0.00  0.00    +0.000 HD
ENDBRANCH  20  22
ENDBRANCH  15  16
ENDBRANCH  14  15
ENDBRANCH   4  14
TORSDOF 8
ENDMDL
MODEL 4
REMARK VINA RESULT:    -6.411      2.927      4.365
REMARK INTER + INTRA:          -9.668
REMARK INTER:                  -9.206
REMARK INTRA:                  -0.462
REMARK UNBOUND:                -0.447
REMARK  Name = 
REMARK  9 active torsions:
REMARK  status: ('A' for Active; 'I' for Inactive)
REMARK    1  A    between atoms: C_1  and  O_2
REMARK    2  A    between atoms: O_2  and  C_3
REMARK    3  A    between atoms: C_3  and  C_4
REMARK    4  A    between atoms: C_4  and  N_5
REMARK    5  A    between atoms: C_4  and  C_6
REMARK    6  A    between atoms: C_9  and  C_10
REMARK    7  A    between atoms: C_10  and  O_11
REMARK    8  A    between atoms: O_11  and  C_12
REMARK    9  A    between atoms: C_16  and  C_17
REMARK                            x       y       z     vdW  Elec       q    Type
REMARK                         _______ _______ _______ _____ _____    ______ ____
ROOT
ATOM      1  C   UNL     1      47.594   4.511  16.177  0.00  0.00    +0.000 A 
ATOM      2  C   UNL     1      48.376   5.625  15.903  0.00  0.00    +0.000 A 
ATOM      3  N   UNL     1      48.353   6.274  14.713  0.00  0.00    +0.000 NA
ATOM      4  C   UNL     1      47.524   5.755  13.769  0.00  0.00    +0.000 A 
ATOM      5  C   UNL     1      46.726   4.653  14.047  0.00  0.00    +0.000 A 
ATOM      6  N   UNL     1      46.738   4.015  15.241  0.00  0.00    +0.000 NA
ENDROOT
BRANCH   1   7
ATOM      7  C   UNL     1      47.721   3.788  17.507  0.00  0.00    +0.000 C 
BRANCH   7   8
ATOM      8  N   UNL     1      46.591   2.861  17.743  0.00  0.00    +0.000 NA
ATOM      9  H   UNL     1      46.837   2.253  18.526  0.00  0.00    +0.000 HD
ATOM     10  H   UNL     1      46.548   2.238  16.935  0.00  0.00    +0.000 HD
ENDBRANCH   7   8
BRANCH   7  11
ATOM     11  C   UNL     1      47.859   4.817  18.653  0.00  0.00    +0.000 C 
BRANCH  11  13
ATOM     12  C   UNL     1      50.135   4.796  19.225  0.00  0.00    +0.000 C 
ATOM     13  O   UNL     1      48.829   4.379  19.614  0.00  0.00    +0.000 OA
ENDBRANCH  11  13
ENDBRANCH   7  11
ENDBRANCH   1   7
BRANCH   4  14
ATOM     14  C   UNL     1      47.490   6.400  12.407  0.00  0.00    +0.000 C 
BRANCH  14  15
ATOM     15  O   UNL     1      46.223   7.032  12.202  0.00  0.00    +0.000 OA
BRANCH  15  16
ATOM     16  C   UNL     1      45.255   6.298  11.570  0.00  0.00    +0.000 A 
ATOM     17  C   UNL     1      43.904   6.272  11.898  0.00  0.00    +0.000 A 
ATOM     18  C   UNL     1      43.052   5.477  11.142  0.00  0.00    +0.000 A 
ATOM     19  N   UNL     1      43.453   4.712  10.106  0.00  0.00    +0.000 NA
ATOM     20  C   UNL     1      44.783   4.758   9.806  0.00  0.00    +0.000 A 
ATOM     21  C   UNL     1      45.705   5.526  10.502  0.00  0.00    +0.000 A 
BRANCH  20  22
ATOM     22  C   UNL     1      45.235   3.922   8.651  0.00  0.00    +0.000 C 
ATOM     23  N   UNL     1      44.946   2.586   8.732  0.00  0.00    +0.000 N 
ATOM     24  O   UNL     1      45.831   4.390   7.684  0.00  0.00    +0.000 OA
ATOM     25  H   UNL     1      44.446   2.231   9.538  0.00  0.00    +0.000 HD
ATOM     26  H   UNL     1      45.221   1.973   7.983  0.00  0.00    +0.000 HD
ENDBRANCH  20  22
ENDBRANCH  15  16
ENDBRANCH  14  15
ENDBRANCH   4  14
TORSDOF 8
ENDMDL
MODEL 5
REMARK VINA RESULT:    -6.396      3.467      4.949
REMARK INTER + INTRA:          -9.648
REMARK INTER:                  -9.119
REMARK INTRA:                  -0.529
REMARK UNBOUND:                -0.447
REMARK  Name = 
REMARK  9 active torsions:
REMARK  status: ('A' for Active; 'I' for Inactive)
REMARK    1  A    between atoms: C_1  and  O_2
REMARK    2  A    between atoms: O_2  and  C_3
REMARK    3  A    between atoms: C_3  and  C_4
REMARK    4  A    between atoms: C_4  and  N_5
REMARK    5  A    between atoms: C_4  and  C_6
REMARK    6  A    between atoms: C_9  and  C_10
REMARK    7  A    between atoms: C_10  and  O_11
REMARK    8  A    between atoms: O_11  and  C_12
REMARK    9  A    between atoms: C_16  and  C_17
REMARK                            x       y       z     vdW  Elec       q    Type
REMARK                         _______ _______ _______ _____ _____    ______ ____
ROOT
ATOM      1  C   UNL     1      48.504   4.419  17.844  0.00  0.00    +0.000 A 
ATOM      2  C   UNL     1      47.502   3.585  17.365  0.00  0.00    +0.000 A 
ATOM      3  N   UNL     1      46.910   3.752  16.156  0.00  0.00    +0.000 NA
ATOM      4  C   UNL     1      47.340   4.816  15.427  0.00  0.00    +0.000 A 
ATOM      5  C   UNL     1      48.355   5.640  15.895  0.00  0.00    +0.000 A 
ATOM      6  N   UNL     1      48.956   5.463  17.095  0.00  0.00    +0.000 NA
ENDROOT
BRANCH   1   7
ATOM      7  C   UNL     1      49.074   4.218  19.237  0.00  0.00    +0.000 C 
BRANCH   7   8
ATOM      8  N   UNL     1      48.313   3.207  20.006  0.00  0.00    +0.000 NA
ATOM      9  H   UNL     1      48.982   2.561  20.430  0.00  0.00    +0.000 HD
ATOM     10  H   UNL     1      47.804   2.641  19.324  0.00  0.00    +0.000 HD
ENDBRANCH   7   8
BRANCH   7  11
ATOM     11  C   UNL     1      49.131   5.571  19.982  0.00  0.00    +0.000 C 
BRANCH  11  13
ATOM     12  C   UNL     1      47.711   7.422  20.240  0.00  0.00    +0.000 C 
ATOM     13  O   UNL     1      47.813   6.005  20.347  0.00  0.00    +0.000 OA
ENDBRANCH  11  13
ENDBRANCH   7  11
ENDBRANCH   1   7
BRANCH   4  14
ATOM     14  C   UNL     1      46.686   5.087  14.096  0.00  0.00    +0.000 C 
BRANCH  14  15
ATOM     15  O   UNL     1      45.597   4.182  13.899  0.00  0.00    +0.000 OA
BRANCH  15  16
ATOM     16  C   UNL     1      44.721   4.471  12.886  0.00  0.00    +0.000 A 
ATOM     17  C   UNL     1      43.405   4.890  13.039  0.00  0.00    +0.000 A 
ATOM     18  C   UNL     1      42.654   5.152  11.899  0.00  0.00    +0.000 A 
ATOM     19  N   UNL     1      43.119   5.016  10.641  0.00  0.00    +0.000 NA
ATOM     20  C   UNL     1      44.414   4.605  10.521  0.00  0.00    +0.000 A 
ATOM     21  C   UNL     1      45.239   4.325  11.601  0.00  0.00    +0.000 A 
BRANCH  20  22
ATOM     22  C   UNL     1      44.943   4.462   9.128  0.00  0.00    +0.000 C 
ATOM     23  N   UNL     1      44.257   3.601   8.315  0.00  0.00    +0.000 N 
ATOM     24  O   UNL     1      45.931   5.072   8.726  0.00  0.00    +0.000 OA
ATOM     25  H   UNL     1      43.441   3.118   8.672  0.00  0.00    +0.000 HD
ATOM     26  H   UNL     1      44.561   3.466   7.365  0.00  0.00    +0.000 HD
ENDBRANCH  20  22
ENDBRANCH  15  16
ENDBRANCH  14  15
ENDBRANCH   4  14
TORSDOF 8
ENDMDL
MODEL 6
REMARK VINA RESULT:    -6.368      2.480      7.600
REMARK INTER + INTRA:          -9.607
REMARK INTER:                  -9.023
REMARK INTRA:                  -0.584
REMARK UNBOUND:                -0.447
REMARK  Name = 
REMARK  9 active torsions:
REMARK  status: ('A' for Active; 'I' for Inactive)
REMARK    1  A    between atoms: C_1  and  O_2
REMARK    2  A    between atoms: O_2  and  C_3
REMARK    3  A    between atoms: C_3  and  C_4
REMARK    4  A    between atoms: C_4  and  N_5
REMARK    5  A    between atoms: C_4  and  C_6
REMARK    6  A    between atoms: C_9  and  C_10
REMARK    7  A    between atoms: C_10  and  O_11
REMARK    8  A    between atoms: O_11  and  C_12
REMARK    9  A    between atoms: C_16  and  C_17
REMARK                            x       y       z     vdW  Elec       q    Type
REMARK                         _______ _______ _______ _____ _____    ______ ____
ROOT
ATOM      1  C   UNL     1      44.714   4.618  11.231  0.00  0.00    +0.000 A 
ATOM      2  C   UNL     1      44.726   4.610  12.619  0.00  0.00    +0.000 A 
ATOM      3  N   UNL     1      45.531   5.413  13.359  0.00  0.00    +0.000 NA
ATOM      4  C   UNL     1      46.362   6.229  12.658  0.00  0.00    +0.000 A 
ATOM      5  C   UNL     1      46.337   6.253  11.270  0.00  0.00    +0.000 A 
ATOM      6  N   UNL     1      45.522   5.462  10.532  0.00  0.00    +0.000 NA
ENDROOT
BRANCH   1   7
ATOM      7  C   UNL     1      43.838   3.642  10.462  0.00  0.00    +0.000 C 
BRANCH   7   8
ATOM      8  N   UNL     1      43.502   2.447  11.268  0.00  0.00    +0.000 NA
ATOM      9  H   UNL     1      42.642   2.643  11.783  0.00  0.00    +0.000 HD
ATOM     10  H   UNL     1      44.222   2.367  11.989  0.00  0.00    +0.000 HD
ENDBRANCH   7   8
BRANCH   7  11
ATOM     11  C   UNL     1      44.527   3.254   9.133  0.00  0.00    +0.000 C 
BRANCH  11  13
ATOM     12  C   UNL     1      46.088   1.720   8.287  0.00  0.00    +0.000 C 
ATOM     13  O   UNL     1      44.993   1.898   9.181  0.00  0.00    +0.000 OA
ENDBRANCH  11  13
ENDBRANCH   7  11
ENDBRANCH   1   7
BRANCH   4  14
ATOM     14  C   UNL     1      47.318   7.109  13.422  0.00  0.00    +0.000 C 
BRANCH  14  15
ATOM     15  O   UNL     1      48.380   6.316  13.961  0.00  0.00    +0.000 OA
BRANCH  15  16
ATOM     16  C   UNL     1      48.450   6.214  15.326  0.00  0.00    +0.000 A 
ATOM     17  C   UNL     1      48.917   7.192  16.196  0.00  0.00    +0.000 A 
ATOM     18  C   UNL     1      48.909   6.926  17.560  0.00  0.00    +0.000 A 
ATOM     19  N   UNL     1      48.484   5.767  18.102  0.00  0.00    +0.000 NA
ATOM     20  C   UNL     1      48.030   4.826  17.224  0.00  0.00    +0.000 A 
ATOM     21  C   UNL     1      47.996   5.005  15.849  0.00  0.00    +0.000 A 
BRANCH  20  22
ATOM     22  C   UNL     1      47.545   3.541  17.817  0.00  0.00    +0.000 C 
ATOM     23  N   UNL     1      48.304   3.029  18.835  0.00  0.00    +0.000 N 
ATOM     24  O   UNL     1      46.531   2.968  17.425  0.00  0.00    +0.000 OA
ATOM     25  H   UNL     1      49.130   3.528  19.142  0.00  0.00    +0.000 HD
ATOM     26  H   UNL     1      48.026   2.169  19.277  0.00  0.00    +0.000 HD
ENDBRANCH  20  22
ENDBRANCH  15  16
ENDBRANCH  14  15
ENDBRANCH   4  14
TORSDOF 8
ENDMDL
MODEL 7
REMARK VINA RESULT:    -6.077      1.694      2.107
REMARK INTER + INTRA:          -9.188
REMARK INTER:                  -8.530
REMARK INTRA:                  -0.659
REMARK UNBOUND:                -0.447
REMARK  Name = 
REMARK  9 active torsions:
REMARK  status: ('A' for Active; 'I' for Inactive)
REMARK    1  A    between atoms: C_1  and  O_2
REMARK    2  A    between atoms: O_2  and  C_3
REMARK    3  A    between atoms: C_3  and  C_4
REMARK    4  A    between atoms: C_4  and  N_5
REMARK    5  A    between atoms: C_4  and  C_6
REMARK    6  A    between atoms: C_9  and  C_10
REMARK    7  A    between atoms: C_10  and  O_11
REMARK    8  A    between atoms: O_11  and  C_12
REMARK    9  A    between atoms: C_16  and  C_17
REMARK                            x       y       z     vdW  Elec       q    Type
REMARK                         _______ _______ _______ _____ _____    ______ ____
ROOT
ATOM      1  C   UNL     1      46.950   6.402  13.175  0.00  0.00    +0.000 A 
ATOM      2  C   UNL     1      46.366   5.201  13.554  0.00  0.00    +0.000 A 
ATOM      3  N   UNL     1      45.319   4.643  12.895  0.00  0.00    +0.000 NA
ATOM      4  C   UNL     1      44.844   5.345  11.832  0.00  0.00    +0.000 A 
ATOM      5  C   UNL     1      45.440   6.536  11.439  0.00  0.00    +0.000 A 
ATOM      6  N   UNL     1      46.494   7.084  12.088  0.00  0.00    +0.000 NA
ENDROOT
BRANCH   1   7
ATOM      7  C   UNL     1      48.074   7.007  13.999  0.00  0.00    +0.000 C 
BRANCH   7   8
ATOM      8  N   UNL     1      47.632   8.212  14.736  0.00  0.00    +0.000 NA
ATOM      9  H   UNL     1      48.233   8.991  14.461  0.00  0.00    +0.000 HD
ATOM     10  H   UNL     1      47.852   8.051  15.721  0.00  0.00    +0.000 HD
ENDBRANCH   7   8
BRANCH   7  11
ATOM     11  C   UNL     1      49.286   7.311  13.090  0.00  0.00    +0.000 C 
BRANCH  11  13
ATOM     12  C   UNL     1      50.529   8.996  12.028  0.00  0.00    +0.000 C 
ATOM     13  O   UNL     1      49.440   8.726  12.907  0.00  0.00    +0.000 OA
ENDBRANCH  11  13
ENDBRANCH   7  11
ENDBRANCH   1   7
BRANCH   4  14
ATOM     14  C   UNL     1      43.650   4.805  11.089  0.00  0.00    +0.000 C 
BRANCH  14  15
ATOM     15  O   UNL     1      43.915   4.804   9.683  0.00  0.00    +0.000 OA
BRANCH  15  16
ATOM     16  C   UNL     1      44.585   3.724   9.174  0.00  0.00    +0.000 A 
ATOM     17  C   UNL     1      44.443   2.404   9.589  0.00  0.00    +0.000 A 
ATOM     18  C   UNL     1      45.196   1.424   8.955  0.00  0.00    +0.000 A 
ATOM     19  N   UNL     1      46.072   1.669   7.960  0.00  0.00    +0.000 NA
ATOM     20  C   UNL     1      46.191   2.972   7.573  0.00  0.00    +0.000 A 
ATOM     21  C   UNL     1      45.477   4.015   8.145  0.00  0.00    +0.000 A 
BRANCH  20  22
ATOM     22  C   UNL     1      47.153   3.253   6.462  0.00  0.00    +0.000 C 
ATOM     23  N   UNL     1      48.347   2.588   6.525  0.00  0.00    +0.000 N 
ATOM     24  O   UNL     1      46.901   4.030   5.544  0.00  0.00    +0.000 OA
ATOM     25  H   UNL     1      48.524   1.947   7.289  0.00  0.00    +0.000 HD
ATOM     26  H   UNL     1      49.034   2.732   5.804  0.00  0.00    +0.000 HD
ENDBRANCH  20  22
ENDBRANCH  15  16
ENDBRANCH  14  15
ENDBRANCH   4  14
TORSDOF 8
ENDMDL
MODEL 8
REMARK VINA RESULT:    -6.022      3.191      7.929
REMARK INTER + INTRA:          -9.110
REMARK INTER:                  -8.607
REMARK INTRA:                  -0.503
REMARK UNBOUND:                -0.447
REMARK  Name = 
REMARK  9 active torsions:
REMARK  status: ('A' for Active; 'I' for Inactive)
REMARK    1  A    between atoms: C_1  and  O_2
REMARK    2  A    between atoms: O_2  and  C_3
REMARK    3  A    between atoms: C_3  and  C_4
REMARK    4  A    between atoms: C_4  and  N_5
REMARK    5  A    between atoms: C_4  and  C_6
REMARK    6  A    between atoms: C_9  and  C_10
REMARK    7  A    between atoms: C_10  and  O_11
REMARK    8  A    between atoms: O_11  and  C_12
REMARK    9  A    between atoms: C_16  and  C_17
REMARK                            x       y       z     vdW  Elec       q    Type
REMARK                         _______ _______ _______ _____ _____    ______ ____
ROOT
ATOM      1  C   UNL     1      45.115   5.566  12.866  0.00  0.00    +0.000 A 
ATOM      2  C   UNL     1      46.124   4.700  13.265  0.00  0.00    +0.000 A 
ATOM      3  N   UNL     1      47.352   5.121  13.658  0.00  0.00    +0.000 NA
ATOM      4  C   UNL     1      47.560   6.464  13.621  0.00  0.00    +0.000 A 
ATOM      5  C   UNL     1      46.545   7.333  13.242  0.00  0.00    +0.000 A 
ATOM      6  N   UNL     1      45.315   6.913  12.864  0.00  0.00    +0.000 NA
ENDROOT
BRANCH   1   7
ATOM      7  C   UNL     1      43.786   5.023  12.369  0.00  0.00    +0.000 C 
BRANCH   7   8
ATOM      8  N   UNL     1      42.657   5.461  13.220  0.00  0.00    +0.000 NA
ATOM      9  H   UNL     1      42.660   6.482  13.252  0.00  0.00    +0.000 HD
ATOM     10  H   UNL     1      42.879   5.172  14.175  0.00  0.00    +0.000 HD
ENDBRANCH   7   8
BRANCH   7  11
ATOM     11  C   UNL     1      43.854   3.482  12.265  0.00  0.00    +0.000 C 
BRANCH  11  13
ATOM     12  C   UNL     1      44.379   2.836  10.071  0.00  0.00    +0.000 C 
ATOM     13  O   UNL     1      43.325   3.035  11.009  0.00  0.00    +0.000 OA
ENDBRANCH  11  13
ENDBRANCH   7  11
ENDBRANCH   1   7
BRANCH   4  14
ATOM     14  C   UNL     1      48.920   6.992  13.997  0.00  0.00    +0.000 C 
BRANCH  14  15
ATOM     15  O   UNL     1      48.946   7.314  15.391  0.00  0.00    +0.000 OA
BRANCH  15  16
ATOM     16  C   UNL     1      49.542   6.408  16.229  0.00  0.00    +0.000 A 
ATOM     17  C   UNL     1      50.893   6.362  16.554  0.00  0.00    +0.000 A 
ATOM     18  C   UNL     1      51.331   5.379  17.434  0.00  0.00    +0.000 A 
ATOM     19  N   UNL     1      50.528   4.452  17.992  0.00  0.00    +0.000 NA
ATOM     20  C   UNL     1      49.207   4.522  17.656  0.00  0.00    +0.000 A 
ATOM     21  C   UNL     1      48.679   5.470  16.791  0.00  0.00    +0.000 A 
BRANCH  20  22
ATOM     22  C   UNL     1      48.305   3.504  18.280  0.00  0.00    +0.000 C 
ATOM     23  N   UNL     1      48.511   3.261  19.611  0.00  0.00    +0.000 N 
ATOM     24  O   UNL     1      47.431   2.915  17.649  0.00  0.00    +0.000 OA
ATOM     25  H   UNL     1      49.234   3.768  20.107  0.00  0.00    +0.000 HD
ATOM     26  H   UNL     1      47.932   2.589  20.088  0.00  0.00    +0.000 HD
ENDBRANCH  20  22
ENDBRANCH  15  16
ENDBRANCH  14  15
ENDBRANCH   4  14
TORSDOF 8
ENDMDL
MODEL 9
REMARK VINA RESULT:    -5.944      3.007      8.357
REMARK INTER + INTRA:          -8.997
REMARK INTER:                  -8.550
REMARK INTRA:                  -0.447
REMARK UNBOUND:                -0.447
REMARK  Name = 
REMARK  9 active torsions:
REMARK  status: ('A' for Active; 'I' for Inactive)
REMARK    1  A    between atoms: C_1  and  O_2
REMARK    2  A    between atoms: O_2  and  C_3
REMARK    3  A    between atoms: C_3  and  C_4
REMARK    4  A    between atoms: C_4  and  N_5
REMARK    5  A    between atoms: C_4  and  C_6
REMARK    6  A    between atoms: C_9  and  C_10
REMARK    7  A    between atoms: C_10  and  O_11
REMARK    8  A    between atoms: O_11  and  C_12
REMARK    9  A    between atoms: C_16  and  C_17
REMARK                            x       y       z     vdW  Elec       q    Type
REMARK                         _______ _______ _______ _____ _____    ______ ____
ROOT
ATOM      1  C   UNL     1      45.028   4.133  12.174  0.00  0.00    +0.000 A 
ATOM      2  C   UNL     1      45.321   5.422  11.748  0.00  0.00    +0.000 A 
ATOM      3  N   UNL     1      46.256   6.206  12.340  0.00  0.00    +0.000 NA
ATOM      4  C   UNL     1      46.893   5.664  13.411  0.00  0.00    +0.000 A 
ATOM      5  C   UNL     1      46.617   4.368  13.826  0.00  0.00    +0.000 A 
ATOM      6  N   UNL     1      45.694   3.581  13.225  0.00  0.00    +0.000 NA
ENDROOT
BRANCH   1   7
ATOM      7  C   UNL     1      43.919   3.335  11.510  0.00  0.00    +0.000 C 
BRANCH   7   8
ATOM      8  N   UNL     1      43.459   2.215  12.361  0.00  0.00    +0.000 NA
ATOM      9  H   UNL     1      43.353   1.389  11.769  0.00  0.00    +0.000 HD
ATOM     10  H   UNL     1      42.508   2.443  12.659  0.00  0.00    +0.000 HD
ENDBRANCH   7   8
BRANCH   7  11
ATOM     11  C   UNL     1      44.387   2.839  10.123  0.00  0.00    +0.000 C 
BRANCH  11  13
ATOM     12  C   UNL     1      45.099   3.676   8.049  0.00  0.00    +0.000 C 
ATOM     13  O   UNL     1      44.183   3.851   9.127  0.00  0.00    +0.000 OA
ENDBRANCH  11  13
ENDBRANCH   7  11
ENDBRANCH   1   7
BRANCH   4  14
ATOM     14  C   UNL     1      47.908   6.503  14.145  0.00  0.00    +0.000 C 
BRANCH  14  15
ATOM     15  O   UNL     1      48.647   5.683  15.054  0.00  0.00    +0.000 OA
BRANCH  15  16
ATOM     16  C   UNL     1      48.739   6.114  16.351  0.00  0.00    +0.000 A 
ATOM     17  C   UNL     1      48.873   7.434  16.766  0.00  0.00    +0.000 A 
ATOM     18  C   UNL     1      48.942   7.699  18.128  0.00  0.00    +0.000 A 
ATOM     19  N   UNL     1      48.895   6.750  19.085  0.00  0.00    +0.000 NA
ATOM     20  C   UNL     1      48.762   5.465  18.650  0.00  0.00    +0.000 A 
ATOM     21  C   UNL     1      48.682   5.107  17.312  0.00  0.00    +0.000 A 
BRANCH  20  22
ATOM     22  C   UNL     1      48.698   4.406  19.705  0.00  0.00    +0.000 C 
ATOM     23  N   UNL     1      48.356   3.153  19.273  0.00  0.00    +0.000 N 
ATOM     24  O   UNL     1      48.935   4.631  20.889  0.00  0.00    +0.000 OA
ATOM     25  H   UNL     1      48.174   2.995  18.289  0.00  0.00    +0.000 HD
ATOM     26  H   UNL     1      48.300   2.397  19.935  0.00  0.00    +0.000 HD
ENDBRANCH  20  22
ENDBRANCH  15  16
ENDBRANCH  14  15
ENDBRANCH   4  14
TORSDOF 8
ENDMDL
