MODEL 1
REMARK VINA RESULT:    -7.367      0.000      0.000
REMARK INTER + INTRA:         -11.342
REMARK INTER:                 -10.382
REMARK INTRA:                  -0.960
REMARK UNBOUND:                -0.960
REMARK  Name = 
REMARK  11 active torsions:
REMARK  status: ('A' for Active; 'I' for Inactive)
REMARK    1  A    between atoms: C_1  and  N_2
REMARK    2  A    between atoms: N_2  and  C_3
REMARK    3  A    between atoms: C_3  and  C_4
REMARK    4  A    between atoms: C_7  and  C_8
REMARK    5  A    between atoms: C_8  and  C_9
REMARK    6  A    between atoms: C_8  and  C_10
REMARK    7  A    between atoms: C_8  and  C_11
REMARK    8  A    between atoms: C_11  and  N_12
REMARK    9  A    between atoms: N_12  and  C_13
REMARK   10  A    between atoms: C_16  and  C_17
REMARK   11  A    between atoms: C_17  and  C_18
REMARK                            x       y       z     vdW  Elec       q    Type
REMARK                         _______ _______ _______ _____ _____    ______ ____
ROOT
ATOM      1  C   UNL     1      43.962   4.914  12.187  0.00  0.00    +0.000 C 
ATOM      2  C   UNL     1      43.139   4.892  13.493  0.00  0.00    +0.000 C 
ATOM      3  C   UNL     1      43.261   5.803  11.136  0.00  0.00    +0.000 C 
ENDROOT
BRANCH   1   7
ATOM      4  C   UNL     1      47.945   6.613  12.961  0.00  0.00    +0.000 A 
ATOM      5  C   UNL     1      47.240   6.925  11.793  0.00  0.00    +0.000 A 
ATOM      6  C   UNL     1      45.967   6.390  11.562  0.00  0.00    +0.000 A 
ATOM      7  C   UNL     1      45.362   5.511  12.480  0.00  0.00    +0.000 A 
ATOM      8  C   UNL     1      46.085   5.211  13.648  0.00  0.00    +0.000 A 
ATOM      9  C   UNL     1      47.346   5.759  13.879  0.00  0.00    +0.000 A 
ATOM     10  F   UNL     1      47.966   5.462  15.031  0.00  0.00    +0.000 F 
BRANCH   4  11
ATOM     11  C   UNL     1      49.303   7.203  13.231  0.00  0.00    +0.000 C 
BRANCH  11  13
ATOM     12  C   UNL     1      50.907   8.511  11.973  0.00  0.00    +0.000 C 
ATOM     13  N   UNL     1      50.163   7.257  12.043  0.00  0.00    +0.000 NA
ATOM     14  H   UNL     1      50.828   6.488  12.099  0.00  0.00    +0.000 HD
ENDBRANCH  11  13
ENDBRANCH   4  11
ENDBRANCH   1   7
BRANCH   1  15
ATOM     15  C   UNL     1      44.067   3.455  11.646  0.00  0.00    +0.000 C 
BRANCH  15  16
ATOM     16  N   UNL     1      43.517   3.266  10.299  0.00  0.00    +0.000 N 
ATOM     17  H   UNL     1      42.860   3.995  10.031  0.00  0.00    +0.000 HD
BRANCH  16  18
ATOM     18  C   UNL     1      44.444   3.022   9.274  0.00  0.00    +0.000 A 
ATOM     19  C   UNL     1      44.933   4.021   8.431  0.00  0.00    +0.000 A 
ATOM     20  C   UNL     1      45.928   3.741   7.497  0.00  0.00    +0.000 A 
ATOM     21  C   UNL     1      46.437   2.453   7.441  0.00  0.00    +0.000 A 
ATOM     22  N   UNL     1      46.008   1.451   8.240  0.00  0.00    +0.000 NA
ATOM     23  C   UNL     1      45.042   1.766   9.138  0.00  0.00    +0.000 A 
BRANCH  21  24
ATOM     24  C   UNL     1      47.538   2.155   6.484  0.00  0.00    +0.000 C 
ATOM     25  C   UNL     1      47.511   2.791   5.117  0.00  0.00    +0.000 C 
ATOM     26  O   UNL     1      48.447   1.390   6.804  0.00  0.00    +0.000 OA
ENDBRANCH  21  24
ENDBRANCH  16  18
ENDBRANCH  15  16
ENDBRANCH   1  15
TORSDOF 7
ENDMDL
MODEL 2
REMARK VINA RESULT:    -7.214      3.049      6.349
REMARK INTER + INTRA:         -11.126
REMARK INTER:                 -10.185
REMARK INTRA:                  -0.941
REMARK UNBOUND:                -0.960
REMARK  Name = 
REMARK  11 active torsions:
REMARK  status: ('A' for Active; 'I' for Inactive)
REMARK    1  A    between atoms: C_1  and  N_2
REMARK    2  A    between atoms: N_2  and  C_3
REMARK    3  A    between atoms: C_3  and  C_4
REMARK    4  A    between atoms: C_7  and  C_8
REMARK    5  A    between atoms: C_8  and  C_9
REMARK    6  A    between atoms: C_8  and  C_10
REMARK    7  A    between atoms: C_8  and  C_11
REMARK    8  A    between atoms: C_11  and  N_12
REMARK    9  A    between atoms: N_12  and  C_13
REMARK   10  A    between atoms: C_16  and  C_17
REMARK   11  A    between atoms: C_17  and  C_18
REMARK                            x       y       z     vdW  Elec       q    Type
REMARK                         _______ _______ _______ _____ _____    ______ ____
ROOT
ATOM      1  C   UNL     1      43.671   5.023  12.065  0.00  0.00    +0.000 C 
ATOM      2  C   UNL     1      42.254   5.547  11.746  0.00  0.00    +0.000 C 
ATOM      3  C   UNL     1      43.592   3.895  13.118  0.00  0.00    +0.000 C 
ENDROOT
BRANCH   1   7
ATOM      4  C   UNL     1      45.462   3.439   8.374  0.00  0.00    +0.000 A 
ATOM      5  C   UNL     1      45.671   4.765   8.767  0.00  0.00    +0.000 A 
ATOM      6  C   UNL     1      45.108   5.256   9.951  0.00  0.00    +0.000 A 
ATOM      7  C   UNL     1      44.302   4.446  10.773  0.00  0.00    +0.000 A 
ATOM      8  C   UNL     1      44.104   3.117  10.362  0.00  0.00    +0.000 A 
ATOM      9  C   UNL     1      44.680   2.628   9.189  0.00  0.00    +0.000 A 
ATOM     10  F   UNL     1      44.483   1.339   8.873  0.00  0.00    +0.000 F 
BRANCH   4  11
ATOM     11  C   UNL     1      46.083   2.893   7.116  0.00  0.00    +0.000 C 
BRANCH  11  13
ATOM     12  C   UNL     1      48.292   2.103   6.515  0.00  0.00    +0.000 C 
ATOM     13  N   UNL     1      47.500   3.244   6.964  0.00  0.00    +0.000 NA
ATOM     14  H   UNL     1      47.569   3.982   6.266  0.00  0.00    +0.000 HD
ENDBRANCH  11  13
ENDBRANCH   4  11
ENDBRANCH   1   7
BRANCH   1  15
ATOM     15  C   UNL     1      44.517   6.204  12.633  0.00  0.00    +0.000 C 
BRANCH  15  16
ATOM     16  N   UNL     1      45.638   5.793  13.485  0.00  0.00    +0.000 N 
ATOM     17  H   UNL     1      45.677   4.787  13.636  0.00  0.00    +0.000 HD
BRANCH  16  18
ATOM     18  C   UNL     1      46.901   6.300  13.145  0.00  0.00    +0.000 A 
ATOM     19  C   UNL     1      47.147   7.020  11.975  0.00  0.00    +0.000 A 
ATOM     20  C   UNL     1      48.396   7.588  11.736  0.00  0.00    +0.000 A 
ATOM     21  C   UNL     1      49.382   7.441  12.699  0.00  0.00    +0.000 A 
ATOM     22  N   UNL     1      49.196   6.764  13.855  0.00  0.00    +0.000 NA
ATOM     23  C   UNL     1      47.965   6.231  14.050  0.00  0.00    +0.000 A 
BRANCH  21  24
ATOM     24  C   UNL     1      50.705   8.090  12.480  0.00  0.00    +0.000 C 
ATOM     25  C   UNL     1      51.291   8.103  11.091  0.00  0.00    +0.000 C 
ATOM     26  O   UNL     1      51.312   8.593  13.424  0.00  0.00    +0.000 OA
ENDBRANCH  21  24
ENDBRANCH  16  18
ENDBRANCH  15  16
ENDBRANCH   1  15
TORSDOF 7
ENDMDL
MODEL 3
REMARK VINA RESULT:    -7.151      3.301      6.574
REMARK INTER + INTRA:         -11.037
REMARK INTER:                  -9.966
REMARK INTRA:                  -1.071
REMARK UNBOUND:                -0.960
REMARK  Name = 
REMARK  11 active torsions:
REMARK  status: ('A' for Active; 'I' for Inactive)
REMARK    1  A    between atoms: C_1  and  N_2
REMARK    2  A    between atoms: N_2  and  C_3
REMARK    3  A    between atoms: C_3  and  C_4
REMARK    4  A    between atoms: C_7  and  C_8
REMARK    5  A    between atoms: C_8  and  C_9
REMARK    6  A    between atoms: C_8  and  C_10
REMARK    7  A    between atoms: C_8  and  C_11
REMARK    8  A    between atoms: C_11  and  N_12
REMARK    9  A    between atoms: N_12  and  C_13
REMARK   10  A    between atoms: C_16  and  C_17
REMARK   11  A    between atoms: C_17  and  C_18
REMARK                            x       y       z     vdW  Elec       q    Type
REMARK                         _______ _______ _______ _____ _____    ______ ____
ROOT
ATOM      1  C   UNL     1      43.952   4.495  12.192  0.00  0.00    +0.000 C 
ATOM      2  C   UNL     1      42.752   5.452  12.021  0.00  0.00    +0.000 C 
ATOM      3  C   UNL     1      43.488   3.183  12.864  0.00  0.00    +0.000 C 
ENDROOT
BRANCH   1   7
ATOM      4  C   UNL     1      45.588   3.580   8.213  0.00  0.00    +0.000 A 
ATOM      5  C   UNL     1      45.640   4.877   8.735  0.00  0.00    +0.000 A 
ATOM      6  C   UNL     1      45.129   5.156  10.008  0.00  0.00    +0.000 A 
ATOM      7  C   UNL     1      44.531   4.154  10.796  0.00  0.00    +0.000 A 
ATOM      8  C   UNL     1      44.490   2.857  10.255  0.00  0.00    +0.000 A 
ATOM      9  C   UNL     1      45.014   2.582   8.993  0.00  0.00    +0.000 A 
ATOM     10  F   UNL     1      44.978   1.316   8.550  0.00  0.00    +0.000 F 
BRANCH   4  11
ATOM     11  C   UNL     1      46.158   3.265   6.856  0.00  0.00    +0.000 C 
BRANCH  11  13
ATOM     12  C   UNL     1      47.992   1.683   6.890  0.00  0.00    +0.000 C 
ATOM     13  N   UNL     1      47.615   3.093   6.859  0.00  0.00    +0.000 NA
ATOM     14  H   UNL     1      47.984   3.509   6.006  0.00  0.00    +0.000 HD
ENDBRANCH  11  13
ENDBRANCH   4  11
ENDBRANCH   1   7
BRANCH   1  15
ATOM     15  C   UNL     1      45.014   5.193  13.094  0.00  0.00    +0.000 C 
BRANCH  15  16
ATOM     16  N   UNL     1      44.844   6.645  13.221  0.00  0.00    +0.000 N 
ATOM     17  H   UNL     1      44.479   6.926  14.129  0.00  0.00    +0.000 HD
BRANCH  16  18
ATOM     18  C   UNL     1      45.941   7.438  12.853  0.00  0.00    +0.000 A 
ATOM     19  C   UNL     1      47.141   6.910  12.374  0.00  0.00    +0.000 A 
ATOM     20  C   UNL     1      48.160   7.748  11.926  0.00  0.00    +0.000 A 
ATOM     21  C   UNL     1      47.945   9.117  11.946  0.00  0.00    +0.000 A 
ATOM     22  N   UNL     1      46.799   9.682  12.389  0.00  0.00    +0.000 NA
ATOM     23  C   UNL     1      45.832   8.832  12.812  0.00  0.00    +0.000 A 
BRANCH  21  24
ATOM     24  C   UNL     1      49.006  10.020  11.420  0.00  0.00    +0.000 C 
ATOM     25  C   UNL     1      48.602  11.260  10.662  0.00  0.00    +0.000 C 
ATOM     26  O   UNL     1      50.193   9.746  11.591  0.00  0.00    +0.000 OA
ENDBRANCH  21  24
ENDBRANCH  16  18
ENDBRANCH  15  16
ENDBRANCH   1  15
TORSDOF 7
ENDMDL
MODEL 4
REMARK VINA RESULT:    -6.900      4.091      7.564
REMARK INTER + INTRA:         -10.684
REMARK INTER:                  -9.989
REMARK INTRA:                  -0.695
REMARK UNBOUND:                -0.960
REMARK  Name = 
REMARK  11 active torsions:
REMARK  status: ('A' for Active; 'I' for Inactive)
REMARK    1  A    between atoms: C_1  and  N_2
REMARK    2  A    between atoms: N_2  and  C_3
REMARK    3  A    between atoms: C_3  and  C_4
REMARK    4  A    between atoms: C_7  and  C_8
REMARK    5  A    between atoms: C_8  and  C_9
REMARK    6  A    between atoms: C_8  and  C_10
REMARK    7  A    between atoms: C_8  and  C_11
REMARK    8  A    between atoms: C_11  and  N_12
REMARK    9  A    between atoms: N_12  and  C_13
REMARK   10  A    between atoms: C_16  and  C_17
REMARK   11  A    between atoms: C_17  and  C_18
REMARK                            x       y       z     vdW  Elec       q    Type
REMARK                         _______ _______ _______ _____ _____    ______ ____
ROOT
ATOM      1  C   UNL     1      44.706   5.234  12.488  0.00  0.00    +0.000 C 
ATOM      2  C   UNL     1      44.789   6.776  12.481  0.00  0.00    +0.000 C 
ATOM      3  C   UNL     1      43.289   4.784  12.909  0.00  0.00    +0.000 C 
ENDROOT
BRANCH   1   7
ATOM      4  C   UNL     1      45.497   3.788   8.410  0.00  0.00    +0.000 A 
ATOM      5  C   UNL     1      45.909   5.061   8.818  0.00  0.00    +0.000 A 
ATOM      6  C   UNL     1      45.665   5.507  10.122  0.00  0.00    +0.000 A 
ATOM      7  C   UNL     1      44.984   4.705  11.058  0.00  0.00    +0.000 A 
ATOM      8  C   UNL     1      44.580   3.429  10.630  0.00  0.00    +0.000 A 
ATOM      9  C   UNL     1      44.839   2.984   9.335  0.00  0.00    +0.000 A 
ATOM     10  F   UNL     1      44.460   1.741   9.001  0.00  0.00    +0.000 F 
BRANCH   4  11
ATOM     11  C   UNL     1      45.777   3.288   7.018  0.00  0.00    +0.000 C 
BRANCH  11  13
ATOM     12  C   UNL     1      47.890   2.114   6.868  0.00  0.00    +0.000 C 
ATOM     13  N   UNL     1      47.192   3.376   6.639  0.00  0.00    +0.000 NA
ATOM     14  H   UNL     1      47.240   3.598   5.647  0.00  0.00    +0.000 HD
ENDBRANCH  11  13
ENDBRANCH   4  11
ENDBRANCH   1   7
BRANCH   1  15
ATOM     15  C   UNL     1      45.749   4.688  13.510  0.00  0.00    +0.000 C 
BRANCH  15  16
ATOM     16  N   UNL     1      46.600   5.717  14.117  0.00  0.00    +0.000 N 
ATOM     17  H   UNL     1      46.091   6.564  14.362  0.00  0.00    +0.000 HD
BRANCH  16  18
ATOM     18  C   UNL     1      47.424   5.303  15.175  0.00  0.00    +0.000 A 
ATOM     19  C   UNL     1      47.276   4.078  15.826  0.00  0.00    +0.000 A 
ATOM     20  C   UNL     1      48.186   3.674  16.800  0.00  0.00    +0.000 A 
ATOM     21  C   UNL     1      49.254   4.507  17.091  0.00  0.00    +0.000 A 
ATOM     22  N   UNL     1      49.452   5.699  16.485  0.00  0.00    +0.000 NA
ATOM     23  C   UNL     1      48.547   6.053  15.540  0.00  0.00    +0.000 A 
BRANCH  21  24
ATOM     24  C   UNL     1      50.263   4.062  18.093  0.00  0.00    +0.000 C 
ATOM     25  C   UNL     1      51.269   3.010  17.700  0.00  0.00    +0.000 C 
ATOM     26  O   UNL     1      50.261   4.538  19.227  0.00  0.00    +0.000 OA
ENDBRANCH  21  24
ENDBRANCH  16  18
ENDBRANCH  15  16
ENDBRANCH   1  15
TORSDOF 7
ENDMDL
MODEL 5
REMARK VINA RESULT:    -6.659      2.143      2.676
REMARK INTER + INTRA:         -10.344
REMARK INTER:                  -9.939
REMARK INTRA:                  -0.405
REMARK UNBOUND:                -0.960
REMARK  Name = 
REMARK  11 active torsions:
REMARK  status: ('A' for Active; 'I' for Inactive)
REMARK    1  A    between atoms: C_1  and  N_2
REMARK    2  A    between atoms: N_2  and  C_3
REMARK    3  A    between atoms: C_3  and  C_4
REMARK    4  A    between atoms: C_7  and  C_8
REMARK    5  A    between atoms: C_8  and  C_9
REMARK    6  A    between atoms: C_8  and  C_10
REMARK    7  A    between atoms: C_8  and  C_11
REMARK    8  A    between atoms: C_11  and  N_12
REMARK    9  A    between atoms: N_12  and  C_13
REMARK   10  A    between atoms: C_16  and  C_17
REMARK   11  A    between atoms: C_17  and  C_18
REMARK                            x       y       z     vdW  Elec       q    Type
REMARK                         _______ _______ _______ _____ _____    ______ ____
ROOT
ATOM      1  C   UNL     1      45.463   5.378  12.490  0.00  0.00    +0.000 C 
ATOM      2  C   UNL     1      44.129   6.014  12.938  0.00  0.00    +0.000 C 
ATOM      3  C   UNL     1      46.085   6.208  11.345  0.00  0.00    +0.000 C 
ENDROOT
BRANCH   1   7
ATOM      4  C   UNL     1      48.301   5.399  15.851  0.00  0.00    +0.000 A 
ATOM      5  C   UNL     1      48.315   6.413  14.887  0.00  0.00    +0.000 A 
ATOM      6  C   UNL     1      47.398   6.405  13.829  0.00  0.00    +0.000 A 
ATOM      7  C   UNL     1      46.450   5.375  13.685  0.00  0.00    +0.000 A 
ATOM      8  C   UNL     1      46.451   4.366  14.664  0.00  0.00    +0.000 A 
ATOM      9  C   UNL     1      47.356   4.387  15.724  0.00  0.00    +0.000 A 
ATOM     10  F   UNL     1      47.279   3.414  16.645  0.00  0.00    +0.000 F 
BRANCH   4  11
ATOM     11  C   UNL     1      49.265   5.411  17.007  0.00  0.00    +0.000 C 
BRANCH  11  13
ATOM     12  C   UNL     1      50.950   4.175  18.232  0.00  0.00    +0.000 C 
ATOM     13  N   UNL     1      50.247   4.321  16.961  0.00  0.00    +0.000 NA
ATOM     14  H   UNL     1      49.749   3.455  16.764  0.00  0.00    +0.000 HD
ENDBRANCH  11  13
ENDBRANCH   4  11
ENDBRANCH   1   7
BRANCH   1  15
ATOM     15  C   UNL     1      45.175   3.931  11.986  0.00  0.00    +0.000 C 
BRANCH  15  16
ATOM     16  N   UNL     1      44.360   3.864  10.768  0.00  0.00    +0.000 N 
ATOM     17  H   UNL     1      43.797   4.698  10.618  0.00  0.00    +0.000 HD
BRANCH  16  18
ATOM     18  C   UNL     1      45.024   3.487   9.591  0.00  0.00    +0.000 A 
ATOM     19  C   UNL     1      45.527   4.406   8.669  0.00  0.00    +0.000 A 
ATOM     20  C   UNL     1      46.268   3.979   7.569  0.00  0.00    +0.000 A 
ATOM     21  C   UNL     1      46.513   2.623   7.425  0.00  0.00    +0.000 A 
ATOM     22  N   UNL     1      46.059   1.691   8.293  0.00  0.00    +0.000 NA
ATOM     23  C   UNL     1      45.346   2.148   9.351  0.00  0.00    +0.000 A 
BRANCH  21  24
ATOM     24  C   UNL     1      47.349   2.160   6.282  0.00  0.00    +0.000 C 
ATOM     25  C   UNL     1      47.048   2.677   4.898  0.00  0.00    +0.000 C 
ATOM     26  O   UNL     1      48.261   1.356   6.468  0.00  0.00    +0.000 OA
ENDBRANCH  21  24
ENDBRANCH  16  18
ENDBRANCH  15  16
ENDBRANCH   1  15
TORSDOF 7
ENDMDL
MODEL 6
REMARK VINA RESULT:    -6.634      3.355      7.018
REMARK INTER + INTRA:         -10.308
REMARK INTER:                  -9.477
REMARK INTRA:                  -0.832
REMARK UNBOUND:                -0.960
REMARK  Name = 
REMARK  11 active torsions:
REMARK  status: ('A' for Active; 'I' for Inactive)
REMARK    1  A    between atoms: C_1  and  N_2
REMARK    2  A    between atoms: N_2  and  C_3
REMARK    3  A    between atoms: C_3  and  C_4
REMARK    4  A    between atoms: C_7  and  C_8
REMARK    5  A    between atoms: C_8  and  C_9
REMARK    6  A    between atoms: C_8  and  C_10
REMARK    7  A    between atoms: C_8  and  C_11
REMARK    8  A    between atoms: C_11  and  N_12
REMARK    9  A    between atoms: N_12  and  C_13
REMARK   10  A    between atoms: C_16  and  C_17
REMARK   11  A    between atoms: C_17  and  C_18
REMARK                            x       y       z     vdW  Elec       q    Type
REMARK                         _______ _______ _______ _____ _____    ______ ____
ROOT
ATOM      1  C   UNL     1      43.908   5.506  11.800  0.00  0.00    +0.000 C 
ATOM      2  C   UNL     1      44.454   6.951  11.778  0.00  0.00    +0.000 C 
ATOM      3  C   UNL     1      42.367   5.523  11.699  0.00  0.00    +0.000 C 
ENDROOT
BRANCH   1   7
ATOM      4  C   UNL     1      45.496   3.261   8.367  0.00  0.00    +0.000 A 
ATOM      5  C   UNL     1      44.497   2.721   9.184  0.00  0.00    +0.000 A 
ATOM      6  C   UNL     1      43.988   3.449  10.266  0.00  0.00    +0.000 A 
ATOM      7  C   UNL     1      44.472   4.733  10.582  0.00  0.00    +0.000 A 
ATOM      8  C   UNL     1      45.475   5.259   9.748  0.00  0.00    +0.000 A 
ATOM      9  C   UNL     1      45.967   4.536   8.663  0.00  0.00    +0.000 A 
ATOM     10  F   UNL     1      46.896   5.110   7.884  0.00  0.00    +0.000 F 
BRANCH   4  11
ATOM     11  C   UNL     1      46.032   2.498   7.186  0.00  0.00    +0.000 C 
BRANCH  11  13
ATOM     12  C   UNL     1      46.796   0.246   7.648  0.00  0.00    +0.000 C 
ATOM     13  N   UNL     1      47.182   1.647   7.513  0.00  0.00    +0.000 NA
ATOM     14  H   UNL     1      47.859   1.726   6.756  0.00  0.00    +0.000 HD
ENDBRANCH  11  13
ENDBRANCH   4  11
ENDBRANCH   1   7
BRANCH   1  15
ATOM     15  C   UNL     1      44.333   4.839  13.144  0.00  0.00    +0.000 C 
BRANCH  15  16
ATOM     16  N   UNL     1      45.623   4.143  13.095  0.00  0.00    +0.000 N 
ATOM     17  H   UNL     1      45.916   3.911  12.148  0.00  0.00    +0.000 HD
BRANCH  16  18
ATOM     18  C   UNL     1      46.676   4.725  13.819  0.00  0.00    +0.000 A 
ATOM     19  C   UNL     1      47.303   5.911  13.436  0.00  0.00    +0.000 A 
ATOM     20  C   UNL     1      48.273   6.498  14.246  0.00  0.00    +0.000 A 
ATOM     21  C   UNL     1      48.583   5.888  15.451  0.00  0.00    +0.000 A 
ATOM     22  N   UNL     1      47.999   4.744  15.876  0.00  0.00    +0.000 NA
ATOM     23  C   UNL     1      47.059   4.208  15.060  0.00  0.00    +0.000 A 
BRANCH  21  24
ATOM     24  C   UNL     1      49.579   6.534  16.350  0.00  0.00    +0.000 C 
ATOM     25  C   UNL     1      49.235   7.853  16.995  0.00  0.00    +0.000 C 
ATOM     26  O   UNL     1      50.671   6.003  16.549  0.00  0.00    +0.000 OA
ENDBRANCH  21  24
ENDBRANCH  16  18
ENDBRANCH  15  16
ENDBRANCH   1  15
TORSDOF 7
ENDMDL
MODEL 7
REMARK VINA RESULT:    -6.103      5.136      6.818
REMARK INTER + INTRA:          -9.561
REMARK INTER:                  -8.977
REMARK INTRA:                  -0.584
REMARK UNBOUND:                -0.960
REMARK  Name = 
REMARK  11 active torsions:
REMARK  status: ('A' for Active; 'I' for Inactive)
REMARK    1  A    between atoms: C_1  and  N_2
REMARK    2  A    between atoms: N_2  and  C_3
REMARK    3  A    between atoms: C_3  and  C_4
REMARK    4  A    between atoms: C_7  and  C_8
REMARK    5  A    between atoms: C_8  and  C_9
REMARK    6  A    between atoms: C_8  and  C_10
REMARK    7  A    between atoms: C_8  and  C_11
REMARK    8  A    between atoms: C_11  and  N_12
REMARK    9  A    between atoms: N_12  and  C_13
REMARK   10  A    between atoms: C_16  and  C_17
REMARK   11  A    between atoms: C_17  and  C_18
REMARK                            x       y       z     vdW  Elec       q    Type
REMARK                         _______ _______ _______ _____ _____    ______ ____
ROOT
ATOM      1  C   UNL     1      48.530   5.110  17.059  0.00  0.00    +0.000 C 
ATOM      2  C   UNL     1      47.704   5.190  18.361  0.00  0.00    +0.000 C 
ATOM      3  C   UNL     1      49.061   6.511  16.684  0.00  0.00    +0.000 C 
ENDROOT
BRANCH   1   7
ATOM      4  C   UNL     1      51.931   2.398  17.713  0.00  0.00    +0.000 A 
ATOM      5  C   UNL     1      50.667   1.904  17.375  0.00  0.00    +0.000 A 
ATOM      6  C   UNL     1      49.594   2.775  17.154  0.00  0.00    +0.000 A 
ATOM      7  C   UNL     1      49.741   4.169  17.284  0.00  0.00    +0.000 A 
ATOM      8  C   UNL     1      51.019   4.647  17.624  0.00  0.00    +0.000 A 
ATOM      9  C   UNL     1      52.087   3.775  17.827  0.00  0.00    +0.000 A 
ATOM     10  F   UNL     1      53.290   4.298  18.111  0.00  0.00    +0.000 F 
BRANCH   4  11
ATOM     11  C   UNL     1      53.098   1.472  17.927  0.00  0.00    +0.000 C 
BRANCH  11  13
ATOM     12  C   UNL     1      53.848  -0.771  18.452  0.00  0.00    +0.000 C 
ATOM     13  N   UNL     1      52.705   0.069  18.108  0.00  0.00    +0.000 NA
ATOM     14  H   UNL     1      52.030   0.026  18.869  0.00  0.00    +0.000 HD
ENDBRANCH  11  13
ENDBRANCH   4  11
ENDBRANCH   1   7
BRANCH   1  15
ATOM     15  C   UNL     1      47.605   4.583  15.920  0.00  0.00    +0.000 C 
BRANCH  15  16
ATOM     16  N   UNL     1      47.382   5.539  14.829  0.00  0.00    +0.000 N 
ATOM     17  H   UNL     1      48.245   5.935  14.463  0.00  0.00    +0.000 HD
BRANCH  16  18
ATOM     18  C   UNL     1      46.543   5.114  13.787  0.00  0.00    +0.000 A 
ATOM     19  C   UNL     1      46.035   5.976  12.814  0.00  0.00    +0.000 A 
ATOM     20  C   UNL     1      45.291   5.484  11.745  0.00  0.00    +0.000 A 
ATOM     21  C   UNL     1      45.085   4.116  11.658  0.00  0.00    +0.000 A 
ATOM     22  N   UNL     1      45.562   3.235  12.566  0.00  0.00    +0.000 NA
ATOM     23  C   UNL     1      46.285   3.754  13.588  0.00  0.00    +0.000 A 
BRANCH  21  24
ATOM     24  C   UNL     1      44.337   3.573  10.490  0.00  0.00    +0.000 C 
ATOM     25  C   UNL     1      44.696   4.049   9.105  0.00  0.00    +0.000 C 
ATOM     26  O   UNL     1      43.430   2.760  10.660  0.00  0.00    +0.000 OA
ENDBRANCH  21  24
ENDBRANCH  16  18
ENDBRANCH  15  16
ENDBRANCH   1  15
TORSDOF 7
ENDMDL
MODEL 8
REMARK VINA RESULT:    -5.954      3.492      7.442
REMARK INTER + INTRA:          -9.350
REMARK INTER:                  -8.498
REMARK INTRA:                  -0.852
REMARK UNBOUND:                -0.960
REMARK  Name = 
REMARK  11 active torsions:
REMARK  status: ('A' for Active; 'I' for Inactive)
REMARK    1  A    between atoms: C_1  and  N_2
REMARK    2  A    between atoms: N_2  and  C_3
REMARK    3  A    between atoms: C_3  and  C_4
REMARK    4  A    between atoms: C_7  and  C_8
REMARK    5  A    between atoms: C_8  and  C_9
REMARK    6  A    between atoms: C_8  and  C_10
REMARK    7  A    between atoms: C_8  and  C_11
REMARK    8  A    between atoms: C_11  and  N_12
REMARK    9  A    between atoms: N_12  and  C_13
REMARK   10  A    between atoms: C_16  and  C_17
REMARK   11  A    between atoms: C_17  and  C_18
REMARK                            x       y       z     vdW  Elec       q    Type
REMARK                         _______ _______ _______ _____ _____    ______ ____
ROOT
ATOM      1  C   UNL     1      47.064   8.631  12.391  0.00  0.00    +0.000 C 
ATOM      2  C   UNL     1      48.423   8.517  11.667  0.00  0.00    +0.000 C 
ATOM      3  C   UNL     1      46.329   9.911  11.935  0.00  0.00    +0.000 C 
ENDROOT
BRANCH   1   7
ATOM      4  C   UNL     1      44.597   5.159  11.291  0.00  0.00    +0.000 A 
ATOM      5  C   UNL     1      45.713   5.522  10.531  0.00  0.00    +0.000 A 
ATOM      6  C   UNL     1      46.501   6.621  10.897  0.00  0.00    +0.000 A 
ATOM      7  C   UNL     1      46.189   7.406  12.023  0.00  0.00    +0.000 A 
ATOM      8  C   UNL     1      45.065   7.024  12.775  0.00  0.00    +0.000 A 
ATOM      9  C   UNL     1      44.293   5.920  12.415  0.00  0.00    +0.000 A 
ATOM     10  F   UNL     1      43.255   5.587  13.197  0.00  0.00    +0.000 F 
BRANCH   4  11
ATOM     11  C   UNL     1      43.758   3.965  10.921  0.00  0.00    +0.000 C 
BRANCH  11  13
ATOM     12  C   UNL     1      44.518   2.337   9.297  0.00  0.00    +0.000 C 
ATOM     13  N   UNL     1      43.838   3.613   9.499  0.00  0.00    +0.000 NA
ATOM     14  H   UNL     1      42.889   3.536   9.139  0.00  0.00    +0.000 HD
ENDBRANCH  11  13
ENDBRANCH   4  11
ENDBRANCH   1   7
BRANCH   1  15
ATOM     15  C   UNL     1      47.327   8.701  13.926  0.00  0.00    +0.000 C 
BRANCH  15  16
ATOM     16  N   UNL     1      48.602   8.114  14.351  0.00  0.00    +0.000 N 
ATOM     17  H   UNL     1      49.221   8.786  14.802  0.00  0.00    +0.000 HD
BRANCH  16  18
ATOM     18  C   UNL     1      48.527   6.924  15.092  0.00  0.00    +0.000 A 
ATOM     19  C   UNL     1      48.916   6.830  16.429  0.00  0.00    +0.000 A 
ATOM     20  C   UNL     1      48.724   5.651  17.145  0.00  0.00    +0.000 A 
ATOM     21  C   UNL     1      48.117   4.581  16.505  0.00  0.00    +0.000 A 
ATOM     22  N   UNL     1      47.711   4.622  15.216  0.00  0.00    +0.000 NA
ATOM     23  C   UNL     1      47.913   5.789  14.556  0.00  0.00    +0.000 A 
BRANCH  21  24
ATOM     24  C   UNL     1      47.858   3.334  17.276  0.00  0.00    +0.000 C 
ATOM     25  C   UNL     1      49.029   2.546  17.808  0.00  0.00    +0.000 C 
ATOM     26  O   UNL     1      46.704   2.948  17.461  0.00  0.00    +0.000 OA
ENDBRANCH  21  24
ENDBRANCH  16  18
ENDBRANCH  15  16
ENDBRANCH   1  15
TORSDOF 7
ENDMDL
MODEL 9
REMARK VINA RESULT:    -5.672      3.859      5.953
REMARK INTER + INTRA:          -8.953
REMARK INTER:                  -8.228
REMARK INTRA:                  -0.725
REMARK UNBOUND:                -0.960
REMARK  Name = 
REMARK  11 active torsions:
REMARK  status: ('A' for Active; 'I' for Inactive)
REMARK    1  A    between atoms: C_1  and  N_2
REMARK    2  A    between atoms: N_2  and  C_3
REMARK    3  A    between atoms: C_3  and  C_4
REMARK    4  A    between atoms: C_7  and  C_8
REMARK    5  A    between atoms: C_8  and  C_9
REMARK    6  A    between atoms: C_8  and  C_10
REMARK    7  A    between atoms: C_8  and  C_11
REMARK    8  A    between atoms: C_11  and  N_12
REMARK    9  A    between atoms: N_12  and  C_13
REMARK   10  A    between atoms: C_16  and  C_17
REMARK   11  A    between atoms: C_17  and  C_18
REMARK                            x       y       z     vdW  Elec       q    Type
REMARK                         _______ _______ _______ _____ _____    ______ ____
ROOT
ATOM      1  C   UNL     1      49.207   7.683  14.499  0.00  0.00    +0.000 C 
ATOM      2  C   UNL     1      48.291   8.767  15.107  0.00  0.00    +0.000 C 
ATOM      3  C   UNL     1      50.381   8.347  13.744  0.00  0.00    +0.000 C 
ENDROOT
BRANCH   1   7
ATOM      4  C   UNL     1      50.906   5.206  17.712  0.00  0.00    +0.000 A 
ATOM      5  C   UNL     1      51.711   6.071  16.963  0.00  0.00    +0.000 A 
ATOM      6  C   UNL     1      51.159   6.866  15.952  0.00  0.00    +0.000 A 
ATOM      7  C   UNL     1      49.787   6.811  15.640  0.00  0.00    +0.000 A 
ATOM      8  C   UNL     1      48.994   5.937  16.404  0.00  0.00    +0.000 A 
ATOM      9  C   UNL     1      49.547   5.159  17.420  0.00  0.00    +0.000 A 
ATOM     10  F   UNL     1      48.729   4.374  18.137  0.00  0.00    +0.000 F 
BRANCH   4  11
ATOM     11  C   UNL     1      51.485   4.366  18.818  0.00  0.00    +0.000 C 
BRANCH  11  13
ATOM     12  C   UNL     1      53.049   2.695  18.025  0.00  0.00    +0.000 C 
ATOM     13  N   UNL     1      51.676   2.960  18.446  0.00  0.00    +0.000 NA
ATOM     14  H   UNL     1      51.470   2.386  19.261  0.00  0.00    +0.000 HD
ENDBRANCH  11  13
ENDBRANCH   4  11
ENDBRANCH   1   7
BRANCH   1  15
ATOM     15  C   UNL     1      48.366   6.830  13.501  0.00  0.00    +0.000 C 
BRANCH  15  16
ATOM     16  N   UNL     1      46.915   6.919  13.699  0.00  0.00    +0.000 N 
ATOM     17  H   UNL     1      46.556   7.867  13.605  0.00  0.00    +0.000 HD
BRANCH  16  18
ATOM     18  C   UNL     1      46.128   6.009  12.977  0.00  0.00    +0.000 A 
ATOM     19  C   UNL     1      45.838   6.158  11.620  0.00  0.00    +0.000 A 
ATOM     20  C   UNL     1      45.138   5.172  10.928  0.00  0.00    +0.000 A 
ATOM     21  C   UNL     1      44.756   4.030  11.615  0.00  0.00    +0.000 A 
ATOM     22  N   UNL     1      45.020   3.829  12.925  0.00  0.00    +0.000 NA
ATOM     23  C   UNL     1      45.706   4.811  13.560  0.00  0.00    +0.000 A 
BRANCH  21  24
ATOM     24  C   UNL     1      44.054   2.945  10.873  0.00  0.00    +0.000 C 
ATOM     25  C   UNL     1      44.572   2.532   9.519  0.00  0.00    +0.000 C 
ATOM     26  O   UNL     1      43.059   2.408  11.357  0.00  0.00    +0.000 OA
ENDBRANCH  21  24
ENDBRANCH  16  18
ENDBRANCH  15  16
ENDBRANCH   1  15
TORSDOF 7
ENDMDL
