MODEL 1
REMARK VINA RESULT:    -7.688      0.000      0.000
REMARK INTER + INTRA:         -10.113
REMARK INTER:                  -9.486
REMARK INTRA:                  -0.627
REMARK UNBOUND:                -0.627
REMARK  Name = 
REMARK  4 active torsions:
REMARK  status: ('A' for Active; 'I' for Inactive)
REMARK    1  A    between atoms: C_2  and  C_4
REMARK    2  A    between atoms: C_7  and  C_8
REMARK    3  A    between atoms: C_8  and  O_9
REMARK    4  A    between atoms: O_9  and  C_10
REMARK                            x       y       z     vdW  Elec       q    Type
REMARK                         _______ _______ _______ _____ _____    ______ ____
ROOT
ATOM      1  C   UNL     1      46.431   2.476   7.727  0.00  0.00    +0.000 A 
ATOM      2  C   UNL     1      46.261   3.864   7.651  0.00  0.00    +0.000 A 
ATOM      3  C   UNL     1      45.367   4.505   8.512  0.00  0.00    +0.000 A 
ATOM      4  C   UNL     1      44.641   3.772   9.461  0.00  0.00    +0.000 A 
ATOM      5  C   UNL     1      44.793   2.379   9.507  0.00  0.00    +0.000 A 
ATOM      6  C   UNL     1      45.681   1.734   8.645  0.00  0.00    +0.000 A 
ENDROOT
BRANCH   1   8
ATOM      7  N   UNL     1      48.488   2.460   6.437  0.00  0.00    +0.000 N 
ATOM      8  C   UNL     1      47.387   1.757   6.847  0.00  0.00    +0.000 C 
ATOM      9  O   UNL     1      47.232   0.588   6.538  0.00  0.00    +0.000 OA
ATOM     10  H   UNL     1      49.195   1.935   5.940  0.00  0.00    +0.000 HD
ATOM     11  H   UNL     1      48.770   3.321   6.885  0.00  0.00    +0.000 HD
ENDBRANCH   1   8
BRANCH   4  12
ATOM     12  C   UNL     1      43.709   4.455  10.432  0.00  0.00    +0.000 C 
BRANCH  12  13
ATOM     13  O   UNL     1      44.272   5.689  10.872  0.00  0.00    +0.000 OA
BRANCH  13  14
ATOM     14  C   UNL     1      45.219   5.592  11.861  0.00  0.00    +0.000 A 
ATOM     15  C   UNL     1      45.120   4.788  13.001  0.00  0.00    +0.000 A 
ATOM     16  C   UNL     1      46.172   4.734  13.918  0.00  0.00    +0.000 A 
ATOM     17  C   UNL     1      47.328   5.479  13.703  0.00  0.00    +0.000 A 
ATOM     18  C   UNL     1      47.431   6.290  12.575  0.00  0.00    +0.000 A 
ATOM     19  C   UNL     1      46.377   6.348  11.661  0.00  0.00    +0.000 A 
ENDBRANCH  13  14
ENDBRANCH  12  13
ENDBRANCH   4  12
TORSDOF 4
ENDMDL
MODEL 2
REMARK VINA RESULT:    -7.401      2.852      6.019
REMARK INTER + INTRA:          -9.759
REMARK INTER:                  -9.283
REMARK INTRA:                  -0.476
REMARK UNBOUND:                -0.627
REMARK  Name = 
REMARK  4 active torsions:
REMARK  status: ('A' for Active; 'I' for Inactive)
REMARK    1  A    between atoms: C_2  and  C_4
REMARK    2  A    between atoms: C_7  and  C_8
REMARK    3  A    between atoms: C_8  and  O_9
REMARK    4  A    between atoms: O_9  and  C_10
REMARK                            x       y       z     vdW  Elec       q    Type
REMARK                         _______ _______ _______ _____ _____    ______ ____
ROOT
ATOM      1  C   UNL     1      46.378   4.901  13.092  0.00  0.00    +0.000 A 
ATOM      2  C   UNL     1      45.658   3.715  12.900  0.00  0.00    +0.000 A 
ATOM      3  C   UNL     1      44.939   3.521  11.719  0.00  0.00    +0.000 A 
ATOM      4  C   UNL     1      44.938   4.500  10.715  0.00  0.00    +0.000 A 
ATOM      5  C   UNL     1      45.635   5.697  10.932  0.00  0.00    +0.000 A 
ATOM      6  C   UNL     1      46.350   5.898  12.113  0.00  0.00    +0.000 A 
ENDROOT
BRANCH   1   8
ATOM      7  N   UNL     1      46.740   4.515  15.462  0.00  0.00    +0.000 N 
ATOM      8  C   UNL     1      47.174   5.140  14.324  0.00  0.00    +0.000 C 
ATOM      9  O   UNL     1      48.188   5.817  14.320  0.00  0.00    +0.000 OA
ATOM     10  H   UNL     1      47.349   4.581  16.268  0.00  0.00    +0.000 HD
ATOM     11  H   UNL     1      46.077   3.754  15.436  0.00  0.00    +0.000 HD
ENDBRANCH   1   8
BRANCH   4  12
ATOM     12  C   UNL     1      44.208   4.284   9.412  0.00  0.00    +0.000 C 
BRANCH  12  13
ATOM     13  O   UNL     1      45.097   4.463   8.311  0.00  0.00    +0.000 OA
BRANCH  13  14
ATOM     14  C   UNL     1      45.835   3.361   7.958  0.00  0.00    +0.000 A 
ATOM     15  C   UNL     1      45.635   2.064   8.439  0.00  0.00    +0.000 A 
ATOM     16  C   UNL     1      46.423   1.009   7.969  0.00  0.00    +0.000 A 
ATOM     17  C   UNL     1      47.411   1.243   7.016  0.00  0.00    +0.000 A 
ATOM     18  C   UNL     1      47.623   2.534   6.539  0.00  0.00    +0.000 A 
ATOM     19  C   UNL     1      46.840   3.589   7.013  0.00  0.00    +0.000 A 
ENDBRANCH  13  14
ENDBRANCH  12  13
ENDBRANCH   4  12
TORSDOF 4
ENDMDL
MODEL 3
REMARK VINA RESULT:    -6.327      3.096      6.398
REMARK INTER + INTRA:          -8.434
REMARK INTER:                  -7.943
REMARK INTRA:                  -0.491
REMARK UNBOUND:                -0.627
REMARK  Name = 
REMARK  4 active torsions:
REMARK  status: ('A' for Active; 'I' for Inactive)
REMARK    1  A    between atoms: C_2  and  C_4
REMARK    2  A    between atoms: C_7  and  C_8
REMARK    3  A    between atoms: C_8  and  O_9
REMARK    4  A    between atoms: O_9  and  C_10
REMARK                            x       y       z     vdW  Elec       q    Type
REMARK                         _______ _______ _______ _____ _____    ______ ____
ROOT
ATOM      1  C   UNL     1      45.872   7.669  12.112  0.00  0.00    +0.000 A 
ATOM      2  C   UNL     1      44.485   7.543  11.961  0.00  0.00    +0.000 A 
ATOM      3  C   UNL     1      43.950   6.396  11.370  0.00  0.00    +0.000 A 
ATOM      4  C   UNL     1      44.790   5.362  10.932  0.00  0.00    +0.000 A 
ATOM      5  C   UNL     1      46.178   5.513  11.057  0.00  0.00    +0.000 A 
ATOM      6  C   UNL     1      46.717   6.660  11.642  0.00  0.00    +0.000 A 
ENDROOT
BRANCH   1   8
ATOM      7  N   UNL     1      46.747   8.766  14.094  0.00  0.00    +0.000 N 
ATOM      8  C   UNL     1      46.481   8.862  12.755  0.00  0.00    +0.000 C 
ATOM      9  O   UNL     1      46.776   9.861  12.121  0.00  0.00    +0.000 OA
ATOM     10  H   UNL     1      47.270   9.529  14.502  0.00  0.00    +0.000 HD
ATOM     11  H   UNL     1      46.760   7.877  14.575  0.00  0.00    +0.000 HD
ENDBRANCH   1   8
BRANCH   4  12
ATOM     12  C   UNL     1      44.225   4.095  10.338  0.00  0.00    +0.000 C 
BRANCH  12  13
ATOM     13  O   UNL     1      44.258   4.158   8.914  0.00  0.00    +0.000 OA
BRANCH  13  14
ATOM     14  C   UNL     1      45.226   3.398   8.307  0.00  0.00    +0.000 A 
ATOM     15  C   UNL     1      46.175   3.871   7.396  0.00  0.00    +0.000 A 
ATOM     16  C   UNL     1      47.145   3.009   6.878  0.00  0.00    +0.000 A 
ATOM     17  C   UNL     1      47.175   1.672   7.269  0.00  0.00    +0.000 A 
ATOM     18  C   UNL     1      46.228   1.191   8.169  0.00  0.00    +0.000 A 
ATOM     19  C   UNL     1      45.254   2.052   8.682  0.00  0.00    +0.000 A 
ENDBRANCH  13  14
ENDBRANCH  12  13
ENDBRANCH   4  12
TORSDOF 4
ENDMDL
MODEL 4
REMARK VINA RESULT:    -5.361      5.518      8.029
REMARK INTER + INTRA:          -7.241
REMARK INTER:                  -6.779
REMARK INTRA:                  -0.462
REMARK UNBOUND:                -0.627
REMARK  Name = 
REMARK  4 active torsions:
REMARK  status: ('A' for Active; 'I' for Inactive)
REMARK    1  A    between atoms: C_2  and  C_4
REMARK    2  A    between atoms: C_7  and  C_8
REMARK    3  A    between atoms: C_8  and  O_9
REMARK    4  A    between atoms: O_9  and  C_10
REMARK                            x       y       z     vdW  Elec       q    Type
REMARK                         _______ _______ _______ _____ _____    ______ ____
ROOT
ATOM      1  C   UNL     1      50.751   2.358  17.358  0.00  0.00    +0.000 A 
ATOM      2  C   UNL     1      50.635   3.711  17.701  0.00  0.00    +0.000 A 
ATOM      3  C   UNL     1      49.480   4.420  17.361  0.00  0.00    +0.000 A 
ATOM      4  C   UNL     1      48.428   3.786  16.685  0.00  0.00    +0.000 A 
ATOM      5  C   UNL     1      48.568   2.440  16.316  0.00  0.00    +0.000 A 
ATOM      6  C   UNL     1      49.722   1.731  16.649  0.00  0.00    +0.000 A 
ENDROOT
BRANCH   1   8
ATOM      7  N   UNL     1      51.734   0.263  18.094  0.00  0.00    +0.000 N 
ATOM      8  C   UNL     1      51.951   1.562  17.719  0.00  0.00    +0.000 C 
ATOM      9  O   UNL     1      53.079   2.018  17.643  0.00  0.00    +0.000 OA
ATOM     10  H   UNL     1      52.558  -0.309  18.222  0.00  0.00    +0.000 HD
ATOM     11  H   UNL     1      50.859  -0.207  17.912  0.00  0.00    +0.000 HD
ENDBRANCH   1   8
BRANCH   4  12
ATOM     12  C   UNL     1      47.153   4.524  16.355  0.00  0.00    +0.000 C 
BRANCH  12  13
ATOM     13  O   UNL     1      46.549   3.970  15.188  0.00  0.00    +0.000 OA
BRANCH  13  14
ATOM     14  C   UNL     1      46.548   4.778  14.079  0.00  0.00    +0.000 A 
ATOM     15  C   UNL     1      47.491   5.772  13.800  0.00  0.00    +0.000 A 
ATOM     16  C   UNL     1      47.414   6.502  12.611  0.00  0.00    +0.000 A 
ATOM     17  C   UNL     1      46.399   6.243  11.694  0.00  0.00    +0.000 A 
ATOM     18  C   UNL     1      45.451   5.261  11.968  0.00  0.00    +0.000 A 
ATOM     19  C   UNL     1      45.524   4.535  13.160  0.00  0.00    +0.000 A 
ENDBRANCH  13  14
ENDBRANCH  12  13
ENDBRANCH   4  12
TORSDOF 4
ENDMDL
MODEL 5
REMARK VINA RESULT:    -5.330      3.192      4.616
REMARK INTER + INTRA:          -7.203
REMARK INTER:                  -6.852
REMARK INTRA:                  -0.351
REMARK UNBOUND:                -0.627
REMARK  Name = 
REMARK  4 active torsions:
REMARK  status: ('A' for Active; 'I' for Inactive)
REMARK    1  A    between atoms: C_2  and  C_4
REMARK    2  A    between atoms: C_7  and  C_8
REMARK    3  A    between atoms: C_8  and  O_9
REMARK    4  A    between atoms: O_9  and  C_10
REMARK                            x       y       z     vdW  Elec       q    Type
REMARK                         _______ _______ _______ _____ _____    ______ ____
ROOT
ATOM      1  C   UNL     1      45.230   4.153  10.287  0.00  0.00    +0.000 A 
ATOM      2  C   UNL     1      45.620   5.468  10.574  0.00  0.00    +0.000 A 
ATOM      3  C   UNL     1      46.004   5.813  11.872  0.00  0.00    +0.000 A 
ATOM      4  C   UNL     1      46.011   4.851  12.893  0.00  0.00    +0.000 A 
ATOM      5  C   UNL     1      45.587   3.547  12.602  0.00  0.00    +0.000 A 
ATOM      6  C   UNL     1      45.197   3.199  11.309  0.00  0.00    +0.000 A 
ENDROOT
BRANCH   1   8
ATOM      7  N   UNL     1      44.149   2.558   8.809  0.00  0.00    +0.000 N 
ATOM      8  C   UNL     1      44.835   3.738   8.917  0.00  0.00    +0.000 C 
ATOM      9  O   UNL     1      45.064   4.429   7.938  0.00  0.00    +0.000 OA
ATOM     10  H   UNL     1      43.778   2.339   7.894  0.00  0.00    +0.000 HD
ATOM     11  H   UNL     1      43.723   2.112   9.608  0.00  0.00    +0.000 HD
ENDBRANCH   1   8
BRANCH   4  12
ATOM     12  C   UNL     1      46.472   5.196  14.288  0.00  0.00    +0.000 C 
BRANCH  12  13
ATOM     13  O   UNL     1      46.707   4.007  15.039  0.00  0.00    +0.000 OA
BRANCH  13  14
ATOM     14  C   UNL     1      47.509   4.150  16.143  0.00  0.00    +0.000 A 
ATOM     15  C   UNL     1      48.295   5.269  16.434  0.00  0.00    +0.000 A 
ATOM     16  C   UNL     1      49.037   5.320  17.617  0.00  0.00    +0.000 A 
ATOM     17  C   UNL     1      48.997   4.257  18.516  0.00  0.00    +0.000 A 
ATOM     18  C   UNL     1      48.224   3.135  18.229  0.00  0.00    +0.000 A 
ATOM     19  C   UNL     1      47.486   3.081  17.044  0.00  0.00    +0.000 A 
ENDBRANCH  13  14
ENDBRANCH  12  13
ENDBRANCH   4  12
TORSDOF 4
ENDMDL
MODEL 6
REMARK VINA RESULT:    -5.311      3.287      4.673
REMARK INTER + INTRA:          -7.180
REMARK INTER:                  -6.597
REMARK INTRA:                  -0.582
REMARK UNBOUND:                -0.627
REMARK  Name = 
REMARK  4 active torsions:
REMARK  status: ('A' for Active; 'I' for Inactive)
REMARK    1  A    between atoms: C_2  and  C_4
REMARK    2  A    between atoms: C_7  and  C_8
REMARK    3  A    between atoms: C_8  and  O_9
REMARK    4  A    between atoms: O_9  and  C_10
REMARK                            x       y       z     vdW  Elec       q    Type
REMARK                         _______ _______ _______ _____ _____    ______ ____
ROOT
ATOM      1  C   UNL     1      44.240   4.123  11.363  0.00  0.00    +0.000 A 
ATOM      2  C   UNL     1      43.936   4.674  12.615  0.00  0.00    +0.000 A 
ATOM      3  C   UNL     1      44.312   5.987  12.909  0.00  0.00    +0.000 A 
ATOM      4  C   UNL     1      44.986   6.765  11.957  0.00  0.00    +0.000 A 
ATOM      5  C   UNL     1      45.314   6.194  10.719  0.00  0.00    +0.000 A 
ATOM      6  C   UNL     1      44.945   4.881  10.424  0.00  0.00    +0.000 A 
ENDROOT
BRANCH   1   8
ATOM      7  N   UNL     1      44.513   2.160   9.961  0.00  0.00    +0.000 N 
ATOM      8  C   UNL     1      43.839   2.740  11.002  0.00  0.00    +0.000 C 
ATOM      9  O   UNL     1      42.989   2.127  11.624  0.00  0.00    +0.000 OA
ATOM     10  H   UNL     1      44.324   1.180   9.795  0.00  0.00    +0.000 HD
ATOM     11  H   UNL     1      45.383   2.536   9.611  0.00  0.00    +0.000 HD
ENDBRANCH   1   8
BRANCH   4  12
ATOM     12  C   UNL     1      45.353   8.201  12.240  0.00  0.00    +0.000 C 
BRANCH  12  13
ATOM     13  O   UNL     1      46.422   8.262  13.183  0.00  0.00    +0.000 OA
BRANCH  13  14
ATOM     14  C   UNL     1      47.684   8.317  12.648  0.00  0.00    +0.000 A 
ATOM     15  C   UNL     1      48.555   7.232  12.513  0.00  0.00    +0.000 A 
ATOM     16  C   UNL     1      49.803   7.401  11.908  0.00  0.00    +0.000 A 
ATOM     17  C   UNL     1      50.187   8.652  11.431  0.00  0.00    +0.000 A 
ATOM     18  C   UNL     1      49.328   9.740  11.570  0.00  0.00    +0.000 A 
ATOM     19  C   UNL     1      48.084   9.572  12.181  0.00  0.00    +0.000 A 
ENDBRANCH  13  14
ENDBRANCH  12  13
ENDBRANCH   4  12
TORSDOF 4
ENDMDL
MODEL 7
REMARK VINA RESULT:    -5.281      3.246      5.304
REMARK INTER + INTRA:          -7.143
REMARK INTER:                  -6.757
REMARK INTRA:                  -0.387
REMARK UNBOUND:                -0.627
REMARK  Name = 
REMARK  4 active torsions:
REMARK  status: ('A' for Active; 'I' for Inactive)
REMARK    1  A    between atoms: C_2  and  C_4
REMARK    2  A    between atoms: C_7  and  C_8
REMARK    3  A    between atoms: C_8  and  O_9
REMARK    4  A    between atoms: O_9  and  C_10
REMARK                            x       y       z     vdW  Elec       q    Type
REMARK                         _______ _______ _______ _____ _____    ______ ____
ROOT
ATOM      1  C   UNL     1      44.954   4.729  11.414  0.00  0.00    +0.000 A 
ATOM      2  C   UNL     1      45.220   4.235  12.698  0.00  0.00    +0.000 A 
ATOM      3  C   UNL     1      46.172   4.865  13.503  0.00  0.00    +0.000 A 
ATOM      4  C   UNL     1      46.860   5.996  13.041  0.00  0.00    +0.000 A 
ATOM      5  C   UNL     1      46.610   6.462  11.743  0.00  0.00    +0.000 A 
ATOM      6  C   UNL     1      45.664   5.833  10.933  0.00  0.00    +0.000 A 
ENDROOT
BRANCH   1   8
ATOM      7  N   UNL     1      43.987   4.434   9.206  0.00  0.00    +0.000 N 
ATOM      8  C   UNL     1      43.934   4.104  10.534  0.00  0.00    +0.000 C 
ATOM      9  O   UNL     1      43.119   3.300  10.953  0.00  0.00    +0.000 OA
ATOM     10  H   UNL     1      43.372   3.917   8.591  0.00  0.00    +0.000 HD
ATOM     11  H   UNL     1      44.798   4.876   8.797  0.00  0.00    +0.000 HD
ENDBRANCH   1   8
BRANCH   4  12
ATOM     12  C   UNL     1      47.854   6.718  13.918  0.00  0.00    +0.000 C 
BRANCH  12  13
ATOM     13  O   UNL     1      48.613   5.781  14.680  0.00  0.00    +0.000 OA
BRANCH  13  14
ATOM     14  C   UNL     1      48.397   5.803  16.035  0.00  0.00    +0.000 A 
ATOM     15  C   UNL     1      47.776   4.791  16.773  0.00  0.00    +0.000 A 
ATOM     16  C   UNL     1      47.654   4.904  18.160  0.00  0.00    +0.000 A 
ATOM     17  C   UNL     1      48.151   6.026  18.818  0.00  0.00    +0.000 A 
ATOM     18  C   UNL     1      48.762   7.043  18.089  0.00  0.00    +0.000 A 
ATOM     19  C   UNL     1      48.880   6.932  16.702  0.00  0.00    +0.000 A 
ENDBRANCH  13  14
ENDBRANCH  12  13
ENDBRANCH   4  12
TORSDOF 4
ENDMDL
MODEL 8
REMARK VINA RESULT:    -5.242      3.887      6.990
REMARK INTER + INTRA:          -7.094
REMARK INTER:                  -6.673
REMARK INTRA:                  -0.422
REMARK UNBOUND:                -0.627
REMARK  Name = 
REMARK  4 active torsions:
REMARK  status: ('A' for Active; 'I' for Inactive)
REMARK    1  A    between atoms: C_2  and  C_4
REMARK    2  A    between atoms: C_7  and  C_8
REMARK    3  A    between atoms: C_8  and  O_9
REMARK    4  A    between atoms: O_9  and  C_10
REMARK                            x       y       z     vdW  Elec       q    Type
REMARK                         _______ _______ _______ _____ _____    ______ ____
ROOT
ATOM      1  C   UNL     1      47.922   4.910  16.085  0.00  0.00    +0.000 A 
ATOM      2  C   UNL     1      48.389   6.110  15.535  0.00  0.00    +0.000 A 
ATOM      3  C   UNL     1      48.015   6.474  14.239  0.00  0.00    +0.000 A 
ATOM      4  C   UNL     1      47.168   5.651  13.484  0.00  0.00    +0.000 A 
ATOM      5  C   UNL     1      46.733   4.435  14.032  0.00  0.00    +0.000 A 
ATOM      6  C   UNL     1      47.109   4.066  15.324  0.00  0.00    +0.000 A 
ENDROOT
BRANCH   1   8
ATOM      7  N   UNL     1      47.453   3.577  18.060  0.00  0.00    +0.000 N 
ATOM      8  C   UNL     1      48.277   4.495  17.467  0.00  0.00    +0.000 C 
ATOM      9  O   UNL     1      49.274   4.909  18.033  0.00  0.00    +0.000 OA
ATOM     10  H   UNL     1      47.763   3.207  18.950  0.00  0.00    +0.000 HD
ATOM     11  H   UNL     1      46.791   3.030  17.529  0.00  0.00    +0.000 HD
ENDBRANCH   1   8
BRANCH   4  12
ATOM     12  C   UNL     1      46.713   6.054  12.102  0.00  0.00    +0.000 C 
BRANCH  12  13
ATOM     13  O   UNL     1      45.368   5.636  11.882  0.00  0.00    +0.000 OA
BRANCH  13  14
ATOM     14  C   UNL     1      45.184   4.739  10.860  0.00  0.00    +0.000 A 
ATOM     15  C   UNL     1      44.625   3.465  10.991  0.00  0.00    +0.000 A 
ATOM     16  C   UNL     1      44.444   2.656   9.866  0.00  0.00    +0.000 A 
ATOM     17  C   UNL     1      44.816   3.115   8.605  0.00  0.00    +0.000 A 
ATOM     18  C   UNL     1      45.382   4.380   8.467  0.00  0.00    +0.000 A 
ATOM     19  C   UNL     1      45.569   5.186   9.593  0.00  0.00    +0.000 A 
ENDBRANCH  13  14
ENDBRANCH  12  13
ENDBRANCH   4  12
TORSDOF 4
ENDMDL
MODEL 9
REMARK VINA RESULT:    -5.134      3.633      5.474
REMARK INTER + INTRA:          -6.961
REMARK INTER:                  -6.545
REMARK INTRA:                  -0.416
REMARK UNBOUND:                -0.627
REMARK  Name = 
REMARK  4 active torsions:
REMARK  status: ('A' for Active; 'I' for Inactive)
REMARK    1  A    between atoms: C_2  and  C_4
REMARK    2  A    between atoms: C_7  and  C_8
REMARK    3  A    between atoms: C_8  and  O_9
REMARK    4  A    between atoms: O_9  and  C_10
REMARK                            x       y       z     vdW  Elec       q    Type
REMARK                         _______ _______ _______ _____ _____    ______ ____
ROOT
ATOM      1  C   UNL     1      44.993   4.437  11.991  0.00  0.00    +0.000 A 
ATOM      2  C   UNL     1      45.344   5.453  11.093  0.00  0.00    +0.000 A 
ATOM      3  C   UNL     1      46.421   6.295  11.380  0.00  0.00    +0.000 A 
ATOM      4  C   UNL     1      47.162   6.128  12.558  0.00  0.00    +0.000 A 
ATOM      5  C   UNL     1      46.781   5.130  13.467  0.00  0.00    +0.000 A 
ATOM      6  C   UNL     1      45.703   4.291  13.186  0.00  0.00    +0.000 A 
ENDROOT
BRANCH   1   8
ATOM      7  N   UNL     1      43.773   2.407  12.526  0.00  0.00    +0.000 N 
ATOM      8  C   UNL     1      43.869   3.506  11.715  0.00  0.00    +0.000 C 
ATOM      9  O   UNL     1      43.044   3.725  10.845  0.00  0.00    +0.000 OA
ATOM     10  H   UNL     1      42.942   1.841  12.415  0.00  0.00    +0.000 HD
ATOM     11  H   UNL     1      44.271   2.343  13.402  0.00  0.00    +0.000 HD
ENDBRANCH   1   8
BRANCH   4  12
ATOM     12  C   UNL     1      48.359   6.997  12.858  0.00  0.00    +0.000 C 
BRANCH  12  13
ATOM     13  O   UNL     1      49.043   6.515  14.014  0.00  0.00    +0.000 OA
BRANCH  13  14
ATOM     14  C   UNL     1      48.840   7.231  15.166  0.00  0.00    +0.000 A 
ATOM     15  C   UNL     1      48.508   8.588  15.230  0.00  0.00    +0.000 A 
ATOM     16  C   UNL     1      48.279   9.200  16.464  0.00  0.00    +0.000 A 
ATOM     17  C   UNL     1      48.376   8.463  17.641  0.00  0.00    +0.000 A 
ATOM     18  C   UNL     1      48.715   7.113  17.588  0.00  0.00    +0.000 A 
ATOM     19  C   UNL     1      48.950   6.502  16.354  0.00  0.00    +0.000 A 
ENDBRANCH  13  14
ENDBRANCH  12  13
ENDBRANCH   4  12
TORSDOF 4
ENDMDL
