MODEL 1
REMARK VINA RESULT:    -8.191      0.000      0.000
REMARK INTER + INTRA:         -11.550
REMARK INTER:                 -10.585
REMARK INTRA:                  -0.965
REMARK UNBOUND:                -0.965
REMARK  Name = 
REMARK  5 active torsions:
REMARK  status: ('A' for Active; 'I' for Inactive)
REMARK    1  A    between atoms: C_2  and  C_5
REMARK    2  A    between atoms: C_7  and  N_8
REMARK    3  A    between atoms: N_8  and  C_9
REMARK    4  A    between atoms: C_9  and  C_10
REMARK    5  A    between atoms: C_14  and  C_15
REMARK                            x       y       z     vdW  Elec       q    Type
REMARK                         _______ _______ _______ _____ _____    ______ ____
ROOT
ATOM      1  C   UNL     1      43.630   6.342  11.224  0.00  0.00    +0.000 C 
ENDROOT
BRANCH   1   2
ATOM      2  C   UNL     1      43.858   4.869  10.973  0.00  0.00    +0.000 A 
ATOM      3  C   UNL     1      43.157   3.913  11.718  0.00  0.00    +0.000 A 
ATOM      4  C   UNL     1      43.299   2.557  11.432  0.00  0.00    +0.000 A 
ATOM      5  C   UNL     1      44.131   2.144  10.390  0.00  0.00    +0.000 A 
ATOM      6  C   UNL     1      44.844   3.074   9.610  0.00  0.00    +0.000 A 
ATOM      7  C   UNL     1      44.726   4.436   9.955  0.00  0.00    +0.000 A 
BRANCH   6   8
ATOM      8  C   UNL     1      45.617   2.663   8.419  0.00  0.00    +0.000 A 
ATOM      9  C   UNL     1      45.902   3.553   7.379  0.00  0.00    +0.000 A 
ATOM     10  C   UNL     1      46.722   3.146   6.330  0.00  0.00    +0.000 A 
ATOM     11  C   UNL     1      47.236   1.858   6.333  0.00  0.00    +0.000 A 
ATOM     12  C   UNL     1      46.904   1.028   7.389  0.00  0.00    +0.000 A 
ATOM     13  N   UNL     1      46.117   1.400   8.426  0.00  0.00    +0.000 NA
ENDBRANCH   6   8
ENDBRANCH   1   2
BRANCH   1  14
ATOM     14  N   UNL     1      44.243   6.752  12.481  0.00  0.00    +0.000 N 
ATOM     15  H   UNL     1      43.682   6.452  13.278  0.00  0.00    +0.000 HD
BRANCH  14  18
ATOM     16  C   UNL     1      47.961   7.086  12.462  0.00  0.00    +0.000 A 
ATOM     17  C   UNL     1      46.617   7.338  12.162  0.00  0.00    +0.000 A 
ATOM     18  C   UNL     1      45.611   6.511  12.670  0.00  0.00    +0.000 A 
ATOM     19  C   UNL     1      46.007   5.484  13.531  0.00  0.00    +0.000 A 
ATOM     20  C   UNL     1      47.352   5.285  13.785  0.00  0.00    +0.000 A 
ATOM     21  N   UNL     1      48.334   6.048  13.264  0.00  0.00    +0.000 NA
BRANCH  16  23
ATOM     22  F   UNL     1      49.759   7.421  10.884  0.00  0.00    +0.000 F 
ATOM     23  C   UNL     1      49.044   7.997  11.898  0.00  0.00    +0.000 C 
ATOM     24  F   UNL     1      49.975   8.363  12.827  0.00  0.00    +0.000 F 
ATOM     25  F   UNL     1      48.555   9.158  11.376  0.00  0.00    +0.000 F 
ENDBRANCH  16  23
ENDBRANCH  14  18
ENDBRANCH   1  14
TORSDOF 5
ENDMDL
MODEL 2
REMARK VINA RESULT:    -7.981      2.988      6.783
REMARK INTER + INTRA:         -11.279
REMARK INTER:                 -10.295
REMARK INTRA:                  -0.984
REMARK UNBOUND:                -0.965
REMARK  Name = 
REMARK  5 active torsions:
REMARK  status: ('A' for Active; 'I' for Inactive)
REMARK    1  A    between atoms: C_2  and  C_5
REMARK    2  A    between atoms: C_7  and  N_8
REMARK    3  A    between atoms: N_8  and  C_9
REMARK    4  A    between atoms: C_9  and  C_10
REMARK    5  A    between atoms: C_14  and  C_15
REMARK                            x       y       z     vdW  Elec       q    Type
REMARK                         _______ _______ _______ _____ _____    ______ ____
ROOT
ATOM      1  C   UNL     1      43.962   5.626  11.989  0.00  0.00    +0.000 C 
ENDROOT
BRANCH   1   2
ATOM      2  C   UNL     1      45.399   5.845  12.403  0.00  0.00    +0.000 A 
ATOM      3  C   UNL     1      46.186   6.793  11.737  0.00  0.00    +0.000 A 
ATOM      4  C   UNL     1      47.482   7.059  12.170  0.00  0.00    +0.000 A 
ATOM      5  C   UNL     1      48.000   6.393  13.282  0.00  0.00    +0.000 A 
ATOM      6  C   UNL     1      47.238   5.443  13.986  0.00  0.00    +0.000 A 
ATOM      7  C   UNL     1      45.949   5.151  13.494  0.00  0.00    +0.000 A 
BRANCH   6   8
ATOM      8  C   UNL     1      47.720   4.833  15.245  0.00  0.00    +0.000 A 
ATOM      9  C   UNL     1      48.267   5.602  16.276  0.00  0.00    +0.000 A 
ATOM     10  C   UNL     1      48.610   4.994  17.481  0.00  0.00    +0.000 A 
ATOM     11  C   UNL     1      48.407   3.631  17.632  0.00  0.00    +0.000 A 
ATOM     12  C   UNL     1      47.872   2.930  16.565  0.00  0.00    +0.000 A 
ATOM     13  N   UNL     1      47.522   3.498  15.387  0.00  0.00    +0.000 NA
ENDBRANCH   6   8
ENDBRANCH   1   2
BRANCH   1  14
ATOM     14  N   UNL     1      43.850   5.550  10.537  0.00  0.00    +0.000 N 
ATOM     15  H   UNL     1      44.207   6.397  10.096  0.00  0.00    +0.000 HD
BRANCH  14  18
ATOM     16  C   UNL     1      45.685   3.178   8.312  0.00  0.00    +0.000 A 
ATOM     17  C   UNL     1      45.226   4.386   8.854  0.00  0.00    +0.000 A 
ATOM     18  C   UNL     1      44.289   4.386   9.891  0.00  0.00    +0.000 A 
ATOM     19  C   UNL     1      43.896   3.142  10.394  0.00  0.00    +0.000 A 
ATOM     20  C   UNL     1      44.383   1.985   9.812  0.00  0.00    +0.000 A 
ATOM     21  N   UNL     1      45.252   1.972   8.781  0.00  0.00    +0.000 NA
BRANCH  16  23
ATOM     22  F   UNL     1      46.159   2.920   5.958  0.00  0.00    +0.000 F 
ATOM     23  C   UNL     1      46.704   3.197   7.181  0.00  0.00    +0.000 C 
ATOM     24  F   UNL     1      47.701   2.279   7.342  0.00  0.00    +0.000 F 
ATOM     25  F   UNL     1      47.322   4.404   7.032  0.00  0.00    +0.000 F 
ENDBRANCH  16  23
ENDBRANCH  14  18
ENDBRANCH   1  14
TORSDOF 5
ENDMDL
MODEL 3
REMARK VINA RESULT:    -7.956      2.119      2.679
REMARK INTER + INTRA:         -11.247
REMARK INTER:                 -10.269
REMARK INTRA:                  -0.978
REMARK UNBOUND:                -0.965
REMARK  Name = 
REMARK  5 active torsions:
REMARK  status: ('A' for Active; 'I' for Inactive)
REMARK    1  A    between atoms: C_2  and  C_5
REMARK    2  A    between atoms: C_7  and  N_8
REMARK    3  A    between atoms: N_8  and  C_9
REMARK    4  A    between atoms: C_9  and  C_10
REMARK    5  A    between atoms: C_14  and  C_15
REMARK                            x       y       z     vdW  Elec       q    Type
REMARK                         _______ _______ _______ _____ _____    ______ ____
ROOT
ATOM      1  C   UNL     1      43.533   6.345  11.036  0.00  0.00    +0.000 C 
ENDROOT
BRANCH   1   2
ATOM      2  C   UNL     1      43.805   4.871  10.843  0.00  0.00    +0.000 A 
ATOM      3  C   UNL     1      43.129   3.924  11.621  0.00  0.00    +0.000 A 
ATOM      4  C   UNL     1      43.312   2.563  11.388  0.00  0.00    +0.000 A 
ATOM      5  C   UNL     1      44.160   2.136  10.364  0.00  0.00    +0.000 A 
ATOM      6  C   UNL     1      44.848   3.055   9.552  0.00  0.00    +0.000 A 
ATOM      7  C   UNL     1      44.689   4.425   9.844  0.00  0.00    +0.000 A 
BRANCH   6   8
ATOM      8  C   UNL     1      45.638   2.622   8.379  0.00  0.00    +0.000 A 
ATOM      9  C   UNL     1      45.939   3.493   7.328  0.00  0.00    +0.000 A 
ATOM     10  C   UNL     1      46.773   3.067   6.298  0.00  0.00    +0.000 A 
ATOM     11  C   UNL     1      47.285   1.779   6.331  0.00  0.00    +0.000 A 
ATOM     12  C   UNL     1      46.936   0.968   7.397  0.00  0.00    +0.000 A 
ATOM     13  N   UNL     1      46.135   1.359   8.415  0.00  0.00    +0.000 NA
ENDBRANCH   6   8
ENDBRANCH   1   2
BRANCH   1  14
ATOM     14  N   UNL     1      44.008   6.790  12.341  0.00  0.00    +0.000 N 
ATOM     15  H   UNL     1      43.337   6.562  13.073  0.00  0.00    +0.000 HD
BRANCH  14  18
ATOM     16  C   UNL     1      46.995   5.267  13.983  0.00  0.00    +0.000 A 
ATOM     17  C   UNL     1      45.656   5.584  13.723  0.00  0.00    +0.000 A 
ATOM     18  C   UNL     1      45.327   6.491  12.711  0.00  0.00    +0.000 A 
ATOM     19  C   UNL     1      46.379   6.998  11.944  0.00  0.00    +0.000 A 
ATOM     20  C   UNL     1      47.681   6.648  12.254  0.00  0.00    +0.000 A 
ATOM     21  N   UNL     1      48.014   5.811  13.257  0.00  0.00    +0.000 NA
BRANCH  16  23
ATOM     22  F   UNL     1      48.491   4.590  15.755  0.00  0.00    +0.000 F 
ATOM     23  C   UNL     1      47.336   4.279  15.090  0.00  0.00    +0.000 C 
ATOM     24  F   UNL     1      47.518   3.005  14.636  0.00  0.00    +0.000 F 
ATOM     25  F   UNL     1      46.378   4.202  16.058  0.00  0.00    +0.000 F 
ENDBRANCH  16  23
ENDBRANCH  14  18
ENDBRANCH   1  14
TORSDOF 5
ENDMDL
MODEL 4
REMARK VINA RESULT:    -7.761      3.275      6.760
REMARK INTER + INTRA:         -10.994
REMARK INTER:                 -10.289
REMARK INTRA:                  -0.705
REMARK UNBOUND:                -0.965
REMARK  Name = 
REMARK  5 active torsions:
REMARK  status: ('A' for Active; 'I' for Inactive)
REMARK    1  A    between atoms: C_2  and  C_5
REMARK    2  A    between atoms: C_7  and  N_8
REMARK    3  A    between atoms: N_8  and  C_9
REMARK    4  A    between atoms: C_9  and  C_10
REMARK    5  A    between atoms: C_14  and  C_15
REMARK                            x       y       z     vdW  Elec       q    Type
REMARK                         _______ _______ _______ _____ _____    ______ ____
ROOT
ATOM      1  C   UNL     1      43.453   3.541  11.687  0.00  0.00    +0.000 C 
ENDROOT
BRANCH   1   2
ATOM      2  C   UNL     1      44.669   4.133  12.361  0.00  0.00    +0.000 A 
ATOM      3  C   UNL     1      45.611   3.297  12.973  0.00  0.00    +0.000 A 
ATOM      4  C   UNL     1      46.776   3.832  13.519  0.00  0.00    +0.000 A 
ATOM      5  C   UNL     1      47.018   5.205  13.446  0.00  0.00    +0.000 A 
ATOM      6  C   UNL     1      46.103   6.077  12.829  0.00  0.00    +0.000 A 
ATOM      7  C   UNL     1      44.906   5.519  12.333  0.00  0.00    +0.000 A 
BRANCH   6   8
ATOM      8  C   UNL     1      46.409   7.509  12.621  0.00  0.00    +0.000 A 
ATOM      9  C   UNL     1      47.712   7.960  12.391  0.00  0.00    +0.000 A 
ATOM     10  C   UNL     1      47.934   9.303  12.097  0.00  0.00    +0.000 A 
ATOM     11  C   UNL     1      46.855  10.171  12.045  0.00  0.00    +0.000 A 
ATOM     12  C   UNL     1      45.594   9.658  12.293  0.00  0.00    +0.000 A 
ATOM     13  N   UNL     1      45.349   8.356  12.572  0.00  0.00    +0.000 NA
ENDBRANCH   6   8
ENDBRANCH   1   2
BRANCH   1  14
ATOM     14  N   UNL     1      43.839   2.466  10.781  0.00  0.00    +0.000 N 
ATOM     15  H   UNL     1      43.032   1.903  10.514  0.00  0.00    +0.000 HD
BRANCH  14  18
ATOM     16  C   UNL     1      46.194   2.189   7.897  0.00  0.00    +0.000 A 
ATOM     17  C   UNL     1      45.464   1.832   9.038  0.00  0.00    +0.000 A 
ATOM     18  C   UNL     1      44.661   2.774   9.688  0.00  0.00    +0.000 A 
ATOM     19  C   UNL     1      44.575   4.043   9.110  0.00  0.00    +0.000 A 
ATOM     20  C   UNL     1      45.325   4.335   7.985  0.00  0.00    +0.000 A 
ATOM     21  N   UNL     1      46.138   3.448   7.376  0.00  0.00    +0.000 NA
BRANCH  16  23
ATOM     22  F   UNL     1      46.740   0.966   5.887  0.00  0.00    +0.000 F 
ATOM     23  C   UNL     1      47.065   1.151   7.203  0.00  0.00    +0.000 C 
ATOM     24  F   UNL     1      46.979  -0.088   7.768  0.00  0.00    +0.000 F 
ATOM     25  F   UNL     1      48.391   1.473   7.201  0.00  0.00    +0.000 F 
ENDBRANCH  16  23
ENDBRANCH  14  18
ENDBRANCH   1  14
TORSDOF 5
ENDMDL
MODEL 5
REMARK VINA RESULT:    -7.690      1.225      1.824
REMARK INTER + INTRA:         -10.903
REMARK INTER:                 -10.036
REMARK INTRA:                  -0.867
REMARK UNBOUND:                -0.965
REMARK  Name = 
REMARK  5 active torsions:
REMARK  status: ('A' for Active; 'I' for Inactive)
REMARK    1  A    between atoms: C_2  and  C_5
REMARK    2  A    between atoms: C_7  and  N_8
REMARK    3  A    between atoms: N_8  and  C_9
REMARK    4  A    between atoms: C_9  and  C_10
REMARK    5  A    between atoms: C_14  and  C_15
REMARK                            x       y       z     vdW  Elec       q    Type
REMARK                         _______ _______ _______ _____ _____    ______ ____
ROOT
ATOM      1  C   UNL     1      43.801   6.493  11.330  0.00  0.00    +0.000 C 
ENDROOT
BRANCH   1   2
ATOM      2  C   UNL     1      43.953   5.011  11.074  0.00  0.00    +0.000 A 
ATOM      3  C   UNL     1      43.196   4.089  11.807  0.00  0.00    +0.000 A 
ATOM      4  C   UNL     1      43.268   2.729  11.516  0.00  0.00    +0.000 A 
ATOM      5  C   UNL     1      44.086   2.278  10.478  0.00  0.00    +0.000 A 
ATOM      6  C   UNL     1      44.853   3.172   9.709  0.00  0.00    +0.000 A 
ATOM      7  C   UNL     1      44.805   4.537  10.060  0.00  0.00    +0.000 A 
BRANCH   6   8
ATOM      8  C   UNL     1      45.614   2.726   8.522  0.00  0.00    +0.000 A 
ATOM      9  C   UNL     1      45.949   3.603   7.487  0.00  0.00    +0.000 A 
ATOM     10  C   UNL     1      46.755   3.159   6.442  0.00  0.00    +0.000 A 
ATOM     11  C   UNL     1      47.206   1.848   6.445  0.00  0.00    +0.000 A 
ATOM     12  C   UNL     1      46.826   1.033   7.497  0.00  0.00    +0.000 A 
ATOM     13  N   UNL     1      46.051   1.441   8.529  0.00  0.00    +0.000 NA
ENDBRANCH   6   8
ENDBRANCH   1   2
BRANCH   1  14
ATOM     14  N   UNL     1      44.493   6.877  12.554  0.00  0.00    +0.000 N 
ATOM     15  H   UNL     1      44.732   6.060  13.113  0.00  0.00    +0.000 HD
BRANCH  14  18
ATOM     16  C   UNL     1      47.897   8.375  12.220  0.00  0.00    +0.000 A 
ATOM     17  C   UNL     1      46.895   7.412  12.394  0.00  0.00    +0.000 A 
ATOM     18  C   UNL     1      45.552   7.792  12.466  0.00  0.00    +0.000 A 
ATOM     19  C   UNL     1      45.264   9.148  12.289  0.00  0.00    +0.000 A 
ATOM     20  C   UNL     1      46.299  10.051  12.125  0.00  0.00    +0.000 A 
ATOM     21  N   UNL     1      47.602   9.702  12.100  0.00  0.00    +0.000 NA
BRANCH  16  23
ATOM     22  F   UNL     1      50.231   8.936  12.495  0.00  0.00    +0.000 F 
ATOM     23  C   UNL     1      49.356   7.944  12.146  0.00  0.00    +0.000 C 
ATOM     24  F   UNL     1      49.738   7.556  10.895  0.00  0.00    +0.000 F 
ATOM     25  F   UNL     1      49.652   6.899  12.972  0.00  0.00    +0.000 F 
ENDBRANCH  16  23
ENDBRANCH  14  18
ENDBRANCH   1  14
TORSDOF 5
ENDMDL
MODEL 6
REMARK VINA RESULT:    -7.389      3.500      7.269
REMARK INTER + INTRA:         -10.513
REMARK INTER:                  -9.903
REMARK INTRA:                  -0.610
REMARK UNBOUND:                -0.965
REMARK  Name = 
REMARK  5 active torsions:
REMARK  status: ('A' for Active; 'I' for Inactive)
REMARK    1  A    between atoms: C_2  and  C_5
REMARK    2  A    between atoms: C_7  and  N_8
REMARK    3  A    between atoms: N_8  and  C_9
REMARK    4  A    between atoms: C_9  and  C_10
REMARK    5  A    between atoms: C_14  and  C_15
REMARK                            x       y       z     vdW  Elec       q    Type
REMARK                         _______ _______ _______ _____ _____    ______ ____
ROOT
ATOM      1  C   UNL     1      43.935   3.762  11.982  0.00  0.00    +0.000 C 
ENDROOT
BRANCH   1   2
ATOM      2  C   UNL     1      45.173   4.513  12.412  0.00  0.00    +0.000 A 
ATOM      3  C   UNL     1      45.582   5.655  11.713  0.00  0.00    +0.000 A 
ATOM      4  C   UNL     1      46.672   6.399  12.157  0.00  0.00    +0.000 A 
ATOM      5  C   UNL     1      47.356   6.018  13.314  0.00  0.00    +0.000 A 
ATOM      6  C   UNL     1      46.969   4.885  14.052  0.00  0.00    +0.000 A 
ATOM      7  C   UNL     1      45.898   4.117  13.551  0.00  0.00    +0.000 A 
BRANCH   6   8
ATOM      8  C   UNL     1      47.593   4.550  15.351  0.00  0.00    +0.000 A 
ATOM      9  C   UNL     1      47.476   3.280  15.921  0.00  0.00    +0.000 A 
ATOM     10  C   UNL     1      48.169   2.985  17.093  0.00  0.00    +0.000 A 
ATOM     11  C   UNL     1      48.958   3.963  17.677  0.00  0.00    +0.000 A 
ATOM     12  C   UNL     1      49.019   5.202  17.062  0.00  0.00    +0.000 A 
ATOM     13  N   UNL     1      48.364   5.513  15.919  0.00  0.00    +0.000 NA
ENDBRANCH   6   8
ENDBRANCH   1   2
BRANCH   1  14
ATOM     14  N   UNL     1      44.290   2.610  11.162  0.00  0.00    +0.000 N 
ATOM     15  H   UNL     1      43.549   1.910  11.171  0.00  0.00    +0.000 HD
BRANCH  14  18
ATOM     16  C   UNL     1      46.090   2.212   7.915  0.00  0.00    +0.000 A 
ATOM     17  C   UNL     1      45.691   1.971   9.236  0.00  0.00    +0.000 A 
ATOM     18  C   UNL     1      44.797   2.835   9.874  0.00  0.00    +0.000 A 
ATOM     19  C   UNL     1      44.280   3.889   9.116  0.00  0.00    +0.000 A 
ATOM     20  C   UNL     1      44.717   4.076   7.817  0.00  0.00    +0.000 A 
ATOM     21  N   UNL     1      45.614   3.276   7.206  0.00  0.00    +0.000 NA
BRANCH  16  23
ATOM     22  F   UNL     1      47.072   0.009   7.785  0.00  0.00    +0.000 F 
ATOM     23  C   UNL     1      47.067   1.262   7.235  0.00  0.00    +0.000 C 
ATOM     24  F   UNL     1      48.362   1.686   7.301  0.00  0.00    +0.000 F 
ATOM     25  F   UNL     1      46.799   1.069   5.911  0.00  0.00    +0.000 F 
ENDBRANCH  16  23
ENDBRANCH  14  18
ENDBRANCH   1  14
TORSDOF 5
ENDMDL
MODEL 7
REMARK VINA RESULT:    -7.158      3.049      3.841
REMARK INTER + INTRA:         -10.215
REMARK INTER:                  -9.337
REMARK INTRA:                  -0.878
REMARK UNBOUND:                -0.965
REMARK  Name = 
REMARK  5 active torsions:
REMARK  status: ('A' for Active; 'I' for Inactive)
REMARK    1  A    between atoms: C_2  and  C_5
REMARK    2  A    between atoms: C_7  and  N_8
REMARK    3  A    between atoms: N_8  and  C_9
REMARK    4  A    between atoms: C_9  and  C_10
REMARK    5  A    between atoms: C_14  and  C_15
REMARK                            x       y       z     vdW  Elec       q    Type
REMARK                         _______ _______ _______ _____ _____    ______ ____
ROOT
ATOM      1  C   UNL     1      45.830   7.066  12.900  0.00  0.00    +0.000 C 
ENDROOT
BRANCH   1   2
ATOM      2  C   UNL     1      44.998   5.984  12.251  0.00  0.00    +0.000 A 
ATOM      3  C   UNL     1      43.656   5.816  12.614  0.00  0.00    +0.000 A 
ATOM      4  C   UNL     1      42.862   4.879  11.959  0.00  0.00    +0.000 A 
ATOM      5  C   UNL     1      43.396   4.111  10.922  0.00  0.00    +0.000 A 
ATOM      6  C   UNL     1      44.736   4.258  10.518  0.00  0.00    +0.000 A 
ATOM      7  C   UNL     1      45.533   5.173  11.234  0.00  0.00    +0.000 A 
BRANCH   6   8
ATOM      8  C   UNL     1      45.275   3.554   9.334  0.00  0.00    +0.000 A 
ATOM      9  C   UNL     1      45.770   4.246   8.225  0.00  0.00    +0.000 A 
ATOM     10  C   UNL     1      46.362   3.540   7.181  0.00  0.00    +0.000 A 
ATOM     11  C   UNL     1      46.443   2.158   7.259  0.00  0.00    +0.000 A 
ATOM     12  C   UNL     1      45.923   1.538   8.382  0.00  0.00    +0.000 A 
ATOM     13  N   UNL     1      45.351   2.201   9.415  0.00  0.00    +0.000 NA
ENDBRANCH   6   8
ENDBRANCH   1   2
BRANCH   1  14
ATOM     14  N   UNL     1      47.234   6.676  12.945  0.00  0.00    +0.000 N 
ATOM     15  H   UNL     1      47.816   7.337  12.433  0.00  0.00    +0.000 HD
BRANCH  14  18
ATOM     16  C   UNL     1      48.192   4.781  16.017  0.00  0.00    +0.000 A 
ATOM     17  C   UNL     1      47.533   5.107  14.824  0.00  0.00    +0.000 A 
ATOM     18  C   UNL     1      47.792   6.322  14.182  0.00  0.00    +0.000 A 
ATOM     19  C   UNL     1      48.772   7.143  14.745  0.00  0.00    +0.000 A 
ATOM     20  C   UNL     1      49.384   6.765  15.927  0.00  0.00    +0.000 A 
ATOM     21  N   UNL     1      49.110   5.618  16.580  0.00  0.00    +0.000 NA
BRANCH  16  23
ATOM     22  F   UNL     1      47.874   2.393  15.842  0.00  0.00    +0.000 F 
ATOM     23  C   UNL     1      47.897   3.454  16.704  0.00  0.00    +0.000 C 
ATOM     24  F   UNL     1      46.685   3.432  17.329  0.00  0.00    +0.000 F 
ATOM     25  F   UNL     1      48.818   3.123  17.654  0.00  0.00    +0.000 F 
ENDBRANCH  16  23
ENDBRANCH  14  18
ENDBRANCH   1  14
TORSDOF 5
ENDMDL
MODEL 8
REMARK VINA RESULT:    -7.093      3.382      7.146
REMARK INTER + INTRA:         -10.131
REMARK INTER:                  -9.157
REMARK INTRA:                  -0.974
REMARK UNBOUND:                -0.965
REMARK  Name = 
REMARK  5 active torsions:
REMARK  status: ('A' for Active; 'I' for Inactive)
REMARK    1  A    between atoms: C_2  and  C_5
REMARK    2  A    between atoms: C_7  and  N_8
REMARK    3  A    between atoms: N_8  and  C_9
REMARK    4  A    between atoms: C_9  and  C_10
REMARK    5  A    between atoms: C_14  and  C_15
REMARK                            x       y       z     vdW  Elec       q    Type
REMARK                         _______ _______ _______ _____ _____    ______ ____
ROOT
ATOM      1  C   UNL     1      45.037   7.477  12.071  0.00  0.00    +0.000 C 
ENDROOT
BRANCH   1   2
ATOM      2  C   UNL     1      46.431   7.243  12.607  0.00  0.00    +0.000 A 
ATOM      3  C   UNL     1      47.503   8.013  12.139  0.00  0.00    +0.000 A 
ATOM      4  C   UNL     1      48.772   7.860  12.692  0.00  0.00    +0.000 A 
ATOM      5  C   UNL     1      48.979   6.946  13.727  0.00  0.00    +0.000 A 
ATOM      6  C   UNL     1      47.927   6.162  14.234  0.00  0.00    +0.000 A 
ATOM      7  C   UNL     1      46.664   6.296  13.620  0.00  0.00    +0.000 A 
BRANCH   6   8
ATOM      8  C   UNL     1      48.101   5.295  15.419  0.00  0.00    +0.000 A 
ATOM      9  C   UNL     1      47.265   4.201  15.663  0.00  0.00    +0.000 A 
ATOM     10  C   UNL     1      47.535   3.355  16.736  0.00  0.00    +0.000 A 
ATOM     11  C   UNL     1      48.627   3.619  17.547  0.00  0.00    +0.000 A 
ATOM     12  C   UNL     1      49.405   4.725  17.253  0.00  0.00    +0.000 A 
ATOM     13  N   UNL     1      49.170   5.559  16.212  0.00  0.00    +0.000 NA
ENDBRANCH   6   8
ENDBRANCH   1   2
BRANCH   1  14
ATOM     14  N   UNL     1      44.868   6.831  10.775  0.00  0.00    +0.000 N 
ATOM     15  H   UNL     1      45.681   6.983  10.180  0.00  0.00    +0.000 HD
BRANCH  14  18
ATOM     16  C   UNL     1      44.432   3.235   9.870  0.00  0.00    +0.000 A 
ATOM     17  C   UNL     1      44.851   4.569   9.792  0.00  0.00    +0.000 A 
ATOM     18  C   UNL     1      44.423   5.502  10.742  0.00  0.00    +0.000 A 
ATOM     19  C   UNL     1      43.630   5.025  11.789  0.00  0.00    +0.000 A 
ATOM     20  C   UNL     1      43.247   3.696  11.807  0.00  0.00    +0.000 A 
ATOM     21  N   UNL     1      43.615   2.798  10.872  0.00  0.00    +0.000 NA
BRANCH  16  23
ATOM     22  F   UNL     1      46.236   1.931   8.931  0.00  0.00    +0.000 F 
ATOM     23  C   UNL     1      44.906   2.232   8.826  0.00  0.00    +0.000 C 
ATOM     24  F   UNL     1      44.740   2.672   7.546  0.00  0.00    +0.000 F 
ATOM     25  F   UNL     1      44.261   1.032   8.900  0.00  0.00    +0.000 F 
ENDBRANCH  16  23
ENDBRANCH  14  18
ENDBRANCH   1  14
TORSDOF 5
ENDMDL
MODEL 9
REMARK VINA RESULT:    -6.922      3.087      7.041
REMARK INTER + INTRA:          -9.911
REMARK INTER:                  -9.224
REMARK INTRA:                  -0.686
REMARK UNBOUND:                -0.965
REMARK  Name = 
REMARK  5 active torsions:
REMARK  status: ('A' for Active; 'I' for Inactive)
REMARK    1  A    between atoms: C_2  and  C_5
REMARK    2  A    between atoms: C_7  and  N_8
REMARK    3  A    between atoms: N_8  and  C_9
REMARK    4  A    between atoms: C_9  and  C_10
REMARK    5  A    between atoms: C_14  and  C_15
REMARK                            x       y       z     vdW  Elec       q    Type
REMARK                         _______ _______ _______ _____ _____    ______ ____
ROOT
ATOM      1  C   UNL     1      44.868   5.593  11.155  0.00  0.00    +0.000 C 
ENDROOT
BRANCH   1   2
ATOM      2  C   UNL     1      45.516   6.884  11.599  0.00  0.00    +0.000 A 
ATOM      3  C   UNL     1      44.724   7.957  12.028  0.00  0.00    +0.000 A 
ATOM      4  C   UNL     1      45.319   9.117  12.519  0.00  0.00    +0.000 A 
ATOM      5  C   UNL     1      46.710   9.210  12.602  0.00  0.00    +0.000 A 
ATOM      6  C   UNL     1      47.540   8.150  12.193  0.00  0.00    +0.000 A 
ATOM      7  C   UNL     1      46.915   7.010  11.648  0.00  0.00    +0.000 A 
BRANCH   6   8
ATOM      8  C   UNL     1      49.003   8.180  12.404  0.00  0.00    +0.000 A 
ATOM      9  C   UNL     1      49.905   7.922  11.368  0.00  0.00    +0.000 A 
ATOM     10  C   UNL     1      51.272   8.065  11.592  0.00  0.00    +0.000 A 
ATOM     11  C   UNL     1      51.714   8.455  12.847  0.00  0.00    +0.000 A 
ATOM     12  C   UNL     1      50.766   8.683  13.829  0.00  0.00    +0.000 A 
ATOM     13  N   UNL     1      49.432   8.560  13.635  0.00  0.00    +0.000 NA
ENDBRANCH   6   8
ENDBRANCH   1   2
BRANCH   1  14
ATOM     14  N   UNL     1      44.912   5.468   9.703  0.00  0.00    +0.000 N 
ATOM     15  H   UNL     1      45.513   6.180   9.291  0.00  0.00    +0.000 HD
BRANCH  14  18
ATOM     16  C   UNL     1      46.246   2.654   7.644  0.00  0.00    +0.000 A 
ATOM     17  C   UNL     1      46.016   3.960   8.095  0.00  0.00    +0.000 A 
ATOM     18  C   UNL     1      45.126   4.200   9.146  0.00  0.00    +0.000 A 
ATOM     19  C   UNL     1      44.546   3.084   9.755  0.00  0.00    +0.000 A 
ATOM     20  C   UNL     1      44.811   1.820   9.260  0.00  0.00    +0.000 A 
ATOM     21  N   UNL     1      45.631   1.580   8.217  0.00  0.00    +0.000 NA
BRANCH  16  23
ATOM     22  F   UNL     1      48.502   2.780   6.789  0.00  0.00    +0.000 F 
ATOM     23  C   UNL     1      47.218   2.411   6.497  0.00  0.00    +0.000 C 
ATOM     24  F   UNL     1      46.896   3.104   5.366  0.00  0.00    +0.000 F 
ATOM     25  F   UNL     1      47.298   1.100   6.127  0.00  0.00    +0.000 F 
ENDBRANCH  16  23
ENDBRANCH  14  18
ENDBRANCH   1  14
TORSDOF 5
ENDMDL
