MODEL 1
REMARK VINA RESULT:    -8.495      0.000      0.000
REMARK INTER + INTRA:         -11.784
REMARK INTER:                 -11.226
REMARK INTRA:                  -0.557
REMARK UNBOUND:                -0.557
REMARK  Name = 
REMARK  6 active torsions:
REMARK  status: ('A' for Active; 'I' for Inactive)
REMARK    1  A    between atoms: C_2  and  C_4
REMARK    2  A    between atoms: C_7  and  O_8
REMARK    3  A    between atoms: O_8  and  C_9
REMARK    4  A    between atoms: C_9  and  C_10
REMARK    5  A    between atoms: C_14  and  N_15
REMARK    6  A    between atoms: C_18  and  O_19
REMARK                            x       y       z     vdW  Elec       q    Type
REMARK                         _______ _______ _______ _____ _____    ______ ____
ROOT
ATOM      1  C   UNL     1      44.010   4.608  11.287  0.00  0.00    +0.000 C 
ATOM      2  C   UNL     1      42.924   3.703  11.838  0.00  0.00    +0.000 C 
ATOM      3  C   UNL     1      42.693   5.172  11.827  0.00  0.00    +0.000 C 
ENDROOT
BRANCH   1   4
ATOM      4  C   UNL     1      45.276   4.707  12.104  0.00  0.00    +0.000 A 
ATOM      5  C   UNL     1      45.723   3.641  12.882  0.00  0.00    +0.000 A 
ATOM      6  N   UNL     1      46.793   3.682  13.704  0.00  0.00    +0.000 NA
ATOM      7  C   UNL     1      47.459   4.861  13.756  0.00  0.00    +0.000 A 
ATOM      8  C   UNL     1      47.156   6.002  13.010  0.00  0.00    +0.000 A 
ATOM      9  C   UNL     1      46.050   5.876  12.163  0.00  0.00    +0.000 A 
BRANCH   8  10
ATOM     10  N   UNL     1      47.852   7.190  13.099  0.00  0.00    +0.000 N 
ATOM     11  C   UNL     1      49.269   7.281  12.752  0.00  0.00    +0.000 C 
ATOM     12  C   UNL     1      49.454   8.213  11.561  0.00  0.00    +0.000 C 
ATOM     13  C   UNL     1      48.763   9.559  11.782  0.00  0.00    +0.000 C 
ATOM     14  C   UNL     1      47.305   9.395  12.210  0.00  0.00    +0.000 C 
ATOM     15  C   UNL     1      47.161   8.445  13.397  0.00  0.00    +0.000 C 
BRANCH  13  16
ATOM     16  O   UNL     1      49.479  10.344  12.735  0.00  0.00    +0.000 OA
ATOM     17  H   UNL     1      50.394  10.024  12.789  0.00  0.00    +0.000 HD
ENDBRANCH  13  16
ENDBRANCH   8  10
ENDBRANCH   1   4
BRANCH   1  18
ATOM     18  O   UNL     1      44.154   4.932   9.885  0.00  0.00    +0.000 OA
BRANCH  18  22
ATOM     19  C   UNL     1      46.209   2.095   7.884  0.00  0.00    +0.000 A 
ATOM     20  C   UNL     1      46.396   3.432   7.567  0.00  0.00    +0.000 A 
ATOM     21  N   UNL     1      45.663   4.421   8.134  0.00  0.00    +0.000 NA
ATOM     22  C   UNL     1      44.767   4.017   9.061  0.00  0.00    +0.000 A 
ATOM     23  C   UNL     1      44.540   2.672   9.334  0.00  0.00    +0.000 A 
ATOM     24  N   UNL     1      45.247   1.669   8.753  0.00  0.00    +0.000 NA
BRANCH  19  26
ATOM     25  N   UNL     1      46.852  -0.222   7.637  0.00  0.00    +0.000 N 
ATOM     26  C   UNL     1      47.152   1.081   7.345  0.00  0.00    +0.000 C 
ATOM     27  O   UNL     1      48.151   1.389   6.708  0.00  0.00    +0.000 OA
ATOM     28  H   UNL     1      47.504  -0.949   7.377  0.00  0.00    +0.000 HD
ATOM     29  H   UNL     1      46.051  -0.438   8.221  0.00  0.00    +0.000 HD
ENDBRANCH  19  26
ENDBRANCH  18  22
ENDBRANCH   1  18
TORSDOF 6
ENDMDL
MODEL 2
REMARK VINA RESULT:    -8.205      1.609      2.202
REMARK INTER + INTRA:         -11.400
REMARK INTER:                 -10.785
REMARK INTRA:                  -0.615
REMARK UNBOUND:                -0.557
REMARK  Name = 
REMARK  6 active torsions:
REMARK  status: ('A' for Active; 'I' for Inactive)
REMARK    1  A    between atoms: C_2  and  C_4
REMARK    2  A    between atoms: C_7  and  O_8
REMARK    3  A    between atoms: O_8  and  C_9
REMARK    4  A    between atoms: C_9  and  C_10
REMARK    5  A    between atoms: C_14  and  N_15
REMARK    6  A    between atoms: C_18  and  O_19
REMARK                            x       y       z     vdW  Elec       q    Type
REMARK                         _______ _______ _______ _____ _____    ______ ____
ROOT
ATOM      1  C   UNL     1      44.400   4.502  11.440  0.00  0.00    +0.000 C 
ATOM      2  C   UNL     1      44.776   3.320  12.314  0.00  0.00    +0.000 C 
ATOM      3  C   UNL     1      43.409   3.894  12.437  0.00  0.00    +0.000 C 
ENDROOT
BRANCH   1   4
ATOM      4  C   UNL     1      45.092   5.808  11.749  0.00  0.00    +0.000 A 
ATOM      5  C   UNL     1      44.476   7.032  11.499  0.00  0.00    +0.000 A 
ATOM      6  N   UNL     1      45.060   8.238  11.667  0.00  0.00    +0.000 NA
ATOM      7  C   UNL     1      46.341   8.223  12.108  0.00  0.00    +0.000 A 
ATOM      8  C   UNL     1      47.076   7.082  12.437  0.00  0.00    +0.000 A 
ATOM      9  C   UNL     1      46.396   5.871  12.261  0.00  0.00    +0.000 A 
BRANCH   8  10
ATOM     10  N   UNL     1      48.385   7.106  12.873  0.00  0.00    +0.000 N 
ATOM     11  C   UNL     1      49.490   7.434  11.974  0.00  0.00    +0.000 C 
ATOM     12  C   UNL     1      50.176   8.713  12.436  0.00  0.00    +0.000 C 
ATOM     13  C   UNL     1      50.553   8.652  13.917  0.00  0.00    +0.000 C 
ATOM     14  C   UNL     1      49.373   8.237  14.796  0.00  0.00    +0.000 C 
ATOM     15  C   UNL     1      48.707   6.958  14.293  0.00  0.00    +0.000 C 
BRANCH  13  16
ATOM     16  O   UNL     1      51.660   7.773  14.119  0.00  0.00    +0.000 OA
ATOM     17  H   UNL     1      51.819   7.675  15.073  0.00  0.00    +0.000 HD
ENDBRANCH  13  16
ENDBRANCH   8  10
ENDBRANCH   1   4
BRANCH   1  18
ATOM     18  O   UNL     1      43.891   4.377  10.092  0.00  0.00    +0.000 OA
BRANCH  18  22
ATOM     19  C   UNL     1      46.535   2.508   7.686  0.00  0.00    +0.000 A 
ATOM     20  C   UNL     1      46.425   3.889   7.645  0.00  0.00    +0.000 A 
ATOM     21  N   UNL     1      45.488   4.564   8.355  0.00  0.00    +0.000 NA
ATOM     22  C   UNL     1      44.697   3.800   9.138  0.00  0.00    +0.000 A 
ATOM     23  C   UNL     1      44.769   2.411   9.133  0.00  0.00    +0.000 A 
ATOM     24  N   UNL     1      45.684   1.720   8.405  0.00  0.00    +0.000 NA
BRANCH  19  26
ATOM     25  N   UNL     1      48.518   2.680   6.315  0.00  0.00    +0.000 N 
ATOM     26  C   UNL     1      47.682   1.849   7.009  0.00  0.00    +0.000 C 
ATOM     27  O   UNL     1      47.852   0.637   7.042  0.00  0.00    +0.000 OA
ATOM     28  H   UNL     1      49.262   2.280   5.759  0.00  0.00    +0.000 HD
ATOM     29  H   UNL     1      48.312   3.672   6.256  0.00  0.00    +0.000 HD
ENDBRANCH  19  26
ENDBRANCH  18  22
ENDBRANCH   1  18
TORSDOF 6
ENDMDL
MODEL 3
REMARK VINA RESULT:    -7.978      2.323      3.410
REMARK INTER + INTRA:         -11.101
REMARK INTER:                 -10.870
REMARK INTRA:                  -0.231
REMARK UNBOUND:                -0.557
REMARK  Name = 
REMARK  6 active torsions:
REMARK  status: ('A' for Active; 'I' for Inactive)
REMARK    1  A    between atoms: C_2  and  C_4
REMARK    2  A    between atoms: C_7  and  O_8
REMARK    3  A    between atoms: O_8  and  C_9
REMARK    4  A    between atoms: C_9  and  C_10
REMARK    5  A    between atoms: C_14  and  N_15
REMARK    6  A    between atoms: C_18  and  O_19
REMARK                            x       y       z     vdW  Elec       q    Type
REMARK                         _______ _______ _______ _____ _____    ______ ____
ROOT
ATOM      1  C   UNL     1      44.378   4.613  11.622  0.00  0.00    +0.000 C 
ATOM      2  C   UNL     1      43.897   3.381  12.367  0.00  0.00    +0.000 C 
ATOM      3  C   UNL     1      43.032   4.592  12.354  0.00  0.00    +0.000 C 
ENDROOT
BRANCH   1   4
ATOM      4  C   UNL     1      45.562   5.336  12.219  0.00  0.00    +0.000 A 
ATOM      5  C   UNL     1      46.169   6.402  11.559  0.00  0.00    +0.000 A 
ATOM      6  N   UNL     1      47.280   7.040  11.985  0.00  0.00    +0.000 NA
ATOM      7  C   UNL     1      47.822   6.585  13.140  0.00  0.00    +0.000 A 
ATOM      8  C   UNL     1      47.308   5.555  13.931  0.00  0.00    +0.000 A 
ATOM      9  C   UNL     1      46.143   4.958  13.439  0.00  0.00    +0.000 A 
BRANCH   8  10
ATOM     10  N   UNL     1      47.897   5.111  15.098  0.00  0.00    +0.000 N 
ATOM     11  C   UNL     1      48.780   5.965  15.889  0.00  0.00    +0.000 C 
ATOM     12  C   UNL     1      48.170   6.217  17.262  0.00  0.00    +0.000 C 
ATOM     13  C   UNL     1      47.760   4.914  17.948  0.00  0.00    +0.000 C 
ATOM     14  C   UNL     1      46.895   4.034  17.045  0.00  0.00    +0.000 C 
ATOM     15  C   UNL     1      47.536   3.815  15.676  0.00  0.00    +0.000 C 
BRANCH  13  16
ATOM     16  O   UNL     1      48.909   4.195  18.393  0.00  0.00    +0.000 OA
ATOM     17  H   UNL     1      49.647   4.816  18.515  0.00  0.00    +0.000 HD
ENDBRANCH  13  16
ENDBRANCH   8  10
ENDBRANCH   1   4
BRANCH   1  18
ATOM     18  O   UNL     1      44.172   4.830  10.207  0.00  0.00    +0.000 OA
BRANCH  18  22
ATOM     19  C   UNL     1      46.169   2.105   8.002  0.00  0.00    +0.000 A 
ATOM     20  C   UNL     1      46.350   3.457   7.753  0.00  0.00    +0.000 A 
ATOM     21  N   UNL     1      45.633   4.414   8.392  0.00  0.00    +0.000 NA
ATOM     22  C   UNL     1      44.762   3.961   9.319  0.00  0.00    +0.000 A 
ATOM     23  C   UNL     1      44.540   2.603   9.525  0.00  0.00    +0.000 A 
ATOM     24  N   UNL     1      45.230   1.632   8.872  0.00  0.00    +0.000 NA
BRANCH  19  26
ATOM     25  N   UNL     1      46.834  -0.194   7.659  0.00  0.00    +0.000 N 
ATOM     26  C   UNL     1      47.096   1.121   7.385  0.00  0.00    +0.000 C 
ATOM     27  O   UNL     1      48.052   1.463   6.700  0.00  0.00    +0.000 OA
ATOM     28  H   UNL     1      47.481  -0.902   7.344  0.00  0.00    +0.000 HD
ATOM     29  H   UNL     1      46.071  -0.438   8.282  0.00  0.00    +0.000 HD
ENDBRANCH  19  26
ENDBRANCH  18  22
ENDBRANCH   1  18
TORSDOF 6
ENDMDL
MODEL 4
REMARK VINA RESULT:    -6.873      3.181      7.268
REMARK INTER + INTRA:          -9.641
REMARK INTER:                  -8.953
REMARK INTRA:                  -0.688
REMARK UNBOUND:                -0.557
REMARK  Name = 
REMARK  6 active torsions:
REMARK  status: ('A' for Active; 'I' for Inactive)
REMARK    1  A    between atoms: C_2  and  C_4
REMARK    2  A    between atoms: C_7  and  O_8
REMARK    3  A    between atoms: O_8  and  C_9
REMARK    4  A    between atoms: C_9  and  C_10
REMARK    5  A    between atoms: C_14  and  N_15
REMARK    6  A    between atoms: C_18  and  O_19
REMARK                            x       y       z     vdW  Elec       q    Type
REMARK                         _______ _______ _______ _____ _____    ______ ____
ROOT
ATOM      1  C   UNL     1      46.011   5.447  13.086  0.00  0.00    +0.000 C 
ATOM      2  C   UNL     1      47.125   6.170  12.353  0.00  0.00    +0.000 C 
ATOM      3  C   UNL     1      45.950   6.954  12.821  0.00  0.00    +0.000 C 
ENDROOT
BRANCH   1   4
ATOM      4  C   UNL     1      45.180   4.491  12.263  0.00  0.00    +0.000 A 
ATOM      5  C   UNL     1      44.134   3.766  12.829  0.00  0.00    +0.000 A 
ATOM      6  N   UNL     1      43.404   2.833  12.182  0.00  0.00    +0.000 NA
ATOM      7  C   UNL     1      43.740   2.604  10.889  0.00  0.00    +0.000 A 
ATOM      8  C   UNL     1      44.735   3.275  10.176  0.00  0.00    +0.000 A 
ATOM      9  C   UNL     1      45.432   4.245  10.905  0.00  0.00    +0.000 A 
BRANCH   8  10
ATOM     10  N   UNL     1      45.057   3.006   8.861  0.00  0.00    +0.000 N 
ATOM     11  C   UNL     1      45.325   4.073   7.899  0.00  0.00    +0.000 C 
ATOM     12  C   UNL     1      46.765   3.984   7.410  0.00  0.00    +0.000 C 
ATOM     13  C   UNL     1      47.111   2.579   6.917  0.00  0.00    +0.000 C 
ATOM     14  C   UNL     1      46.743   1.503   7.939  0.00  0.00    +0.000 C 
ATOM     15  C   UNL     1      45.297   1.633   8.412  0.00  0.00    +0.000 C 
BRANCH  13  16
ATOM     16  O   UNL     1      46.480   2.314   5.664  0.00  0.00    +0.000 OA
ATOM     17  H   UNL     1      45.582   1.979   5.823  0.00  0.00    +0.000 HD
ENDBRANCH  13  16
ENDBRANCH   8  10
ENDBRANCH   1   4
BRANCH   1  18
ATOM     18  O   UNL     1      46.016   5.191  14.509  0.00  0.00    +0.000 OA
BRANCH  18  22
ATOM     19  C   UNL     1      49.027   3.338  16.454  0.00  0.00    +0.000 A 
ATOM     20  C   UNL     1      48.852   4.706  16.600  0.00  0.00    +0.000 A 
ATOM     21  N   UNL     1      47.923   5.398  15.896  0.00  0.00    +0.000 NA
ATOM     22  C   UNL     1      47.151   4.656  15.074  0.00  0.00    +0.000 A 
ATOM     23  C   UNL     1      47.366   3.295  14.884  0.00  0.00    +0.000 A 
ATOM     24  N   UNL     1      48.312   2.594  15.561  0.00  0.00    +0.000 NA
BRANCH  19  26
ATOM     25  N   UNL     1      50.194   3.234  18.568  0.00  0.00    +0.000 N 
ATOM     26  C   UNL     1      49.951   2.621  17.369  0.00  0.00    +0.000 C 
ATOM     27  O   UNL     1      50.488   1.564  17.061  0.00  0.00    +0.000 OA
ATOM     28  H   UNL     1      50.884   2.841  19.193  0.00  0.00    +0.000 HD
ATOM     29  H   UNL     1      49.782   4.140  18.765  0.00  0.00    +0.000 HD
ENDBRANCH  19  26
ENDBRANCH  18  22
ENDBRANCH   1  18
TORSDOF 6
ENDMDL
MODEL 5
REMARK VINA RESULT:    -6.730      3.192      7.484
REMARK INTER + INTRA:          -9.451
REMARK INTER:                  -9.512
REMARK INTRA:                   0.061
REMARK UNBOUND:                -0.557
REMARK  Name = 
REMARK  6 active torsions:
REMARK  status: ('A' for Active; 'I' for Inactive)
REMARK    1  A    between atoms: C_2  and  C_4
REMARK    2  A    between atoms: C_7  and  O_8
REMARK    3  A    between atoms: O_8  and  C_9
REMARK    4  A    between atoms: C_9  and  C_10
REMARK    5  A    between atoms: C_14  and  N_15
REMARK    6  A    between atoms: C_18  and  O_19
REMARK                            x       y       z     vdW  Elec       q    Type
REMARK                         _______ _______ _______ _____ _____    ______ ____
ROOT
ATOM      1  C   UNL     1      48.493   8.023  12.891  0.00  0.00    +0.000 C 
ATOM      2  C   UNL     1      49.554   7.367  12.028  0.00  0.00    +0.000 C 
ATOM      3  C   UNL     1      49.611   8.839  12.235  0.00  0.00    +0.000 C 
ENDROOT
BRANCH   1   4
ATOM      4  C   UNL     1      47.093   8.049  12.325  0.00  0.00    +0.000 A 
ATOM      5  C   UNL     1      46.426   9.250  12.094  0.00  0.00    +0.000 A 
ATOM      6  N   UNL     1      45.147   9.353  11.673  0.00  0.00    +0.000 NA
ATOM      7  C   UNL     1      44.491   8.186  11.472  0.00  0.00    +0.000 A 
ATOM      8  C   UNL     1      45.035   6.908  11.623  0.00  0.00    +0.000 A 
ATOM      9  C   UNL     1      46.371   6.881  12.037  0.00  0.00    +0.000 A 
BRANCH   8  10
ATOM     10  N   UNL     1      44.329   5.740  11.419  0.00  0.00    +0.000 N 
ATOM     11  C   UNL     1      44.912   4.601  10.714  0.00  0.00    +0.000 C 
ATOM     12  C   UNL     1      45.019   3.405  11.652  0.00  0.00    +0.000 C 
ATOM     13  C   UNL     1      43.691   3.112  12.351  0.00  0.00    +0.000 C 
ATOM     14  C   UNL     1      43.099   4.358  13.010  0.00  0.00    +0.000 C 
ATOM     15  C   UNL     1      43.019   5.535  12.040  0.00  0.00    +0.000 C 
BRANCH  13  16
ATOM     16  O   UNL     1      42.756   2.538  11.437  0.00  0.00    +0.000 OA
ATOM     17  H   UNL     1      42.678   1.586  11.615  0.00  0.00    +0.000 HD
ENDBRANCH  13  16
ENDBRANCH   8  10
ENDBRANCH   1   4
BRANCH   1  18
ATOM     18  O   UNL     1      48.577   8.129  14.331  0.00  0.00    +0.000 OA
BRANCH  18  22
ATOM     19  C   UNL     1      48.083   4.791  16.543  0.00  0.00    +0.000 A 
ATOM     20  C   UNL     1      48.807   5.856  17.057  0.00  0.00    +0.000 A 
ATOM     21  N   UNL     1      49.091   6.962  16.325  0.00  0.00    +0.000 NA
ATOM     22  C   UNL     1      48.582   6.971  15.074  0.00  0.00    +0.000 A 
ATOM     23  C   UNL     1      47.907   5.878  14.540  0.00  0.00    +0.000 A 
ATOM     24  N   UNL     1      47.641   4.753  15.252  0.00  0.00    +0.000 NA
BRANCH  19  26
ATOM     25  N   UNL     1      48.601   3.308  18.380  0.00  0.00    +0.000 N 
ATOM     26  C   UNL     1      47.674   3.685  17.446  0.00  0.00    +0.000 C 
ATOM     27  O   UNL     1      46.591   3.124  17.345  0.00  0.00    +0.000 OA
ATOM     28  H   UNL     1      48.417   2.503  18.961  0.00  0.00    +0.000 HD
ATOM     29  H   UNL     1      49.513   3.753  18.395  0.00  0.00    +0.000 HD
ENDBRANCH  19  26
ENDBRANCH  18  22
ENDBRANCH   1  18
TORSDOF 6
ENDMDL
MODEL 6
REMARK VINA RESULT:    -6.664      4.198      8.068
REMARK INTER + INTRA:          -9.364
REMARK INTER:                  -9.215
REMARK INTRA:                  -0.149
REMARK UNBOUND:                -0.557
REMARK  Name = 
REMARK  6 active torsions:
REMARK  status: ('A' for Active; 'I' for Inactive)
REMARK    1  A    between atoms: C_2  and  C_4
REMARK    2  A    between atoms: C_7  and  O_8
REMARK    3  A    between atoms: O_8  and  C_9
REMARK    4  A    between atoms: C_9  and  C_10
REMARK    5  A    between atoms: C_14  and  N_15
REMARK    6  A    between atoms: C_18  and  O_19
REMARK                            x       y       z     vdW  Elec       q    Type
REMARK                         _______ _______ _______ _____ _____    ______ ____
ROOT
ATOM      1  C   UNL     1      48.937   6.471  15.795  0.00  0.00    +0.000 C 
ATOM      2  C   UNL     1      50.362   6.993  15.813  0.00  0.00    +0.000 C 
ATOM      3  C   UNL     1      49.290   7.820  16.428  0.00  0.00    +0.000 C 
ENDROOT
BRANCH   1   4
ATOM      4  C   UNL     1      48.264   6.414  14.444  0.00  0.00    +0.000 A 
ATOM      5  C   UNL     1      48.650   7.255  13.404  0.00  0.00    +0.000 A 
ATOM      6  N   UNL     1      48.042   7.324  12.200  0.00  0.00    +0.000 NA
ATOM      7  C   UNL     1      46.979   6.503  12.023  0.00  0.00    +0.000 A 
ATOM      8  C   UNL     1      46.498   5.581  12.955  0.00  0.00    +0.000 A 
ATOM      9  C   UNL     1      47.193   5.550  14.168  0.00  0.00    +0.000 A 
BRANCH   8  10
ATOM     10  N   UNL     1      45.402   4.769  12.742  0.00  0.00    +0.000 N 
ATOM     11  C   UNL     1      44.042   5.303  12.711  0.00  0.00    +0.000 C 
ATOM     12  C   UNL     1      43.432   5.096  11.330  0.00  0.00    +0.000 C 
ATOM     13  C   UNL     1      43.559   3.644  10.866  0.00  0.00    +0.000 C 
ATOM     14  C   UNL     1      44.991   3.123  10.988  0.00  0.00    +0.000 C 
ATOM     15  C   UNL     1      45.569   3.360  12.382  0.00  0.00    +0.000 C 
BRANCH  13  16
ATOM     16  O   UNL     1      42.658   2.804  11.586  0.00  0.00    +0.000 OA
ATOM     17  H   UNL     1      41.807   2.773  11.119  0.00  0.00    +0.000 HD
ENDBRANCH  13  16
ENDBRANCH   8  10
ENDBRANCH   1   4
BRANCH   1  18
ATOM     18  O   UNL     1      48.393   5.579  16.794  0.00  0.00    +0.000 OA
BRANCH  18  22
ATOM     19  C   UNL     1      50.931   2.545  17.591  0.00  0.00    +0.000 A 
ATOM     20  C   UNL     1      49.825   2.323  16.785  0.00  0.00    +0.000 A 
ATOM     21  N   UNL     1      48.886   3.275  16.563  0.00  0.00    +0.000 NA
ATOM     22  C   UNL     1      49.124   4.468  17.148  0.00  0.00    +0.000 A 
ATOM     23  C   UNL     1      50.202   4.672  18.004  0.00  0.00    +0.000 A 
ATOM     24  N   UNL     1      51.135   3.718  18.258  0.00  0.00    +0.000 NA
BRANCH  19  26
ATOM     25  N   UNL     1      51.596   0.270  18.063  0.00  0.00    +0.000 N 
ATOM     26  C   UNL     1      51.999   1.515  17.663  0.00  0.00    +0.000 C 
ATOM     27  O   UNL     1      53.170   1.768  17.411  0.00  0.00    +0.000 OA
ATOM     28  H   UNL     1      52.290  -0.447  18.219  0.00  0.00    +0.000 HD
ATOM     29  H   UNL     1      50.628   0.111  18.325  0.00  0.00    +0.000 HD
ENDBRANCH  19  26
ENDBRANCH  18  22
ENDBRANCH   1  18
TORSDOF 6
ENDMDL
MODEL 7
REMARK VINA RESULT:    -6.656      3.324      7.622
REMARK INTER + INTRA:          -9.354
REMARK INTER:                  -8.756
REMARK INTRA:                  -0.598
REMARK UNBOUND:                -0.557
REMARK  Name = 
REMARK  6 active torsions:
REMARK  status: ('A' for Active; 'I' for Inactive)
REMARK    1  A    between atoms: C_2  and  C_4
REMARK    2  A    between atoms: C_7  and  O_8
REMARK    3  A    between atoms: O_8  and  C_9
REMARK    4  A    between atoms: C_9  and  C_10
REMARK    5  A    between atoms: C_14  and  N_15
REMARK    6  A    between atoms: C_18  and  O_19
REMARK                            x       y       z     vdW  Elec       q    Type
REMARK                         _______ _______ _______ _____ _____    ______ ____
ROOT
ATOM      1  C   UNL     1      48.845   7.923  14.334  0.00  0.00    +0.000 C 
ATOM      2  C   UNL     1      50.127   7.726  13.547  0.00  0.00    +0.000 C 
ATOM      3  C   UNL     1      49.784   9.092  14.025  0.00  0.00    +0.000 C 
ENDROOT
BRANCH   1   4
ATOM      4  C   UNL     1      47.556   7.753  13.565  0.00  0.00    +0.000 A 
ATOM      5  C   UNL     1      46.618   8.779  13.486  0.00  0.00    +0.000 A 
ATOM      6  N   UNL     1      45.409   8.675  12.893  0.00  0.00    +0.000 NA
ATOM      7  C   UNL     1      45.116   7.470  12.347  0.00  0.00    +0.000 A 
ATOM      8  C   UNL     1      45.966   6.363  12.313  0.00  0.00    +0.000 A 
ATOM      9  C   UNL     1      47.209   6.554  12.925  0.00  0.00    +0.000 A 
BRANCH   8  10
ATOM     10  N   UNL     1      45.626   5.146  11.756  0.00  0.00    +0.000 N 
ATOM     11  C   UNL     1      45.502   3.936  12.566  0.00  0.00    +0.000 C 
ATOM     12  C   UNL     1      44.067   3.426  12.526  0.00  0.00    +0.000 C 
ATOM     13  C   UNL     1      43.553   3.290  11.092  0.00  0.00    +0.000 C 
ATOM     14  C   UNL     1      43.774   4.564  10.277  0.00  0.00    +0.000 C 
ATOM     15  C   UNL     1      45.221   5.048  10.353  0.00  0.00    +0.000 C 
BRANCH  13  16
ATOM     16  O   UNL     1      44.158   2.171  10.444  0.00  0.00    +0.000 OA
ATOM     17  H   UNL     1      44.758   1.728  11.067  0.00  0.00    +0.000 HD
ENDBRANCH  13  16
ENDBRANCH   8  10
ENDBRANCH   1   4
BRANCH   1  18
ATOM     18  O   UNL     1      48.740   7.732  15.763  0.00  0.00    +0.000 OA
BRANCH  18  22
ATOM     19  C   UNL     1      49.505   3.925  16.857  0.00  0.00    +0.000 A 
ATOM     20  C   UNL     1      48.229   4.280  16.447  0.00  0.00    +0.000 A 
ATOM     21  N   UNL     1      47.887   5.561  16.163  0.00  0.00    +0.000 NA
ATOM     22  C   UNL     1      48.888   6.461  16.268  0.00  0.00    +0.000 A 
ATOM     23  C   UNL     1      50.151   6.114  16.736  0.00  0.00    +0.000 A 
ATOM     24  N   UNL     1      50.499   4.839  17.051  0.00  0.00    +0.000 NA
BRANCH  19  26
ATOM     25  N   UNL     1      50.664   2.173  18.052  0.00  0.00    +0.000 N 
ATOM     26  C   UNL     1      49.851   2.487  16.997  0.00  0.00    +0.000 C 
ATOM     27  O   UNL     1      49.462   1.640  16.204  0.00  0.00    +0.000 OA
ATOM     28  H   UNL     1      51.008   1.228  18.146  0.00  0.00    +0.000 HD
ATOM     29  H   UNL     1      51.019   2.909  18.654  0.00  0.00    +0.000 HD
ENDBRANCH  19  26
ENDBRANCH  18  22
ENDBRANCH   1  18
TORSDOF 6
ENDMDL
MODEL 8
REMARK VINA RESULT:    -6.638      3.597      6.090
REMARK INTER + INTRA:          -9.330
REMARK INTER:                  -8.792
REMARK INTRA:                  -0.538
REMARK UNBOUND:                -0.557
REMARK  Name = 
REMARK  6 active torsions:
REMARK  status: ('A' for Active; 'I' for Inactive)
REMARK    1  A    between atoms: C_2  and  C_4
REMARK    2  A    between atoms: C_7  and  O_8
REMARK    3  A    between atoms: O_8  and  C_9
REMARK    4  A    between atoms: C_9  and  C_10
REMARK    5  A    between atoms: C_14  and  N_15
REMARK    6  A    between atoms: C_18  and  O_19
REMARK                            x       y       z     vdW  Elec       q    Type
REMARK                         _______ _______ _______ _____ _____    ______ ____
ROOT
ATOM      1  C   UNL     1      48.058   7.959  13.227  0.00  0.00    +0.000 C 
ATOM      2  C   UNL     1      46.944   8.910  13.625  0.00  0.00    +0.000 C 
ATOM      3  C   UNL     1      47.974   9.379  12.659  0.00  0.00    +0.000 C 
ENDROOT
BRANCH   1   4
ATOM      4  C   UNL     1      49.066   7.623  14.300  0.00  0.00    +0.000 A 
ATOM      5  C   UNL     1      50.380   8.079  14.230  0.00  0.00    +0.000 A 
ATOM      6  N   UNL     1      51.358   7.751  15.102  0.00  0.00    +0.000 NA
ATOM      7  C   UNL     1      51.004   6.913  16.106  0.00  0.00    +0.000 A 
ATOM      8  C   UNL     1      49.722   6.405  16.329  0.00  0.00    +0.000 A 
ATOM      9  C   UNL     1      48.757   6.808  15.400  0.00  0.00    +0.000 A 
BRANCH   8  10
ATOM     10  N   UNL     1      49.402   5.542  17.358  0.00  0.00    +0.000 N 
ATOM     11  C   UNL     1      48.128   5.630  18.069  0.00  0.00    +0.000 C 
ATOM     12  C   UNL     1      47.320   4.358  17.850  0.00  0.00    +0.000 C 
ATOM     13  C   UNL     1      48.139   3.104  18.160  0.00  0.00    +0.000 C 
ATOM     14  C   UNL     1      49.488   3.105  17.441  0.00  0.00    +0.000 C 
ATOM     15  C   UNL     1      50.262   4.401  17.677  0.00  0.00    +0.000 C 
BRANCH  13  16
ATOM     16  O   UNL     1      48.324   2.958  19.568  0.00  0.00    +0.000 OA
ATOM     17  H   UNL     1      48.769   3.749  19.916  0.00  0.00    +0.000 HD
ENDBRANCH  13  16
ENDBRANCH   8  10
ENDBRANCH   1   4
BRANCH   1  18
ATOM     18  O   UNL     1      47.947   6.989  12.160  0.00  0.00    +0.000 OA
BRANCH  18  22
ATOM     19  C   UNL     1      44.915   4.347  11.839  0.00  0.00    +0.000 A 
ATOM     20  C   UNL     1      45.000   5.407  10.950  0.00  0.00    +0.000 A 
ATOM     21  N   UNL     1      45.937   6.381  11.069  0.00  0.00    +0.000 NA
ATOM     22  C   UNL     1      46.807   6.222  12.089  0.00  0.00    +0.000 A 
ATOM     23  C   UNL     1      46.684   5.191  13.014  0.00  0.00    +0.000 A 
ATOM     24  N   UNL     1      45.734   4.225  12.924  0.00  0.00    +0.000 NA
BRANCH  19  26
ATOM     25  N   UNL     1      43.792   2.337  12.575  0.00  0.00    +0.000 N 
ATOM     26  C   UNL     1      43.970   3.236  11.558  0.00  0.00    +0.000 C 
ATOM     27  O   UNL     1      43.409   3.111  10.477  0.00  0.00    +0.000 OA
ATOM     28  H   UNL     1      43.233   1.511  12.411  0.00  0.00    +0.000 HD
ATOM     29  H   UNL     1      44.321   2.435  13.435  0.00  0.00    +0.000 HD
ENDBRANCH  19  26
ENDBRANCH  18  22
ENDBRANCH   1  18
TORSDOF 6
ENDMDL
MODEL 9
REMARK VINA RESULT:    -6.407      4.084      6.578
REMARK INTER + INTRA:          -9.024
REMARK INTER:                  -8.253
REMARK INTRA:                  -0.771
REMARK UNBOUND:                -0.557
REMARK  Name = 
REMARK  6 active torsions:
REMARK  status: ('A' for Active; 'I' for Inactive)
REMARK    1  A    between atoms: C_2  and  C_4
REMARK    2  A    between atoms: C_7  and  O_8
REMARK    3  A    between atoms: O_8  and  C_9
REMARK    4  A    between atoms: C_9  and  C_10
REMARK    5  A    between atoms: C_14  and  N_15
REMARK    6  A    between atoms: C_18  and  O_19
REMARK                            x       y       z     vdW  Elec       q    Type
REMARK                         _______ _______ _______ _____ _____    ______ ____
ROOT
ATOM      1  C   UNL     1      48.830   7.321  13.215  0.00  0.00    +0.000 C 
ATOM      2  C   UNL     1      48.759   8.416  12.167  0.00  0.00    +0.000 C 
ATOM      3  C   UNL     1      50.066   7.753  12.421  0.00  0.00    +0.000 C 
ENDROOT
BRANCH   1   4
ATOM      4  C   UNL     1      48.651   7.756  14.650  0.00  0.00    +0.000 A 
ATOM      5  C   UNL     1      48.167   9.023  14.969  0.00  0.00    +0.000 A 
ATOM      6  N   UNL     1      48.062   9.515  16.222  0.00  0.00    +0.000 NA
ATOM      7  C   UNL     1      48.468   8.694  17.220  0.00  0.00    +0.000 A 
ATOM      8  C   UNL     1      48.939   7.389  17.061  0.00  0.00    +0.000 A 
ATOM      9  C   UNL     1      48.997   6.940  15.737  0.00  0.00    +0.000 A 
BRANCH   8  10
ATOM     10  N   UNL     1      49.356   6.587  18.103  0.00  0.00    +0.000 N 
ATOM     11  C   UNL     1      49.071   6.924  19.497  0.00  0.00    +0.000 C 
ATOM     12  C   UNL     1      48.176   5.859  20.118  0.00  0.00    +0.000 C 
ATOM     13  C   UNL     1      48.736   4.452  19.904  0.00  0.00    +0.000 C 
ATOM     14  C   UNL     1      49.079   4.186  18.438  0.00  0.00    +0.000 C 
ATOM     15  C   UNL     1      49.966   5.281  17.849  0.00  0.00    +0.000 C 
BRANCH  13  16
ATOM     16  O   UNL     1      49.878   4.232  20.732  0.00  0.00    +0.000 OA
ATOM     17  H   UNL     1      50.477   4.993  20.658  0.00  0.00    +0.000 HD
ENDBRANCH  13  16
ENDBRANCH   8  10
ENDBRANCH   1   4
BRANCH   1  18
ATOM     18  O   UNL     1      48.529   5.932  12.950  0.00  0.00    +0.000 OA
BRANCH  18  22
ATOM     19  C   UNL     1      44.835   4.338  12.647  0.00  0.00    +0.000 A 
ATOM     20  C   UNL     1      45.227   5.336  11.768  0.00  0.00    +0.000 A 
ATOM     21  N   UNL     1      46.416   5.978  11.883  0.00  0.00    +0.000 NA
ATOM     22  C   UNL     1      47.209   5.547  12.888  0.00  0.00    +0.000 A 
ATOM     23  C   UNL     1      46.790   4.588  13.803  0.00  0.00    +0.000 A 
ATOM     24  N   UNL     1      45.590   3.957  13.717  0.00  0.00    +0.000 NA
BRANCH  19  26
ATOM     25  N   UNL     1      42.645   4.224  11.630  0.00  0.00    +0.000 N 
ATOM     26  C   UNL     1      43.594   3.570  12.368  0.00  0.00    +0.000 C 
ATOM     27  O   UNL     1      43.415   2.438  12.798  0.00  0.00    +0.000 OA
ATOM     28  H   UNL     1      41.745   3.788  11.486  0.00  0.00    +0.000 HD
ATOM     29  H   UNL     1      42.800   5.185  11.343  0.00  0.00    +0.000 HD
ENDBRANCH  19  26
ENDBRANCH  18  22
ENDBRANCH   1  18
TORSDOF 6
ENDMDL
