MODEL 1
REMARK VINA RESULT:    -6.969      0.000      0.000
REMARK INTER + INTRA:         -10.306
REMARK INTER:                  -9.413
REMARK INTRA:                  -0.893
REMARK UNBOUND:                -0.893
REMARK  Name = 
REMARK  8 active torsions:
REMARK  status: ('A' for Active; 'I' for Inactive)
REMARK    1  A    between atoms: C_1  and  C_2
REMARK    2  A    between atoms: C_2  and  N_3
REMARK    3  A    between atoms: C_2  and  C_22
REMARK    4  A    between atoms: C_4  and  C_6
REMARK    5  A    between atoms: C_9  and  C_10
REMARK    6  A    between atoms: C_10  and  N_11
REMARK    7  A    between atoms: C_12  and  C_14
REMARK    8  A    between atoms: N_17  and  C_18
REMARK                            x       y       z     vdW  Elec       q    Type
REMARK                         _______ _______ _______ _____ _____    ______ ____
ROOT
ATOM      1  N   UNL     1      48.916   9.282  14.479  0.00  0.00    +0.000 N 
ATOM      2  C   UNL     1      49.505   8.888  13.308  0.00  0.00    +0.000 C 
ATOM      3  O   UNL     1      50.668   8.498  13.261  0.00  0.00    +0.000 OA
ATOM      4  H   UNL     1      48.045   9.793  14.439  0.00  0.00    +0.000 HD
ENDROOT
BRANCH   2   5
ATOM      5  C   UNL     1      48.583   8.905  12.076  0.00  0.00    +0.000 C 
ATOM      6  C   UNL     1      48.426   7.529  11.419  0.00  0.00    +0.000 C 
ATOM      7  C   UNL     1      47.728   6.552  12.361  0.00  0.00    +0.000 C 
ATOM      8  C   UNL     1      46.342   7.049  12.810  0.00  0.00    +0.000 C 
ATOM      9  C   UNL     1      46.403   8.490  13.343  0.00  0.00    +0.000 C 
ATOM     10  C   UNL     1      47.192   9.449  12.441  0.00  0.00    +0.000 C 
BRANCH   8  11
ATOM     11  C   UNL     1      45.277   6.946  11.705  0.00  0.00    +0.000 C 
BRANCH  11  12
ATOM     12  N   UNL     1      45.534   5.853  10.802  0.00  0.00    +0.000 N 
ATOM     13  C   UNL     1      44.554   5.000  10.347  0.00  0.00    +0.000 C 
ATOM     14  O   UNL     1      43.377   5.062  10.689  0.00  0.00    +0.000 OA
ATOM     15  H   UNL     1      46.461   5.706  10.406  0.00  0.00    +0.000 HD
BRANCH  13  16
ATOM     16  C   UNL     1      45.056   3.998   9.398  0.00  0.00    +0.000 A 
ATOM     17  C   UNL     1      45.013   2.589   9.555  0.00  0.00    +0.000 A 
ATOM     18  C   UNL     1      45.600   2.075   8.425  0.00  0.00    +0.000 A 
ATOM     19  N   UNL     1      45.957   3.151   7.669  0.00  0.00    +0.000 N 
ATOM     20  C   UNL     1      46.635   3.124   6.395  0.00  0.00    +0.000 C 
ATOM     21  N   UNL     1      45.637   4.335   8.226  0.00  0.00    +0.000 NA
ENDBRANCH  13  16
ENDBRANCH  11  12
ENDBRANCH   8  11
ENDBRANCH   2   5
BRANCH   1  23
ATOM     22  C   UNL     1      50.184  10.879  15.861  0.00  0.00    +0.000 C 
ATOM     23  C   UNL     1      49.696   9.443  15.694  0.00  0.00    +0.000 C 
BRANCH  23  24
ATOM     24  C   UNL     1      48.868   8.927  16.848  0.00  0.00    +0.000 A 
ATOM     25  C   UNL     1      48.274   9.765  17.781  0.00  0.00    +0.000 A 
ATOM     26  S   UNL     1      47.533   8.924  19.069  0.00  0.00    +0.000 S 
ATOM     27  C   UNL     1      48.011   7.417  18.436  0.00  0.00    +0.000 A 
ATOM     28  N   UNL     1      47.802   6.260  19.123  0.00  0.00    +0.000 NA
ATOM     29  C   UNL     1      48.249   5.204  18.531  0.00  0.00    +0.000 A 
ATOM     30  N   UNL     1      48.838   5.187  17.291  0.00  0.00    +0.000 N 
ATOM     31  C   UNL     1      49.060   6.326  16.557  0.00  0.00    +0.000 A 
ATOM     32  O   UNL     1      49.612   6.288  15.462  0.00  0.00    +0.000 OA
ATOM     33  C   UNL     1      48.640   7.550  17.214  0.00  0.00    +0.000 A 
ATOM     34  H   UNL     1      49.156   4.323  16.879  0.00  0.00    +0.000 HD
ENDBRANCH  23  24
ENDBRANCH   1  23
TORSDOF 6
ENDMDL
MODEL 2
REMARK VINA RESULT:    -6.917      2.469      3.489
REMARK INTER + INTRA:         -10.235
REMARK INTER:                 -10.076
REMARK INTRA:                  -0.159
REMARK UNBOUND:                -0.893
REMARK  Name = 
REMARK  8 active torsions:
REMARK  status: ('A' for Active; 'I' for Inactive)
REMARK    1  A    between atoms: C_1  and  C_2
REMARK    2  A    between atoms: C_2  and  N_3
REMARK    3  A    between atoms: C_2  and  C_22
REMARK    4  A    between atoms: C_4  and  C_6
REMARK    5  A    between atoms: C_9  and  C_10
REMARK    6  A    between atoms: C_10  and  N_11
REMARK    7  A    between atoms: C_12  and  C_14
REMARK    8  A    between atoms: N_17  and  C_18
REMARK                            x       y       z     vdW  Elec       q    Type
REMARK                         _______ _______ _______ _____ _____    ______ ____
ROOT
ATOM      1  N   UNL     1      48.492   5.527  15.796  0.00  0.00    +0.000 N 
ATOM      2  C   UNL     1      48.538   6.787  15.265  0.00  0.00    +0.000 C 
ATOM      3  O   UNL     1      48.586   7.791  15.969  0.00  0.00    +0.000 OA
ATOM      4  H   UNL     1      48.235   4.754  15.196  0.00  0.00    +0.000 HD
ENDROOT
BRANCH   2   5
ATOM      5  C   UNL     1      48.594   6.846  13.728  0.00  0.00    +0.000 C 
ATOM      6  C   UNL     1      47.833   5.701  13.051  0.00  0.00    +0.000 C 
ATOM      7  C   UNL     1      46.338   5.790  13.346  0.00  0.00    +0.000 C 
ATOM      8  C   UNL     1      45.724   7.130  12.898  0.00  0.00    +0.000 C 
ATOM      9  C   UNL     1      46.535   8.327  13.421  0.00  0.00    +0.000 C 
ATOM     10  C   UNL     1      48.049   8.187  13.212  0.00  0.00    +0.000 C 
BRANCH   8  11
ATOM     11  C   UNL     1      45.561   7.237  11.373  0.00  0.00    +0.000 C 
BRANCH  11  12
ATOM     12  N   UNL     1      45.634   5.953  10.726  0.00  0.00    +0.000 N 
ATOM     13  C   UNL     1      44.529   5.175  10.459  0.00  0.00    +0.000 C 
ATOM     14  O   UNL     1      43.382   5.480  10.773  0.00  0.00    +0.000 OA
ATOM     15  H   UNL     1      46.518   5.590  10.375  0.00  0.00    +0.000 HD
BRANCH  13  16
ATOM     16  C   UNL     1      44.855   3.932   9.749  0.00  0.00    +0.000 A 
ATOM     17  C   UNL     1      44.294   2.651   9.986  0.00  0.00    +0.000 A 
ATOM     18  C   UNL     1      44.909   1.810   9.090  0.00  0.00    +0.000 A 
ATOM     19  N   UNL     1      45.776   2.587   8.383  0.00  0.00    +0.000 N 
ATOM     20  C   UNL     1      46.673   2.151   7.341  0.00  0.00    +0.000 C 
ATOM     21  N   UNL     1      45.767   3.883   8.752  0.00  0.00    +0.000 NA
ENDBRANCH  13  16
ENDBRANCH  11  12
ENDBRANCH   8  11
ENDBRANCH   2   5
BRANCH   1  23
ATOM     22  C   UNL     1      47.137   4.374  17.501  0.00  0.00    +0.000 C 
ATOM     23  C   UNL     1      48.303   5.319  17.221  0.00  0.00    +0.000 C 
BRANCH  23  24
ATOM     24  C   UNL     1      49.622   4.872  17.804  0.00  0.00    +0.000 A 
ATOM     25  C   UNL     1      50.448   5.717  18.532  0.00  0.00    +0.000 A 
ATOM     26  S   UNL     1      51.949   5.009  18.937  0.00  0.00    +0.000 S 
ATOM     27  C   UNL     1      51.553   3.565  18.126  0.00  0.00    +0.000 A 
ATOM     28  N   UNL     1      52.462   2.562  17.978  0.00  0.00    +0.000 NA
ATOM     29  C   UNL     1      52.026   1.546  17.311  0.00  0.00    +0.000 A 
ATOM     30  N   UNL     1      50.749   1.414  16.825  0.00  0.00    +0.000 N 
ATOM     31  C   UNL     1      49.796   2.393  16.959  0.00  0.00    +0.000 A 
ATOM     32  O   UNL     1      48.669   2.261  16.493  0.00  0.00    +0.000 OA
ATOM     33  C   UNL     1      50.262   3.588  17.639  0.00  0.00    +0.000 A 
ATOM     34  H   UNL     1      50.469   0.586  16.321  0.00  0.00    +0.000 HD
ENDBRANCH  23  24
ENDBRANCH   1  23
TORSDOF 6
ENDMDL
MODEL 3
REMARK VINA RESULT:    -6.484      1.806      2.288
REMARK INTER + INTRA:          -9.651
REMARK INTER:                  -9.608
REMARK INTRA:                  -0.043
REMARK UNBOUND:                -0.893
REMARK  Name = 
REMARK  8 active torsions:
REMARK  status: ('A' for Active; 'I' for Inactive)
REMARK    1  A    between atoms: C_1  and  C_2
REMARK    2  A    between atoms: C_2  and  N_3
REMARK    3  A    between atoms: C_2  and  C_22
REMARK    4  A    between atoms: C_4  and  C_6
REMARK    5  A    between atoms: C_9  and  C_10
REMARK    6  A    between atoms: C_10  and  N_11
REMARK    7  A    between atoms: C_12  and  C_14
REMARK    8  A    between atoms: N_17  and  C_18
REMARK                            x       y       z     vdW  Elec       q    Type
REMARK                         _______ _______ _______ _____ _____    ______ ____
ROOT
ATOM      1  N   UNL     1      48.670   7.644  14.376  0.00  0.00    +0.000 N 
ATOM      2  C   UNL     1      48.844   8.733  13.567  0.00  0.00    +0.000 C 
ATOM      3  O   UNL     1      49.529   9.695  13.904  0.00  0.00    +0.000 OA
ATOM      4  H   UNL     1      47.935   6.985  14.156  0.00  0.00    +0.000 HD
ENDROOT
BRANCH   2   5
ATOM      5  C   UNL     1      48.179   8.631  12.183  0.00  0.00    +0.000 C 
ATOM      6  C   UNL     1      47.800   7.197  11.798  0.00  0.00    +0.000 C 
ATOM      7  C   UNL     1      46.732   6.645  12.738  0.00  0.00    +0.000 C 
ATOM      8  C   UNL     1      45.456   7.508  12.758  0.00  0.00    +0.000 C 
ATOM      9  C   UNL     1      45.782   8.993  12.989  0.00  0.00    +0.000 C 
ATOM     10  C   UNL     1      46.926   9.518  12.111  0.00  0.00    +0.000 C 
BRANCH   8  11
ATOM     11  C   UNL     1      44.603   7.352  11.488  0.00  0.00    +0.000 C 
BRANCH  11  12
ATOM     12  N   UNL     1      44.982   6.197  10.716  0.00  0.00    +0.000 N 
ATOM     13  C   UNL     1      44.111   5.179  10.397  0.00  0.00    +0.000 C 
ATOM     14  O   UNL     1      42.940   5.138  10.763  0.00  0.00    +0.000 OA
ATOM     15  H   UNL     1      45.914   6.116  10.313  0.00  0.00    +0.000 HD
BRANCH  13  16
ATOM     16  C   UNL     1      44.720   4.137   9.561  0.00  0.00    +0.000 A 
ATOM     17  C   UNL     1      44.681   2.738   9.792  0.00  0.00    +0.000 A 
ATOM     18  C   UNL     1      45.388   2.175   8.757  0.00  0.00    +0.000 A 
ATOM     19  N   UNL     1      45.804   3.215   7.981  0.00  0.00    +0.000 N 
ATOM     20  C   UNL     1      46.609   3.132   6.787  0.00  0.00    +0.000 C 
ATOM     21  N   UNL     1      45.413   4.422   8.436  0.00  0.00    +0.000 NA
ENDBRANCH  13  16
ENDBRANCH  11  12
ENDBRANCH   8  11
ENDBRANCH   2   5
BRANCH   1  23
ATOM     22  C   UNL     1      48.326   8.635  16.606  0.00  0.00    +0.000 C 
ATOM     23  C   UNL     1      49.127   7.653  15.755  0.00  0.00    +0.000 C 
BRANCH  23  24
ATOM     24  C   UNL     1      49.107   6.230  16.260  0.00  0.00    +0.000 A 
ATOM     25  C   UNL     1      47.948   5.470  16.321  0.00  0.00    +0.000 A 
ATOM     26  S   UNL     1      48.172   3.955  17.079  0.00  0.00    +0.000 S 
ATOM     27  C   UNL     1      49.816   4.282  17.376  0.00  0.00    +0.000 A 
ATOM     28  N   UNL     1      50.586   3.436  18.113  0.00  0.00    +0.000 NA
ATOM     29  C   UNL     1      51.803   3.836  18.281  0.00  0.00    +0.000 A 
ATOM     30  N   UNL     1      52.338   4.976  17.735  0.00  0.00    +0.000 N 
ATOM     31  C   UNL     1      51.604   5.854  16.976  0.00  0.00    +0.000 A 
ATOM     32  O   UNL     1      52.099   6.880  16.520  0.00  0.00    +0.000 OA
ATOM     33  C   UNL     1      50.209   5.484  16.821  0.00  0.00    +0.000 A 
ATOM     34  H   UNL     1      53.302   5.225  17.896  0.00  0.00    +0.000 HD
ENDBRANCH  23  24
ENDBRANCH   1  23
TORSDOF 6
ENDMDL
MODEL 4
REMARK VINA RESULT:    -6.328      2.278      2.945
REMARK INTER + INTRA:          -9.440
REMARK INTER:                  -8.817
REMARK INTRA:                  -0.623
REMARK UNBOUND:                -0.893
REMARK  Name = 
REMARK  8 active torsions:
REMARK  status: ('A' for Active; 'I' for Inactive)
REMARK    1  A    between atoms: C_1  and  C_2
REMARK    2  A    between atoms: C_2  and  N_3
REMARK    3  A    between atoms: C_2  and  C_22
REMARK    4  A    between atoms: C_4  and  C_6
REMARK    5  A    between atoms: C_9  and  C_10
REMARK    6  A    between atoms: C_10  and  N_11
REMARK    7  A    between atoms: C_12  and  C_14
REMARK    8  A    between atoms: N_17  and  C_18
REMARK                            x       y       z     vdW  Elec       q    Type
REMARK                         _______ _______ _______ _____ _____    ______ ____
ROOT
ATOM      1  N   UNL     1      48.588   6.414  15.211  0.00  0.00    +0.000 N 
ATOM      2  C   UNL     1      48.261   7.650  14.724  0.00  0.00    +0.000 C 
ATOM      3  O   UNL     1      48.125   8.626  15.457  0.00  0.00    +0.000 OA
ATOM      4  H   UNL     1      48.476   5.608  14.611  0.00  0.00    +0.000 HD
ENDROOT
BRANCH   2   5
ATOM      5  C   UNL     1      48.146   7.738  13.192  0.00  0.00    +0.000 C 
ATOM      6  C   UNL     1      47.705   6.422  12.541  0.00  0.00    +0.000 C 
ATOM      7  C   UNL     1      46.291   6.048  12.974  0.00  0.00    +0.000 C 
ATOM      8  C   UNL     1      45.259   7.139  12.635  0.00  0.00    +0.000 C 
ATOM      9  C   UNL     1      45.716   8.522  13.130  0.00  0.00    +0.000 C 
ATOM     10  C   UNL     1      47.173   8.853  12.779  0.00  0.00    +0.000 C 
BRANCH   8  11
ATOM     11  C   UNL     1      44.922   7.207  11.136  0.00  0.00    +0.000 C 
BRANCH  11  12
ATOM     12  N   UNL     1      45.222   5.974  10.455  0.00  0.00    +0.000 N 
ATOM     13  C   UNL     1      44.281   5.003  10.196  0.00  0.00    +0.000 C 
ATOM     14  O   UNL     1      43.107   5.074  10.547  0.00  0.00    +0.000 OA
ATOM     15  H   UNL     1      46.149   5.796  10.074  0.00  0.00    +0.000 HD
BRANCH  13  16
ATOM     16  C   UNL     1      44.820   3.861   9.447  0.00  0.00    +0.000 A 
ATOM     17  C   UNL     1      44.535   2.490   9.675  0.00  0.00    +0.000 A 
ATOM     18  C   UNL     1      45.269   1.802   8.739  0.00  0.00    +0.000 A 
ATOM     19  N   UNL     1      45.935   2.748   8.019  0.00  0.00    +0.000 N 
ATOM     20  C   UNL     1      46.859   2.516   6.936  0.00  0.00    +0.000 C 
ATOM     21  N   UNL     1      45.683   4.010   8.418  0.00  0.00    +0.000 NA
ENDBRANCH  13  16
ENDBRANCH  11  12
ENDBRANCH   8  11
ENDBRANCH   2   5
BRANCH   1  23
ATOM     22  C   UNL     1      48.114   4.736  16.953  0.00  0.00    +0.000 C 
ATOM     23  C   UNL     1      48.602   6.149  16.640  0.00  0.00    +0.000 C 
BRANCH  23  24
ATOM     24  C   UNL     1      49.986   6.460  17.156  0.00  0.00    +0.000 A 
ATOM     25  C   UNL     1      51.125   6.346  16.371  0.00  0.00    +0.000 A 
ATOM     26  S   UNL     1      52.573   6.601  17.241  0.00  0.00    +0.000 S 
ATOM     27  C   UNL     1      51.724   6.839  18.698  0.00  0.00    +0.000 A 
ATOM     28  N   UNL     1      52.376   6.985  19.884  0.00  0.00    +0.000 NA
ATOM     29  C   UNL     1      51.597   7.123  20.904  0.00  0.00    +0.000 A 
ATOM     30  N   UNL     1      50.227   7.184  20.844  0.00  0.00    +0.000 N 
ATOM     31  C   UNL     1      49.525   7.052  19.671  0.00  0.00    +0.000 A 
ATOM     32  O   UNL     1      48.299   7.084  19.648  0.00  0.00    +0.000 OA
ATOM     33  C   UNL     1      50.357   6.821  18.504  0.00  0.00    +0.000 A 
ATOM     34  H   UNL     1      49.676   7.305  21.681  0.00  0.00    +0.000 HD
ENDBRANCH  23  24
ENDBRANCH   1  23
TORSDOF 6
ENDMDL
MODEL 5
REMARK VINA RESULT:    -6.238      2.996      3.873
REMARK INTER + INTRA:          -9.319
REMARK INTER:                  -8.070
REMARK INTRA:                  -1.249
REMARK UNBOUND:                -0.893
REMARK  Name = 
REMARK  8 active torsions:
REMARK  status: ('A' for Active; 'I' for Inactive)
REMARK    1  A    between atoms: C_1  and  C_2
REMARK    2  A    between atoms: C_2  and  N_3
REMARK    3  A    between atoms: C_2  and  C_22
REMARK    4  A    between atoms: C_4  and  C_6
REMARK    5  A    between atoms: C_9  and  C_10
REMARK    6  A    between atoms: C_10  and  N_11
REMARK    7  A    between atoms: C_12  and  C_14
REMARK    8  A    between atoms: N_17  and  C_18
REMARK                            x       y       z     vdW  Elec       q    Type
REMARK                         _______ _______ _______ _____ _____    ______ ____
ROOT
ATOM      1  N   UNL     1      50.217   7.624  16.859  0.00  0.00    +0.000 N 
ATOM      2  C   UNL     1      50.765   8.351  15.838  0.00  0.00    +0.000 C 
ATOM      3  O   UNL     1      51.972   8.361  15.617  0.00  0.00    +0.000 OA
ATOM      4  H   UNL     1      49.264   7.814  17.137  0.00  0.00    +0.000 HD
ENDROOT
BRANCH   2   5
ATOM      5  C   UNL     1      49.751   9.097  14.952  0.00  0.00    +0.000 C 
ATOM      6  C   UNL     1      50.219   9.257  13.501  0.00  0.00    +0.000 C 
ATOM      7  C   UNL     1      50.345   7.899  12.816  0.00  0.00    +0.000 C 
ATOM      8  C   UNL     1      49.026   7.105  12.828  0.00  0.00    +0.000 C 
ATOM      9  C   UNL     1      48.420   7.036  14.241  0.00  0.00    +0.000 C 
ATOM     10  C   UNL     1      48.387   8.389  14.965  0.00  0.00    +0.000 C 
BRANCH   8  11
ATOM     11  C   UNL     1      47.983   7.651  11.839  0.00  0.00    +0.000 C 
BRANCH  11  12
ATOM     12  N   UNL     1      46.821   6.806  11.752  0.00  0.00    +0.000 N 
ATOM     13  C   UNL     1      45.556   7.216  12.110  0.00  0.00    +0.000 C 
ATOM     14  O   UNL     1      45.299   8.326  12.568  0.00  0.00    +0.000 OA
ATOM     15  H   UNL     1      46.880   5.871  11.353  0.00  0.00    +0.000 HD
BRANCH  13  16
ATOM     16  C   UNL     1      44.529   6.191  11.884  0.00  0.00    +0.000 A 
ATOM     17  C   UNL     1      43.221   6.402  11.379  0.00  0.00    +0.000 A 
ATOM     18  C   UNL     1      42.634   5.160  11.350  0.00  0.00    +0.000 A 
ATOM     19  N   UNL     1      43.574   4.293  11.820  0.00  0.00    +0.000 N 
ATOM     20  C   UNL     1      43.420   2.870  12.004  0.00  0.00    +0.000 C 
ATOM     21  N   UNL     1      44.740   4.883  12.149  0.00  0.00    +0.000 NA
ENDBRANCH  13  16
ENDBRANCH  11  12
ENDBRANCH   8  11
ENDBRANCH   2   5
BRANCH   1  23
ATOM     22  C   UNL     1      50.902   7.628  19.226  0.00  0.00    +0.000 C 
ATOM     23  C   UNL     1      51.055   6.976  17.854  0.00  0.00    +0.000 C 
BRANCH  23  24
ATOM     24  C   UNL     1      50.750   5.498  17.828  0.00  0.00    +0.000 A 
ATOM     25  C   UNL     1      51.737   4.527  17.730  0.00  0.00    +0.000 A 
ATOM     26  S   UNL     1      51.114   2.946  17.559  0.00  0.00    +0.000 S 
ATOM     27  C   UNL     1      49.509   3.513  17.578  0.00  0.00    +0.000 A 
ATOM     28  N   UNL     1      48.459   2.679  17.349  0.00  0.00    +0.000 NA
ATOM     29  C   UNL     1      47.306   3.261  17.362  0.00  0.00    +0.000 A 
ATOM     30  N   UNL     1      47.100   4.589  17.637  0.00  0.00    +0.000 N 
ATOM     31  C   UNL     1      48.126   5.467  17.886  0.00  0.00    +0.000 A 
ATOM     32  O   UNL     1      47.917   6.656  18.104  0.00  0.00    +0.000 OA
ATOM     33  C   UNL     1      49.448   4.873  17.809  0.00  0.00    +0.000 A 
ATOM     34  H   UNL     1      46.169   4.980  17.643  0.00  0.00    +0.000 HD
ENDBRANCH  23  24
ENDBRANCH   1  23
TORSDOF 6
ENDMDL
MODEL 6
REMARK VINA RESULT:    -6.060      1.709      2.098
REMARK INTER + INTRA:          -9.078
REMARK INTER:                  -8.485
REMARK INTRA:                  -0.593
REMARK UNBOUND:                -0.893
REMARK  Name = 
REMARK  8 active torsions:
REMARK  status: ('A' for Active; 'I' for Inactive)
REMARK    1  A    between atoms: C_1  and  C_2
REMARK    2  A    between atoms: C_2  and  N_3
REMARK    3  A    between atoms: C_2  and  C_22
REMARK    4  A    between atoms: C_4  and  C_6
REMARK    5  A    between atoms: C_9  and  C_10
REMARK    6  A    between atoms: C_10  and  N_11
REMARK    7  A    between atoms: C_12  and  C_14
REMARK    8  A    between atoms: N_17  and  C_18
REMARK                            x       y       z     vdW  Elec       q    Type
REMARK                         _______ _______ _______ _____ _____    ______ ____
ROOT
ATOM      1  N   UNL     1      50.554   7.047  14.644  0.00  0.00    +0.000 N 
ATOM      2  C   UNL     1      50.338   8.181  13.910  0.00  0.00    +0.000 C 
ATOM      3  O   UNL     1      50.772   9.276  14.257  0.00  0.00    +0.000 OA
ATOM      4  H   UNL     1      50.003   6.223  14.442  0.00  0.00    +0.000 HD
ENDROOT
BRANCH   2   5
ATOM      5  C   UNL     1      49.575   7.969  12.591  0.00  0.00    +0.000 C 
ATOM      6  C   UNL     1      48.605   6.784  12.637  0.00  0.00    +0.000 C 
ATOM      7  C   UNL     1      47.488   7.032  13.646  0.00  0.00    +0.000 C 
ATOM      8  C   UNL     1      46.691   8.315  13.345  0.00  0.00    +0.000 C 
ATOM      9  C   UNL     1      47.621   9.523  13.136  0.00  0.00    +0.000 C 
ATOM     10  C   UNL     1      48.801   9.237  12.196  0.00  0.00    +0.000 C 
BRANCH   8  11
ATOM     11  C   UNL     1      45.746   8.170  12.141  0.00  0.00    +0.000 C 
BRANCH  11  12
ATOM     12  N   UNL     1      45.377   6.798  11.902  0.00  0.00    +0.000 N 
ATOM     13  C   UNL     1      44.147   6.419  11.413  0.00  0.00    +0.000 C 
ATOM     14  O   UNL     1      43.236   7.202  11.164  0.00  0.00    +0.000 OA
ATOM     15  H   UNL     1      46.049   6.044  12.029  0.00  0.00    +0.000 HD
BRANCH  13  16
ATOM     16  C   UNL     1      44.029   4.969  11.208  0.00  0.00    +0.000 A 
ATOM     17  C   UNL     1      43.427   4.037  12.092  0.00  0.00    +0.000 A 
ATOM     18  C   UNL     1      43.561   2.814  11.482  0.00  0.00    +0.000 A 
ATOM     19  N   UNL     1      44.210   3.052  10.308  0.00  0.00    +0.000 N 
ATOM     20  C   UNL     1      44.606   2.071   9.327  0.00  0.00    +0.000 C 
ATOM     21  N   UNL     1      44.506   4.351  10.105  0.00  0.00    +0.000 NA
ENDBRANCH  13  16
ENDBRANCH  11  12
ENDBRANCH   8  11
ENDBRANCH   2   5
BRANCH   1  23
ATOM     22  C   UNL     1      52.413   7.959  15.979  0.00  0.00    +0.000 C 
ATOM     23  C   UNL     1      51.143   7.112  15.971  0.00  0.00    +0.000 C 
BRANCH  23  24
ATOM     24  C   UNL     1      50.075   7.579  16.931  0.00  0.00    +0.000 A 
ATOM     25  C   UNL     1      50.137   8.799  17.590  0.00  0.00    +0.000 A 
ATOM     26  S   UNL     1      48.889   9.011  18.737  0.00  0.00    +0.000 S 
ATOM     27  C   UNL     1      48.246   7.469  18.409  0.00  0.00    +0.000 A 
ATOM     28  N   UNL     1      47.220   6.958  19.143  0.00  0.00    +0.000 NA
ATOM     29  C   UNL     1      46.865   5.765  18.798  0.00  0.00    +0.000 A 
ATOM     30  N   UNL     1      47.403   5.056  17.753  0.00  0.00    +0.000 N 
ATOM     31  C   UNL     1      48.431   5.534  16.979  0.00  0.00    +0.000 A 
ATOM     32  O   UNL     1      48.911   4.869  16.066  0.00  0.00    +0.000 OA
ATOM     33  C   UNL     1      48.915   6.843  17.375  0.00  0.00    +0.000 A 
ATOM     34  H   UNL     1      47.070   4.129  17.529  0.00  0.00    +0.000 HD
ENDBRANCH  23  24
ENDBRANCH   1  23
TORSDOF 6
ENDMDL
MODEL 7
REMARK VINA RESULT:    -6.011      3.626      7.639
REMARK INTER + INTRA:          -9.012
REMARK INTER:                  -8.467
REMARK INTRA:                  -0.545
REMARK UNBOUND:                -0.893
REMARK  Name = 
REMARK  8 active torsions:
REMARK  status: ('A' for Active; 'I' for Inactive)
REMARK    1  A    between atoms: C_1  and  C_2
REMARK    2  A    between atoms: C_2  and  N_3
REMARK    3  A    between atoms: C_2  and  C_22
REMARK    4  A    between atoms: C_4  and  C_6
REMARK    5  A    between atoms: C_9  and  C_10
REMARK    6  A    between atoms: C_10  and  N_11
REMARK    7  A    between atoms: C_12  and  C_14
REMARK    8  A    between atoms: N_17  and  C_18
REMARK                            x       y       z     vdW  Elec       q    Type
REMARK                         _______ _______ _______ _____ _____    ______ ____
ROOT
ATOM      1  N   UNL     1      46.328   6.512  11.794  0.00  0.00    +0.000 N 
ATOM      2  C   UNL     1      47.179   6.383  12.858  0.00  0.00    +0.000 C 
ATOM      3  O   UNL     1      46.787   6.049  13.972  0.00  0.00    +0.000 OA
ATOM      4  H   UNL     1      46.652   6.992  10.966  0.00  0.00    +0.000 HD
ENDROOT
BRANCH   2   5
ATOM      5  C   UNL     1      48.666   6.621  12.537  0.00  0.00    +0.000 C 
ATOM      6  C   UNL     1      48.886   7.618  11.394  0.00  0.00    +0.000 C 
ATOM      7  C   UNL     1      48.389   9.008  11.780  0.00  0.00    +0.000 C 
ATOM      8  C   UNL     1      49.071   9.549  13.050  0.00  0.00    +0.000 C 
ATOM      9  C   UNL     1      49.018   8.528  14.199  0.00  0.00    +0.000 C 
ATOM     10  C   UNL     1      49.423   7.108  13.782  0.00  0.00    +0.000 C 
BRANCH   8  11
ATOM     11  C   UNL     1      50.523   9.993  12.813  0.00  0.00    +0.000 C 
BRANCH  11  12
ATOM     12  N   UNL     1      51.067   9.446  11.596  0.00  0.00    +0.000 N 
ATOM     13  C   UNL     1      52.221   8.694  11.553  0.00  0.00    +0.000 C 
ATOM     14  O   UNL     1      52.915   8.446  12.534  0.00  0.00    +0.000 OA
ATOM     15  H   UNL     1      50.574   9.541  10.711  0.00  0.00    +0.000 HD
BRANCH  13  16
ATOM     16  C   UNL     1      52.543   8.208  10.205  0.00  0.00    +0.000 A 
ATOM     17  C   UNL     1      52.668   6.854   9.803  0.00  0.00    +0.000 A 
ATOM     18  C   UNL     1      52.982   6.896   8.466  0.00  0.00    +0.000 A 
ATOM     19  N   UNL     1      53.032   8.217   8.136  0.00  0.00    +0.000 N 
ATOM     20  C   UNL     1      53.353   8.772   6.844  0.00  0.00    +0.000 C 
ATOM     21  N   UNL     1      52.766   9.043   9.167  0.00  0.00    +0.000 NA
ENDBRANCH  13  16
ENDBRANCH  11  12
ENDBRANCH   8  11
ENDBRANCH   2   5
BRANCH   1  23
ATOM     22  C   UNL     1      44.182   7.597  11.259  0.00  0.00    +0.000 C 
ATOM     23  C   UNL     1      44.888   6.447  11.973  0.00  0.00    +0.000 C 
BRANCH  23  24
ATOM     24  C   UNL     1      44.428   5.073  11.547  0.00  0.00    +0.000 A 
ATOM     25  C   UNL     1      43.643   4.259  12.352  0.00  0.00    +0.000 A 
ATOM     26  S   UNL     1      43.400   2.699  11.701  0.00  0.00    +0.000 S 
ATOM     27  C   UNL     1      44.362   3.053  10.341  0.00  0.00    +0.000 A 
ATOM     28  N   UNL     1      44.675   2.096   9.425  0.00  0.00    +0.000 NA
ATOM     29  C   UNL     1      45.440   2.507   8.469  0.00  0.00    +0.000 A 
ATOM     30  N   UNL     1      45.876   3.798   8.312  0.00  0.00    +0.000 N 
ATOM     31  C   UNL     1      45.578   4.800   9.204  0.00  0.00    +0.000 A 
ATOM     32  O   UNL     1      46.002   5.941   9.055  0.00  0.00    +0.000 OA
ATOM     33  C   UNL     1      44.780   4.368  10.337  0.00  0.00    +0.000 A 
ATOM     34  H   UNL     1      46.464   4.057   7.534  0.00  0.00    +0.000 HD
ENDBRANCH  23  24
ENDBRANCH   1  23
TORSDOF 6
ENDMDL
MODEL 8
REMARK VINA RESULT:    -5.948      4.331      8.334
REMARK INTER + INTRA:          -8.927
REMARK INTER:                  -8.151
REMARK INTRA:                  -0.776
REMARK UNBOUND:                -0.893
REMARK  Name = 
REMARK  8 active torsions:
REMARK  status: ('A' for Active; 'I' for Inactive)
REMARK    1  A    between atoms: C_1  and  C_2
REMARK    2  A    between atoms: C_2  and  N_3
REMARK    3  A    between atoms: C_2  and  C_22
REMARK    4  A    between atoms: C_4  and  C_6
REMARK    5  A    between atoms: C_9  and  C_10
REMARK    6  A    between atoms: C_10  and  N_11
REMARK    7  A    between atoms: C_12  and  C_14
REMARK    8  A    between atoms: N_17  and  C_18
REMARK                            x       y       z     vdW  Elec       q    Type
REMARK                         _______ _______ _______ _____ _____    ______ ____
ROOT
ATOM      1  N   UNL     1      48.216   7.277  15.265  0.00  0.00    +0.000 N 
ATOM      2  C   UNL     1      48.841   7.800  16.364  0.00  0.00    +0.000 C 
ATOM      3  O   UNL     1      49.428   8.878  16.331  0.00  0.00    +0.000 OA
ATOM      4  H   UNL     1      47.939   6.305  15.277  0.00  0.00    +0.000 HD
ENDROOT
BRANCH   2   5
ATOM      5  C   UNL     1      48.693   6.972  17.654  0.00  0.00    +0.000 C 
ATOM      6  C   UNL     1      48.361   5.499  17.392  0.00  0.00    +0.000 C 
ATOM      7  C   UNL     1      49.506   4.803  16.664  0.00  0.00    +0.000 C 
ATOM      8  C   UNL     1      50.836   4.883  17.436  0.00  0.00    +0.000 C 
ATOM      9  C   UNL     1      51.156   6.325  17.864  0.00  0.00    +0.000 C 
ATOM     10  C   UNL     1      49.969   7.056  18.507  0.00  0.00    +0.000 C 
BRANCH   8  11
ATOM     11  C   UNL     1      50.879   3.954  18.661  0.00  0.00    +0.000 C 
BRANCH  11  12
ATOM     12  N   UNL     1      51.937   2.982  18.569  0.00  0.00    +0.000 N 
ATOM     13  C   UNL     1      51.866   1.857  17.777  0.00  0.00    +0.000 C 
ATOM     14  O   UNL     1      50.888   1.554  17.100  0.00  0.00    +0.000 OA
ATOM     15  H   UNL     1      52.825   3.124  19.047  0.00  0.00    +0.000 HD
BRANCH  13  16
ATOM     16  C   UNL     1      53.090   1.046  17.814  0.00  0.00    +0.000 A 
ATOM     17  C   UNL     1      54.315   1.334  17.161  0.00  0.00    +0.000 A 
ATOM     18  C   UNL     1      55.155   0.295  17.481  0.00  0.00    +0.000 A 
ATOM     19  N   UNL     1      54.430  -0.538  18.278  0.00  0.00    +0.000 N 
ATOM     20  C   UNL     1      54.871  -1.788  18.848  0.00  0.00    +0.000 C 
ATOM     21  N   UNL     1      53.172  -0.112  18.506  0.00  0.00    +0.000 NA
ENDBRANCH  13  16
ENDBRANCH  11  12
ENDBRANCH   8  11
ENDBRANCH   2   5
BRANCH   1  23
ATOM     22  C   UNL     1      49.580   7.293  13.213  0.00  0.00    +0.000 C 
ATOM     23  C   UNL     1      48.379   7.878  13.952  0.00  0.00    +0.000 C 
BRANCH  23  24
ATOM     24  C   UNL     1      47.068   7.746  13.215  0.00  0.00    +0.000 A 
ATOM     25  C   UNL     1      46.428   8.824  12.619  0.00  0.00    +0.000 A 
ATOM     26  S   UNL     1      44.888   8.433  11.994  0.00  0.00    +0.000 S 
ATOM     27  C   UNL     1      45.016   6.822  12.527  0.00  0.00    +0.000 A 
ATOM     28  N   UNL     1      43.973   5.954  12.420  0.00  0.00    +0.000 NA
ATOM     29  C   UNL     1      44.210   4.778  12.899  0.00  0.00    +0.000 A 
ATOM     30  N   UNL     1      45.410   4.371  13.426  0.00  0.00    +0.000 N 
ATOM     31  C   UNL     1      46.494   5.207  13.544  0.00  0.00    +0.000 A 
ATOM     32  O   UNL     1      47.548   4.826  14.042  0.00  0.00    +0.000 OA
ATOM     33  C   UNL     1      46.252   6.563  13.086  0.00  0.00    +0.000 A 
ATOM     34  H   UNL     1      45.533   3.432  13.773  0.00  0.00    +0.000 HD
ENDBRANCH  23  24
ENDBRANCH   1  23
TORSDOF 6
ENDMDL
MODEL 9
REMARK VINA RESULT:    -5.636      2.829      3.535
REMARK INTER + INTRA:          -8.506
REMARK INTER:                  -7.803
REMARK INTRA:                  -0.703
REMARK UNBOUND:                -0.893
REMARK  Name = 
REMARK  8 active torsions:
REMARK  status: ('A' for Active; 'I' for Inactive)
REMARK    1  A    between atoms: C_1  and  C_2
REMARK    2  A    between atoms: C_2  and  N_3
REMARK    3  A    between atoms: C_2  and  C_22
REMARK    4  A    between atoms: C_4  and  C_6
REMARK    5  A    between atoms: C_9  and  C_10
REMARK    6  A    between atoms: C_10  and  N_11
REMARK    7  A    between atoms: C_12  and  C_14
REMARK    8  A    between atoms: N_17  and  C_18
REMARK                            x       y       z     vdW  Elec       q    Type
REMARK                         _______ _______ _______ _____ _____    ______ ____
ROOT
ATOM      1  N   UNL     1      50.659   7.396  14.744  0.00  0.00    +0.000 N 
ATOM      2  C   UNL     1      50.802   8.106  13.584  0.00  0.00    +0.000 C 
ATOM      3  O   UNL     1      51.715   8.910  13.417  0.00  0.00    +0.000 OA
ATOM      4  H   UNL     1      49.786   6.918  14.920  0.00  0.00    +0.000 HD
ENDROOT
BRANCH   2   5
ATOM      5  C   UNL     1      49.778   7.771  12.484  0.00  0.00    +0.000 C 
ATOM      6  C   UNL     1      48.422   7.321  13.037  0.00  0.00    +0.000 C 
ATOM      7  C   UNL     1      47.745   8.451  13.807  0.00  0.00    +0.000 C 
ATOM      8  C   UNL     1      47.538   9.712  12.949  0.00  0.00    +0.000 C 
ATOM      9  C   UNL     1      48.836  10.133  12.239  0.00  0.00    +0.000 C 
ATOM     10  C   UNL     1      49.567   8.972  11.549  0.00  0.00    +0.000 C 
BRANCH   8  11
ATOM     11  C   UNL     1      46.406   9.562  11.919  0.00  0.00    +0.000 C 
BRANCH  11  12
ATOM     12  N   UNL     1      45.814   8.250  11.950  0.00  0.00    +0.000 N 
ATOM     13  C   UNL     1      44.558   7.973  11.456  0.00  0.00    +0.000 C 
ATOM     14  O   UNL     1      43.809   8.817  10.974  0.00  0.00    +0.000 OA
ATOM     15  H   UNL     1      46.338   7.444  12.287  0.00  0.00    +0.000 HD
BRANCH  13  16
ATOM     16  C   UNL     1      44.198   6.553  11.557  0.00  0.00    +0.000 A 
ATOM     17  C   UNL     1      42.908   5.993  11.367  0.00  0.00    +0.000 A 
ATOM     18  C   UNL     1      43.062   4.643  11.569  0.00  0.00    +0.000 A 
ATOM     19  N   UNL     1      44.380   4.457  11.859  0.00  0.00    +0.000 N 
ATOM     20  C   UNL     1      45.025   3.206  12.176  0.00  0.00    +0.000 C 
ATOM     21  N   UNL     1      45.102   5.594  11.856  0.00  0.00    +0.000 NA
ENDBRANCH  13  16
ENDBRANCH  11  12
ENDBRANCH   8  11
ENDBRANCH   2   5
BRANCH   1  23
ATOM     22  C   UNL     1      50.849   8.816  16.749  0.00  0.00    +0.000 C 
ATOM     23  C   UNL     1      51.468   7.698  15.913  0.00  0.00    +0.000 C 
BRANCH  23  24
ATOM     24  C   UNL     1      51.695   6.409  16.666  0.00  0.00    +0.000 A 
ATOM     25  C   UNL     1      52.959   5.954  17.015  0.00  0.00    +0.000 A 
ATOM     26  S   UNL     1      52.947   4.397  17.716  0.00  0.00    +0.000 S 
ATOM     27  C   UNL     1      51.258   4.270  17.546  0.00  0.00    +0.000 A 
ATOM     28  N   UNL     1      50.599   3.116  17.843  0.00  0.00    +0.000 NA
ATOM     29  C   UNL     1      49.326   3.163  17.631  0.00  0.00    +0.000 A 
ATOM     30  N   UNL     1      48.641   4.272  17.202  0.00  0.00    +0.000 N 
ATOM     31  C   UNL     1      49.260   5.460  16.900  0.00  0.00    +0.000 A 
ATOM     32  O   UNL     1      48.627   6.429  16.493  0.00  0.00    +0.000 OA
ATOM     33  C   UNL     1      50.703   5.434  17.053  0.00  0.00    +0.000 A 
ATOM     34  H   UNL     1      47.641   4.244  17.067  0.00  0.00    +0.000 HD
ENDBRANCH  23  24
ENDBRANCH   1  23
TORSDOF 6
ENDMDL
