MODEL 1
REMARK VINA RESULT:    -8.448      0.000      0.000
REMARK INTER + INTRA:         -13.305
REMARK INTER:                 -11.905
REMARK INTRA:                  -1.400
REMARK UNBOUND:                -1.400
REMARK  Name = 
REMARK  8 active torsions:
REMARK  status: ('A' for Active; 'I' for Inactive)
REMARK    1  A    between atoms: C_1  and  O_2
REMARK    2  A    between atoms: O_2  and  C_3
REMARK    3  A    between atoms: C_5  and  C_6
REMARK    4  A    between atoms: C_6  and  N_7
REMARK    5  A    between atoms: C_8  and  C_10
REMARK    6  A    between atoms: C_22  and  C_23
REMARK    7  A    between atoms: C_23  and  N_24
REMARK    8  A    between atoms: C_25  and  C_27
REMARK                            x       y       z     vdW  Elec       q    Type
REMARK                         _______ _______ _______ _____ _____    ______ ____
ROOT
ATOM      1  C   UNL     1      46.221   5.622  12.613  0.00  0.00    +0.000 A 
ATOM      2  C   UNL     1      47.141   6.385  13.353  0.00  0.00    +0.000 A 
ATOM      3  C   UNL     1      47.632   5.931  14.581  0.00  0.00    +0.000 A 
ATOM      4  C   UNL     1      47.147   4.714  15.032  0.00  0.00    +0.000 A 
ATOM      5  N   UNL     1      46.286   3.936  14.338  0.00  0.00    +0.000 NA
ATOM      6  C   UNL     1      45.844   4.374  13.123  0.00  0.00    +0.000 A 
ENDROOT
BRANCH   1   8
ATOM      7  C   UNL     1      44.687   6.971  11.389  0.00  0.00    +0.000 C 
ATOM      8  O   UNL     1      45.873   6.182  11.413  0.00  0.00    +0.000 OA
ENDBRANCH   1   8
BRANCH   3   9
ATOM      9  C   UNL     1      48.596   6.727  15.412  0.00  0.00    +0.000 C 
BRANCH   9  10
ATOM     10  N   UNL     1      49.642   5.889  15.946  0.00  0.00    +0.000 N 
ATOM     11  C   UNL     1      49.895   5.819  17.292  0.00  0.00    +0.000 C 
ATOM     12  O   UNL     1      49.203   6.413  18.115  0.00  0.00    +0.000 OA
ATOM     13  H   UNL     1      50.355   5.574  15.296  0.00  0.00    +0.000 HD
BRANCH  11  14
ATOM     14  C   UNL     1      51.006   4.948  17.705  0.00  0.00    +0.000 A 
ATOM     15  C   UNL     1      52.139   5.507  18.283  0.00  0.00    +0.000 A 
ATOM     16  S   UNL     1      53.308   4.357  18.754  0.00  0.00    +0.000 S 
ATOM     17  C   UNL     1      52.364   3.072  18.156  0.00  0.00    +0.000 A 
ATOM     18  N   UNL     1      52.805   1.790  18.233  0.00  0.00    +0.000 NA
ATOM     19  C   UNL     1      52.000   0.917  17.720  0.00  0.00    +0.000 A 
ATOM     20  N   UNL     1      50.794   1.214  17.141  0.00  0.00    +0.000 N 
ATOM     21  C   UNL     1      50.298   2.494  17.067  0.00  0.00    +0.000 A 
ATOM     22  O   UNL     1      49.196   2.723  16.578  0.00  0.00    +0.000 OA
ATOM     23  C   UNL     1      51.167   3.515  17.622  0.00  0.00    +0.000 A 
ATOM     24  H   UNL     1      50.206   0.485  16.765  0.00  0.00    +0.000 HD
ENDBRANCH  11  14
ENDBRANCH   9  10
ENDBRANCH   3   9
BRANCH   6  25
ATOM     25  C   UNL     1      44.968   3.383  12.388  0.00  0.00    +0.000 C 
BRANCH  25  26
ATOM     26  N   UNL     1      45.498   2.978  11.105  0.00  0.00    +0.000 N 
ATOM     27  C   UNL     1      44.818   3.195   9.926  0.00  0.00    +0.000 C 
ATOM     28  O   UNL     1      43.711   3.714   9.864  0.00  0.00    +0.000 OA
ATOM     29  H   UNL     1      46.439   2.600  11.028  0.00  0.00    +0.000 HD
BRANCH  27  30
ATOM     30  C   UNL     1      45.560   2.759   8.696  0.00  0.00    +0.000 A 
ATOM     31  C   UNL     1      45.784   3.661   7.663  0.00  0.00    +0.000 A 
ATOM     32  C   UNL     1      46.459   3.209   6.533  0.00  0.00    +0.000 A 
ATOM     33  C   UNL     1      46.888   1.886   6.477  0.00  0.00    +0.000 A 
ATOM     34  C   UNL     1      46.631   1.060   7.562  0.00  0.00    +0.000 A 
ATOM     35  N   UNL     1      45.978   1.461   8.675  0.00  0.00    +0.000 NA
ENDBRANCH  27  30
ENDBRANCH  25  26
ENDBRANCH   6  25
TORSDOF 7
ENDMDL
MODEL 2
REMARK VINA RESULT:    -8.224      2.391      2.792
REMARK INTER + INTRA:         -12.990
REMARK INTER:                 -11.961
REMARK INTRA:                  -1.029
REMARK UNBOUND:                -1.400
REMARK  Name = 
REMARK  8 active torsions:
REMARK  status: ('A' for Active; 'I' for Inactive)
REMARK    1  A    between atoms: C_1  and  O_2
REMARK    2  A    between atoms: O_2  and  C_3
REMARK    3  A    between atoms: C_5  and  C_6
REMARK    4  A    between atoms: C_6  and  N_7
REMARK    5  A    between atoms: C_8  and  C_10
REMARK    6  A    between atoms: C_22  and  C_23
REMARK    7  A    between atoms: C_23  and  N_24
REMARK    8  A    between atoms: C_25  and  C_27
REMARK                            x       y       z     vdW  Elec       q    Type
REMARK                         _______ _______ _______ _____ _____    ______ ____
ROOT
ATOM      1  C   UNL     1      44.579   7.678  11.525  0.00  0.00    +0.000 A 
ATOM      2  C   UNL     1      45.475   8.368  12.360  0.00  0.00    +0.000 A 
ATOM      3  C   UNL     1      46.583   7.722  12.919  0.00  0.00    +0.000 A 
ATOM      4  C   UNL     1      46.730   6.376  12.626  0.00  0.00    +0.000 A 
ATOM      5  N   UNL     1      45.909   5.684  11.803  0.00  0.00    +0.000 NA
ATOM      6  C   UNL     1      44.852   6.336  11.234  0.00  0.00    +0.000 A 
ENDROOT
BRANCH   1   8
ATOM      7  C   UNL     1      43.907   9.809  10.700  0.00  0.00    +0.000 C 
ATOM      8  O   UNL     1      43.575   8.462  11.022  0.00  0.00    +0.000 OA
ENDBRANCH   1   8
BRANCH   3   9
ATOM      9  C   UNL     1      47.548   8.416  13.835  0.00  0.00    +0.000 C 
BRANCH   9  10
ATOM     10  N   UNL     1      47.863   7.597  14.981  0.00  0.00    +0.000 N 
ATOM     11  C   UNL     1      49.127   7.111  15.195  0.00  0.00    +0.000 C 
ATOM     12  O   UNL     1      50.068   7.400  14.461  0.00  0.00    +0.000 OA
ATOM     13  H   UNL     1      47.082   7.166  15.465  0.00  0.00    +0.000 HD
BRANCH  11  14
ATOM     14  C   UNL     1      49.310   6.266  16.385  0.00  0.00    +0.000 A 
ATOM     15  C   UNL     1      50.275   6.605  17.327  0.00  0.00    +0.000 A 
ATOM     16  S   UNL     1      50.320   5.556  18.671  0.00  0.00    +0.000 S 
ATOM     17  C   UNL     1      49.087   4.579  18.020  0.00  0.00    +0.000 A 
ATOM     18  N   UNL     1      48.651   3.475  18.680  0.00  0.00    +0.000 NA
ATOM     19  C   UNL     1      47.727   2.814  18.062  0.00  0.00    +0.000 A 
ATOM     20  N   UNL     1      47.201   3.161  16.845  0.00  0.00    +0.000 N 
ATOM     21  C   UNL     1      47.593   4.284  16.157  0.00  0.00    +0.000 A 
ATOM     22  O   UNL     1      47.074   4.590  15.088  0.00  0.00    +0.000 OA
ATOM     23  C   UNL     1      48.635   5.059  16.803  0.00  0.00    +0.000 A 
ATOM     24  H   UNL     1      46.474   2.606  16.418  0.00  0.00    +0.000 HD
ENDBRANCH  11  14
ENDBRANCH   9  10
ENDBRANCH   3   9
BRANCH   6  25
ATOM     25  C   UNL     1      44.061   5.498  10.255  0.00  0.00    +0.000 C 
BRANCH  25  26
ATOM     26  N   UNL     1      44.886   4.709   9.366  0.00  0.00    +0.000 N 
ATOM     27  C   UNL     1      44.776   3.339   9.283  0.00  0.00    +0.000 C 
ATOM     28  O   UNL     1      44.004   2.675   9.963  0.00  0.00    +0.000 OA
ATOM     29  H   UNL     1      45.514   5.160   8.705  0.00  0.00    +0.000 HD
BRANCH  27  30
ATOM     30  C   UNL     1      45.675   2.707   8.260  0.00  0.00    +0.000 A 
ATOM     31  C   UNL     1      46.086   3.436   7.151  0.00  0.00    +0.000 A 
ATOM     32  C   UNL     1      46.904   2.805   6.218  0.00  0.00    +0.000 A 
ATOM     33  C   UNL     1      47.282   1.482   6.426  0.00  0.00    +0.000 A 
ATOM     34  C   UNL     1      46.834   0.837   7.569  0.00  0.00    +0.000 A 
ATOM     35  N   UNL     1      46.039   1.414   8.497  0.00  0.00    +0.000 NA
ENDBRANCH  27  30
ENDBRANCH  25  26
ENDBRANCH   6  25
TORSDOF 7
ENDMDL
MODEL 3
REMARK VINA RESULT:    -8.117      2.283      2.668
REMARK INTER + INTRA:         -12.839
REMARK INTER:                 -12.001
REMARK INTRA:                  -0.838
REMARK UNBOUND:                -1.400
REMARK  Name = 
REMARK  8 active torsions:
REMARK  status: ('A' for Active; 'I' for Inactive)
REMARK    1  A    between atoms: C_1  and  O_2
REMARK    2  A    between atoms: O_2  and  C_3
REMARK    3  A    between atoms: C_5  and  C_6
REMARK    4  A    between atoms: C_6  and  N_7
REMARK    5  A    between atoms: C_8  and  C_10
REMARK    6  A    between atoms: C_22  and  C_23
REMARK    7  A    between atoms: C_23  and  N_24
REMARK    8  A    between atoms: C_25  and  C_27
REMARK                            x       y       z     vdW  Elec       q    Type
REMARK                         _______ _______ _______ _____ _____    ______ ____
ROOT
ATOM      1  C   UNL     1      44.882   5.892  12.050  0.00  0.00    +0.000 A 
ATOM      2  C   UNL     1      45.695   6.939  12.518  0.00  0.00    +0.000 A 
ATOM      3  C   UNL     1      46.859   6.677  13.247  0.00  0.00    +0.000 A 
ATOM      4  C   UNL     1      47.148   5.346  13.498  0.00  0.00    +0.000 A 
ATOM      5  N   UNL     1      46.410   4.309  13.040  0.00  0.00    +0.000 NA
ATOM      6  C   UNL     1      45.296   4.578  12.297  0.00  0.00    +0.000 A 
ENDROOT
BRANCH   1   8
ATOM      7  C   UNL     1      42.519   5.880  11.751  0.00  0.00    +0.000 C 
ATOM      8  O   UNL     1      43.805   6.312  11.315  0.00  0.00    +0.000 OA
ENDBRANCH   1   8
BRANCH   3   9
ATOM      9  C   UNL     1      47.739   7.766  13.786  0.00  0.00    +0.000 C 
BRANCH   9  10
ATOM     10  N   UNL     1      47.888   7.659  15.218  0.00  0.00    +0.000 N 
ATOM     11  C   UNL     1      49.012   7.122  15.789  0.00  0.00    +0.000 C 
ATOM     12  O   UNL     1      49.976   6.765  15.117  0.00  0.00    +0.000 OA
ATOM     13  H   UNL     1      47.042   7.732  15.774  0.00  0.00    +0.000 HD
BRANCH  11  14
ATOM     14  C   UNL     1      49.027   7.045  17.258  0.00  0.00    +0.000 A 
ATOM     15  C   UNL     1      49.121   8.213  18.006  0.00  0.00    +0.000 A 
ATOM     16  S   UNL     1      49.070   7.953  19.691  0.00  0.00    +0.000 S 
ATOM     17  C   UNL     1      48.973   6.266  19.484  0.00  0.00    +0.000 A 
ATOM     18  N   UNL     1      48.915   5.435  20.557  0.00  0.00    +0.000 NA
ATOM     19  C   UNL     1      48.867   4.177  20.256  0.00  0.00    +0.000 A 
ATOM     20  N   UNL     1      48.868   3.681  18.978  0.00  0.00    +0.000 N 
ATOM     21  C   UNL     1      48.897   4.487  17.865  0.00  0.00    +0.000 A 
ATOM     22  O   UNL     1      48.857   4.014  16.734  0.00  0.00    +0.000 OA
ATOM     23  C   UNL     1      48.960   5.909  18.147  0.00  0.00    +0.000 A 
ATOM     24  H   UNL     1      48.821   2.687  18.809  0.00  0.00    +0.000 HD
ENDBRANCH  11  14
ENDBRANCH   9  10
ENDBRANCH   3   9
BRANCH   6  25
ATOM     25  C   UNL     1      44.604   3.349  11.751  0.00  0.00    +0.000 C 
BRANCH  25  26
ATOM     26  N   UNL     1      45.244   2.795  10.578  0.00  0.00    +0.000 N 
ATOM     27  C   UNL     1      44.956   3.234   9.305  0.00  0.00    +0.000 C 
ATOM     28  O   UNL     1      44.125   4.098   9.054  0.00  0.00    +0.000 OA
ATOM     29  H   UNL     1      46.000   2.120  10.670  0.00  0.00    +0.000 HD
BRANCH  27  30
ATOM     30  C   UNL     1      45.768   2.579   8.226  0.00  0.00    +0.000 A 
ATOM     31  C   UNL     1      46.122   3.296   7.089  0.00  0.00    +0.000 A 
ATOM     32  C   UNL     1      46.860   2.643   6.106  0.00  0.00    +0.000 A 
ATOM     33  C   UNL     1      47.218   1.311   6.292  0.00  0.00    +0.000 A 
ATOM     34  C   UNL     1      46.831   0.679   7.465  0.00  0.00    +0.000 A 
ATOM     35  N   UNL     1      46.115   1.278   8.442  0.00  0.00    +0.000 NA
ENDBRANCH  27  30
ENDBRANCH  25  26
ENDBRANCH   6  25
TORSDOF 7
ENDMDL
MODEL 4
REMARK VINA RESULT:    -7.776      2.479      3.423
REMARK INTER + INTRA:         -12.358
REMARK INTER:                 -10.950
REMARK INTRA:                  -1.409
REMARK UNBOUND:                -1.400
REMARK  Name = 
REMARK  8 active torsions:
REMARK  status: ('A' for Active; 'I' for Inactive)
REMARK    1  A    between atoms: C_1  and  O_2
REMARK    2  A    between atoms: O_2  and  C_3
REMARK    3  A    between atoms: C_5  and  C_6
REMARK    4  A    between atoms: C_6  and  N_7
REMARK    5  A    between atoms: C_8  and  C_10
REMARK    6  A    between atoms: C_22  and  C_23
REMARK    7  A    between atoms: C_23  and  N_24
REMARK    8  A    between atoms: C_25  and  C_27
REMARK                            x       y       z     vdW  Elec       q    Type
REMARK                         _______ _______ _______ _____ _____    ______ ____
ROOT
ATOM      1  C   UNL     1      46.102   5.906  12.417  0.00  0.00    +0.000 A 
ATOM      2  C   UNL     1      46.749   6.836  13.250  0.00  0.00    +0.000 A 
ATOM      3  C   UNL     1      46.481   8.205  13.145  0.00  0.00    +0.000 A 
ATOM      4  C   UNL     1      45.574   8.588  12.172  0.00  0.00    +0.000 A 
ATOM      5  N   UNL     1      44.908   7.724  11.373  0.00  0.00    +0.000 NA
ATOM      6  C   UNL     1      45.150   6.387  11.510  0.00  0.00    +0.000 A 
ENDROOT
BRANCH   1   8
ATOM      7  C   UNL     1      46.779   4.278  14.017  0.00  0.00    +0.000 C 
ATOM      8  O   UNL     1      46.438   4.604  12.673  0.00  0.00    +0.000 OA
ENDBRANCH   1   8
BRANCH   3   9
ATOM      9  C   UNL     1      47.169   9.231  13.998  0.00  0.00    +0.000 C 
BRANCH   9  10
ATOM     10  N   UNL     1      47.512   8.691  15.292  0.00  0.00    +0.000 N 
ATOM     11  C   UNL     1      48.543   9.201  16.037  0.00  0.00    +0.000 C 
ATOM     12  O   UNL     1      49.186  10.182  15.672  0.00  0.00    +0.000 OA
ATOM     13  H   UNL     1      47.158   7.765  15.511  0.00  0.00    +0.000 HD
BRANCH  11  14
ATOM     14  C   UNL     1      48.807   8.544  17.326  0.00  0.00    +0.000 A 
ATOM     15  C   UNL     1      48.710   9.277  18.504  0.00  0.00    +0.000 A 
ATOM     16  S   UNL     1      48.992   8.355  19.911  0.00  0.00    +0.000 S 
ATOM     17  C   UNL     1      49.304   6.953  18.996  0.00  0.00    +0.000 A 
ATOM     18  N   UNL     1      49.632   5.784  19.604  0.00  0.00    +0.000 NA
ATOM     19  C   UNL     1      49.865   4.806  18.790  0.00  0.00    +0.000 A 
ATOM     20  N   UNL     1      49.796   4.895  17.424  0.00  0.00    +0.000 N 
ATOM     21  C   UNL     1      49.441   6.051  16.770  0.00  0.00    +0.000 A 
ATOM     22  O   UNL     1      49.349   6.088  15.547  0.00  0.00    +0.000 OA
ATOM     23  C   UNL     1      49.176   7.183  17.638  0.00  0.00    +0.000 A 
ATOM     24  H   UNL     1      49.982   4.092  16.842  0.00  0.00    +0.000 HD
ENDBRANCH  11  14
ENDBRANCH   9  10
ENDBRANCH   3   9
BRANCH   6  25
ATOM     25  C   UNL     1      44.279   5.507  10.641  0.00  0.00    +0.000 C 
BRANCH  25  26
ATOM     26  N   UNL     1      45.021   4.729   9.673  0.00  0.00    +0.000 N 
ATOM     27  C   UNL     1      44.767   3.394   9.452  0.00  0.00    +0.000 C 
ATOM     28  O   UNL     1      43.925   2.750  10.064  0.00  0.00    +0.000 OA
ATOM     29  H   UNL     1      45.698   5.175   9.058  0.00  0.00    +0.000 HD
BRANCH  27  30
ATOM     30  C   UNL     1      45.601   2.778   8.366  0.00  0.00    +0.000 A 
ATOM     31  C   UNL     1      45.933   3.519   7.239  0.00  0.00    +0.000 A 
ATOM     32  C   UNL     1      46.691   2.902   6.248  0.00  0.00    +0.000 A 
ATOM     33  C   UNL     1      47.092   1.580   6.419  0.00  0.00    +0.000 A 
ATOM     34  C   UNL     1      46.724   0.921   7.583  0.00  0.00    +0.000 A 
ATOM     35  N   UNL     1      45.989   1.486   8.566  0.00  0.00    +0.000 NA
ENDBRANCH  27  30
ENDBRANCH  25  26
ENDBRANCH   6  25
TORSDOF 7
ENDMDL
MODEL 5
REMARK VINA RESULT:    -7.668      2.734      3.603
REMARK INTER + INTRA:         -12.205
REMARK INTER:                 -11.094
REMARK INTRA:                  -1.111
REMARK UNBOUND:                -1.400
REMARK  Name = 
REMARK  8 active torsions:
REMARK  status: ('A' for Active; 'I' for Inactive)
REMARK    1  A    between atoms: C_1  and  O_2
REMARK    2  A    between atoms: O_2  and  C_3
REMARK    3  A    between atoms: C_5  and  C_6
REMARK    4  A    between atoms: C_6  and  N_7
REMARK    5  A    between atoms: C_8  and  C_10
REMARK    6  A    between atoms: C_22  and  C_23
REMARK    7  A    between atoms: C_23  and  N_24
REMARK    8  A    between atoms: C_25  and  C_27
REMARK                            x       y       z     vdW  Elec       q    Type
REMARK                         _______ _______ _______ _____ _____    ______ ____
ROOT
ATOM      1  C   UNL     1      45.155   7.661  11.598  0.00  0.00    +0.000 A 
ATOM      2  C   UNL     1      46.115   8.238  12.448  0.00  0.00    +0.000 A 
ATOM      3  C   UNL     1      47.001   7.442  13.181  0.00  0.00    +0.000 A 
ATOM      4  C   UNL     1      46.864   6.070  13.041  0.00  0.00    +0.000 A 
ATOM      5  N   UNL     1      45.976   5.477  12.212  0.00  0.00    +0.000 NA
ATOM      6  C   UNL     1      45.142   6.266  11.474  0.00  0.00    +0.000 A 
ENDROOT
BRANCH   1   8
ATOM      7  C   UNL     1      44.173   9.830  11.553  0.00  0.00    +0.000 C 
ATOM      8  O   UNL     1      44.396   8.574  10.917  0.00  0.00    +0.000 OA
ENDBRANCH   1   8
BRANCH   3   9
ATOM      9  C   UNL     1      48.022   8.018  14.118  0.00  0.00    +0.000 C 
BRANCH   9  10
ATOM     10  N   UNL     1      48.002   7.342  15.393  0.00  0.00    +0.000 N 
ATOM     11  C   UNL     1      49.109   6.704  15.889  0.00  0.00    +0.000 C 
ATOM     12  O   UNL     1      50.190   6.729  15.306  0.00  0.00    +0.000 OA
ATOM     13  H   UNL     1      47.091   7.116  15.779  0.00  0.00    +0.000 HD
BRANCH  11  14
ATOM     14  C   UNL     1      48.950   6.031  17.187  0.00  0.00    +0.000 A 
ATOM     15  C   UNL     1      49.310   4.695  17.318  0.00  0.00    +0.000 A 
ATOM     16  S   UNL     1      49.115   4.083  18.898  0.00  0.00    +0.000 S 
ATOM     17  C   UNL     1      48.494   5.567  19.455  0.00  0.00    +0.000 A 
ATOM     18  N   UNL     1      48.106   5.718  20.748  0.00  0.00    +0.000 NA
ATOM     19  C   UNL     1      47.633   6.888  21.030  0.00  0.00    +0.000 A 
ATOM     20  N   UNL     1      47.516   7.919  20.134  0.00  0.00    +0.000 N 
ATOM     21  C   UNL     1      47.921   7.817  18.824  0.00  0.00    +0.000 A 
ATOM     22  O   UNL     1      47.840   8.770  18.056  0.00  0.00    +0.000 OA
ATOM     23  C   UNL     1      48.454   6.520  18.453  0.00  0.00    +0.000 A 
ATOM     24  H   UNL     1      47.144   8.813  20.418  0.00  0.00    +0.000 HD
ENDBRANCH  11  14
ENDBRANCH   9  10
ENDBRANCH   3   9
BRANCH   6  25
ATOM     25  C   UNL     1      44.263   5.505  10.507  0.00  0.00    +0.000 C 
BRANCH  25  26
ATOM     26  N   UNL     1      45.002   4.729   9.536  0.00  0.00    +0.000 N 
ATOM     27  C   UNL     1      44.875   3.361   9.435  0.00  0.00    +0.000 C 
ATOM     28  O   UNL     1      44.159   2.688  10.165  0.00  0.00    +0.000 OA
ATOM     29  H   UNL     1      45.576   5.189   8.832  0.00  0.00    +0.000 HD
BRANCH  27  30
ATOM     30  C   UNL     1      45.678   2.745   8.327  0.00  0.00    +0.000 A 
ATOM     31  C   UNL     1      45.973   3.484   7.188  0.00  0.00    +0.000 A 
ATOM     32  C   UNL     1      46.704   2.868   6.176  0.00  0.00    +0.000 A 
ATOM     33  C   UNL     1      47.116   1.548   6.339  0.00  0.00    +0.000 A 
ATOM     34  C   UNL     1      46.786   0.892   7.516  0.00  0.00    +0.000 A 
ATOM     35  N   UNL     1      46.078   1.456   8.520  0.00  0.00    +0.000 NA
ENDBRANCH  27  30
ENDBRANCH  25  26
ENDBRANCH   6  25
TORSDOF 7
ENDMDL
MODEL 6
REMARK VINA RESULT:    -7.238      2.801      3.812
REMARK INTER + INTRA:         -11.600
REMARK INTER:                 -10.599
REMARK INTRA:                  -1.001
REMARK UNBOUND:                -1.400
REMARK  Name = 
REMARK  8 active torsions:
REMARK  status: ('A' for Active; 'I' for Inactive)
REMARK    1  A    between atoms: C_1  and  O_2
REMARK    2  A    between atoms: O_2  and  C_3
REMARK    3  A    between atoms: C_5  and  C_6
REMARK    4  A    between atoms: C_6  and  N_7
REMARK    5  A    between atoms: C_8  and  C_10
REMARK    6  A    between atoms: C_22  and  C_23
REMARK    7  A    between atoms: C_23  and  N_24
REMARK    8  A    between atoms: C_25  and  C_27
REMARK                            x       y       z     vdW  Elec       q    Type
REMARK                         _______ _______ _______ _____ _____    ______ ____
ROOT
ATOM      1  C   UNL     1      45.756   5.139  12.632  0.00  0.00    +0.000 A 
ATOM      2  C   UNL     1      46.579   5.951  13.433  0.00  0.00    +0.000 A 
ATOM      3  C   UNL     1      46.761   7.306  13.136  0.00  0.00    +0.000 A 
ATOM      4  C   UNL     1      46.114   7.789  12.011  0.00  0.00    +0.000 A 
ATOM      5  N   UNL     1      45.290   7.050  11.234  0.00  0.00    +0.000 NA
ATOM      6  C   UNL     1      45.091   5.738  11.555  0.00  0.00    +0.000 A 
ENDROOT
BRANCH   1   8
ATOM      7  C   UNL     1      46.813   3.256  13.635  0.00  0.00    +0.000 C 
ATOM      8  O   UNL     1      45.644   3.851  13.081  0.00  0.00    +0.000 OA
ENDBRANCH   1   8
BRANCH   3   9
ATOM      9  C   UNL     1      47.651   8.200  13.951  0.00  0.00    +0.000 C 
BRANCH   9  10
ATOM     10  N   UNL     1      47.905   7.637  15.255  0.00  0.00    +0.000 N 
ATOM     11  C   UNL     1      49.105   7.054  15.569  0.00  0.00    +0.000 C 
ATOM     12  O   UNL     1      50.047   7.038  14.780  0.00  0.00    +0.000 OA
ATOM     13  H   UNL     1      47.096   7.437  15.834  0.00  0.00    +0.000 HD
BRANCH  11  14
ATOM     14  C   UNL     1      49.227   6.495  16.924  0.00  0.00    +0.000 A 
ATOM     15  C   UNL     1      49.788   5.235  17.100  0.00  0.00    +0.000 A 
ATOM     16  S   UNL     1      49.906   4.759  18.733  0.00  0.00    +0.000 S 
ATOM     17  C   UNL     1      49.165   6.197  19.264  0.00  0.00    +0.000 A 
ATOM     18  N   UNL     1      48.945   6.421  20.585  0.00  0.00    +0.000 NA
ATOM     19  C   UNL     1      48.355   7.542  20.845  0.00  0.00    +0.000 A 
ATOM     20  N   UNL     1      47.968   8.457  19.901  0.00  0.00    +0.000 N 
ATOM     21  C   UNL     1      48.196   8.283  18.557  0.00  0.00    +0.000 A 
ATOM     22  O   UNL     1      47.873   9.139  17.739  0.00  0.00    +0.000 OA
ATOM     23  C   UNL     1      48.850   7.036  18.209  0.00  0.00    +0.000 A 
ATOM     24  H   UNL     1      47.517   9.319  20.170  0.00  0.00    +0.000 HD
ENDBRANCH  11  14
ENDBRANCH   9  10
ENDBRANCH   3   9
BRANCH   6  25
ATOM     25  C   UNL     1      44.075   5.033  10.683  0.00  0.00    +0.000 C 
BRANCH  25  26
ATOM     26  N   UNL     1      44.649   4.025   9.820  0.00  0.00    +0.000 N 
ATOM     27  C   UNL     1      45.522   4.338   8.801  0.00  0.00    +0.000 C 
ATOM     28  O   UNL     1      45.861   5.481   8.522  0.00  0.00    +0.000 OA
ATOM     29  H   UNL     1      44.492   3.036  10.002  0.00  0.00    +0.000 HD
BRANCH  27  30
ATOM     30  C   UNL     1      46.056   3.148   8.058  0.00  0.00    +0.000 A 
ATOM     31  C   UNL     1      46.703   3.322   6.841  0.00  0.00    +0.000 A 
ATOM     32  C   UNL     1      47.166   2.190   6.176  0.00  0.00    +0.000 A 
ATOM     33  C   UNL     1      46.972   0.936   6.748  0.00  0.00    +0.000 A 
ATOM     34  C   UNL     1      46.326   0.859   7.974  0.00  0.00    +0.000 A 
ATOM     35  N   UNL     1      45.862   1.934   8.648  0.00  0.00    +0.000 NA
ENDBRANCH  27  30
ENDBRANCH  25  26
ENDBRANCH   6  25
TORSDOF 7
ENDMDL
MODEL 7
REMARK VINA RESULT:    -7.217      1.499      2.057
REMARK INTER + INTRA:         -11.571
REMARK INTER:                 -10.269
REMARK INTRA:                  -1.302
REMARK UNBOUND:                -1.400
REMARK  Name = 
REMARK  8 active torsions:
REMARK  status: ('A' for Active; 'I' for Inactive)
REMARK    1  A    between atoms: C_1  and  O_2
REMARK    2  A    between atoms: O_2  and  C_3
REMARK    3  A    between atoms: C_5  and  C_6
REMARK    4  A    between atoms: C_6  and  N_7
REMARK    5  A    between atoms: C_8  and  C_10
REMARK    6  A    between atoms: C_22  and  C_23
REMARK    7  A    between atoms: C_23  and  N_24
REMARK    8  A    between atoms: C_25  and  C_27
REMARK                            x       y       z     vdW  Elec       q    Type
REMARK                         _______ _______ _______ _____ _____    ______ ____
ROOT
ATOM      1  C   UNL     1      46.508   5.906  13.232  0.00  0.00    +0.000 A 
ATOM      2  C   UNL     1      47.343   6.319  14.286  0.00  0.00    +0.000 A 
ATOM      3  C   UNL     1      47.971   7.568  14.261  0.00  0.00    +0.000 A 
ATOM      4  C   UNL     1      47.746   8.355  13.143  0.00  0.00    +0.000 A 
ATOM      5  N   UNL     1      46.926   8.009  12.125  0.00  0.00    +0.000 NA
ATOM      6  C   UNL     1      46.290   6.802  12.178  0.00  0.00    +0.000 A 
ENDROOT
BRANCH   1   8
ATOM      7  C   UNL     1      46.796   3.547  13.374  0.00  0.00    +0.000 C 
ATOM      8  O   UNL     1      45.934   4.679  13.427  0.00  0.00    +0.000 OA
ENDBRANCH   1   8
BRANCH   3   9
ATOM      9  C   UNL     1      48.890   8.034  15.353  0.00  0.00    +0.000 C 
BRANCH   9  10
ATOM     10  N   UNL     1      49.797   6.987  15.756  0.00  0.00    +0.000 N 
ATOM     11  C   UNL     1      49.849   6.535  17.049  0.00  0.00    +0.000 C 
ATOM     12  O   UNL     1      49.084   6.952  17.915  0.00  0.00    +0.000 OA
ATOM     13  H   UNL     1      50.575   6.790  15.135  0.00  0.00    +0.000 HD
BRANCH  11  14
ATOM     14  C   UNL     1      50.836   5.483  17.335  0.00  0.00    +0.000 A 
ATOM     15  C   UNL     1      52.118   5.834  17.742  0.00  0.00    +0.000 A 
ATOM     16  S   UNL     1      53.119   4.497  18.086  0.00  0.00    +0.000 S 
ATOM     17  C   UNL     1      51.893   3.397  17.655  0.00  0.00    +0.000 A 
ATOM     18  N   UNL     1      52.108   2.058  17.710  0.00  0.00    +0.000 NA
ATOM     19  C   UNL     1      51.100   1.339  17.334  0.00  0.00    +0.000 A 
ATOM     20  N   UNL     1      49.897   1.844  16.912  0.00  0.00    +0.000 N 
ATOM     21  C   UNL     1      49.628   3.191  16.868  0.00  0.00    +0.000 A 
ATOM     22  O   UNL     1      48.528   3.611  16.523  0.00  0.00    +0.000 OA
ATOM     23  C   UNL     1      50.730   4.043  17.273  0.00  0.00    +0.000 A 
ATOM     24  H   UNL     1      49.145   1.229  16.638  0.00  0.00    +0.000 HD
ENDBRANCH  11  14
ENDBRANCH   9  10
ENDBRANCH   3   9
BRANCH   6  25
ATOM     25  C   UNL     1      45.321   6.561  11.042  0.00  0.00    +0.000 C 
BRANCH  25  26
ATOM     26  N   UNL     1      45.760   5.546  10.110  0.00  0.00    +0.000 N 
ATOM     27  C   UNL     1      44.945   4.508   9.713  0.00  0.00    +0.000 C 
ATOM     28  O   UNL     1      43.805   4.340  10.129  0.00  0.00    +0.000 OA
ATOM     29  H   UNL     1      46.663   5.621   9.647  0.00  0.00    +0.000 HD
BRANCH  27  30
ATOM     30  C   UNL     1      45.559   3.593   8.695  0.00  0.00    +0.000 A 
ATOM     31  C   UNL     1      45.583   2.222   8.916  0.00  0.00    +0.000 A 
ATOM     32  C   UNL     1      46.180   1.412   7.954  0.00  0.00    +0.000 A 
ATOM     33  C   UNL     1      46.723   1.995   6.812  0.00  0.00    +0.000 A 
ATOM     34  C   UNL     1      46.642   3.373   6.670  0.00  0.00    +0.000 A 
ATOM     35  N   UNL     1      46.072   4.192   7.581  0.00  0.00    +0.000 NA
ENDBRANCH  27  30
ENDBRANCH  25  26
ENDBRANCH   6  25
TORSDOF 7
ENDMDL
MODEL 8
REMARK VINA RESULT:    -6.738      3.592      9.142
REMARK INTER + INTRA:         -10.895
REMARK INTER:                  -9.579
REMARK INTRA:                  -1.316
REMARK UNBOUND:                -1.400
REMARK  Name = 
REMARK  8 active torsions:
REMARK  status: ('A' for Active; 'I' for Inactive)
REMARK    1  A    between atoms: C_1  and  O_2
REMARK    2  A    between atoms: O_2  and  C_3
REMARK    3  A    between atoms: C_5  and  C_6
REMARK    4  A    between atoms: C_6  and  N_7
REMARK    5  A    between atoms: C_8  and  C_10
REMARK    6  A    between atoms: C_22  and  C_23
REMARK    7  A    between atoms: C_23  and  N_24
REMARK    8  A    between atoms: C_25  and  C_27
REMARK                            x       y       z     vdW  Elec       q    Type
REMARK                         _______ _______ _______ _____ _____    ______ ____
ROOT
ATOM      1  C   UNL     1      50.546   5.773  17.077  0.00  0.00    +0.000 A 
ATOM      2  C   UNL     1      50.089   6.696  16.120  0.00  0.00    +0.000 A 
ATOM      3  C   UNL     1      48.853   6.526  15.488  0.00  0.00    +0.000 A 
ATOM      4  C   UNL     1      48.126   5.399  15.836  0.00  0.00    +0.000 A 
ATOM      5  N   UNL     1      48.516   4.505  16.773  0.00  0.00    +0.000 NA
ATOM      6  C   UNL     1      49.708   4.702  17.410  0.00  0.00    +0.000 A 
ENDROOT
BRANCH   1   8
ATOM      7  C   UNL     1      51.715   6.833  18.861  0.00  0.00    +0.000 C 
ATOM      8  O   UNL     1      51.751   6.105  17.637  0.00  0.00    +0.000 OA
ENDBRANCH   1   8
BRANCH   3   9
ATOM      9  C   UNL     1      48.341   7.474  14.443  0.00  0.00    +0.000 C 
BRANCH   9  10
ATOM     10  N   UNL     1      47.096   7.008  13.879  0.00  0.00    +0.000 N 
ATOM     11  C   UNL     1      46.989   6.659  12.558  0.00  0.00    +0.000 C 
ATOM     12  O   UNL     1      47.958   6.662  11.803  0.00  0.00    +0.000 OA
ATOM     13  H   UNL     1      46.252   7.206  14.405  0.00  0.00    +0.000 HD
BRANCH  11  14
ATOM     14  C   UNL     1      45.660   6.226  12.101  0.00  0.00    +0.000 A 
ATOM     15  C   UNL     1      44.791   7.152  11.536  0.00  0.00    +0.000 A 
ATOM     16  S   UNL     1      43.316   6.477  11.010  0.00  0.00    +0.000 S 
ATOM     17  C   UNL     1      43.762   4.931  11.565  0.00  0.00    +0.000 A 
ATOM     18  N   UNL     1      42.919   3.874  11.433  0.00  0.00    +0.000 NA
ATOM     19  C   UNL     1      43.375   2.764  11.918  0.00  0.00    +0.000 A 
ATOM     20  N   UNL     1      44.598   2.620  12.518  0.00  0.00    +0.000 N 
ATOM     21  C   UNL     1      45.492   3.656  12.647  0.00  0.00    +0.000 A 
ATOM     22  O   UNL     1      46.596   3.486  13.154  0.00  0.00    +0.000 OA
ATOM     23  C   UNL     1      45.027   4.928  12.126  0.00  0.00    +0.000 A 
ATOM     24  H   UNL     1      44.900   1.724  12.870  0.00  0.00    +0.000 HD
ENDBRANCH  11  14
ENDBRANCH   9  10
ENDBRANCH   3   9
BRANCH   6  25
ATOM     25  C   UNL     1      49.997   3.703  18.508  0.00  0.00    +0.000 C 
BRANCH  25  26
ATOM     26  N   UNL     1      51.333   3.152  18.456  0.00  0.00    +0.000 N 
ATOM     27  C   UNL     1      51.634   2.016  17.737  0.00  0.00    +0.000 C 
ATOM     28  O   UNL     1      50.805   1.366  17.113  0.00  0.00    +0.000 OA
ATOM     29  H   UNL     1      52.115   3.646  18.881  0.00  0.00    +0.000 HD
BRANCH  27  30
ATOM     30  C   UNL     1      53.086   1.638  17.757  0.00  0.00    +0.000 A 
ATOM     31  C   UNL     1      54.054   2.576  17.417  0.00  0.00    +0.000 A 
ATOM     32  C   UNL     1      55.387   2.177  17.431  0.00  0.00    +0.000 A 
ATOM     33  C   UNL     1      55.705   0.869  17.786  0.00  0.00    +0.000 A 
ATOM     34  C   UNL     1      54.673   0.004  18.122  0.00  0.00    +0.000 A 
ATOM     35  N   UNL     1      53.368   0.354  18.120  0.00  0.00    +0.000 NA
ENDBRANCH  27  30
ENDBRANCH  25  26
ENDBRANCH   6  25
TORSDOF 7
ENDMDL
MODEL 9
REMARK VINA RESULT:    -6.702      2.958      9.164
REMARK INTER + INTRA:         -10.845
REMARK INTER:                  -9.714
REMARK INTRA:                  -1.131
REMARK UNBOUND:                -1.400
REMARK  Name = 
REMARK  8 active torsions:
REMARK  status: ('A' for Active; 'I' for Inactive)
REMARK    1  A    between atoms: C_1  and  O_2
REMARK    2  A    between atoms: O_2  and  C_3
REMARK    3  A    between atoms: C_5  and  C_6
REMARK    4  A    between atoms: C_6  and  N_7
REMARK    5  A    between atoms: C_8  and  C_10
REMARK    6  A    between atoms: C_22  and  C_23
REMARK    7  A    between atoms: C_23  and  N_24
REMARK    8  A    between atoms: C_25  and  C_27
REMARK                            x       y       z     vdW  Elec       q    Type
REMARK                         _______ _______ _______ _____ _____    ______ ____
ROOT
ATOM      1  C   UNL     1      50.545   7.767  14.388  0.00  0.00    +0.000 A 
ATOM      2  C   UNL     1      49.715   7.970  13.271  0.00  0.00    +0.000 A 
ATOM      3  C   UNL     1      48.385   7.538  13.274  0.00  0.00    +0.000 A 
ATOM      4  C   UNL     1      47.945   6.886  14.414  0.00  0.00    +0.000 A 
ATOM      5  N   UNL     1      48.701   6.699  15.520  0.00  0.00    +0.000 NA
ATOM      6  C   UNL     1      49.987   7.158  15.519  0.00  0.00    +0.000 A 
ENDROOT
BRANCH   1   8
ATOM      7  C   UNL     1      51.972   9.311  13.270  0.00  0.00    +0.000 C 
ATOM      8  O   UNL     1      51.803   8.288  14.246  0.00  0.00    +0.000 OA
ENDBRANCH   1   8
BRANCH   3   9
ATOM      9  C   UNL     1      47.475   7.712  12.093  0.00  0.00    +0.000 C 
BRANCH   9  10
ATOM     10  N   UNL     1      46.791   6.482  11.773  0.00  0.00    +0.000 N 
ATOM     11  C   UNL     1      45.424   6.407  11.729  0.00  0.00    +0.000 C 
ATOM     12  O   UNL     1      44.712   7.394  11.895  0.00  0.00    +0.000 OA
ATOM     13  H   UNL     1      47.328   5.624  11.853  0.00  0.00    +0.000 HD
BRANCH  11  14
ATOM     14  C   UNL     1      44.850   5.089  11.417  0.00  0.00    +0.000 A 
ATOM     15  C   UNL     1      44.099   4.421  12.377  0.00  0.00    +0.000 A 
ATOM     16  S   UNL     1      43.461   2.934  11.837  0.00  0.00    +0.000 S 
ATOM     17  C   UNL     1      44.209   3.103  10.316  0.00  0.00    +0.000 A 
ATOM     18  N   UNL     1      44.074   2.144   9.364  0.00  0.00    +0.000 NA
ATOM     19  C   UNL     1      44.712   2.389   8.266  0.00  0.00    +0.000 A 
ATOM     20  N   UNL     1      45.468   3.509   8.037  0.00  0.00    +0.000 N 
ATOM     21  C   UNL     1      45.608   4.516   8.962  0.00  0.00    +0.000 A 
ATOM     22  O   UNL     1      46.260   5.524   8.713  0.00  0.00    +0.000 OA
ATOM     23  C   UNL     1      44.918   4.286  10.218  0.00  0.00    +0.000 A 
ATOM     24  H   UNL     1      45.937   3.646   7.154  0.00  0.00    +0.000 HD
ENDBRANCH  11  14
ENDBRANCH   9  10
ENDBRANCH   3   9
BRANCH   6  25
ATOM     25  C   UNL     1      50.707   6.988  16.838  0.00  0.00    +0.000 C 
BRANCH  25  26
ATOM     26  N   UNL     1      51.313   5.686  17.006  0.00  0.00    +0.000 N 
ATOM     27  C   UNL     1      50.717   4.687  17.744  0.00  0.00    +0.000 C 
ATOM     28  O   UNL     1      49.655   4.820  18.338  0.00  0.00    +0.000 OA
ATOM     29  H   UNL     1      52.162   5.440  16.503  0.00  0.00    +0.000 HD
BRANCH  27  30
ATOM     30  C   UNL     1      51.471   3.389  17.749  0.00  0.00    +0.000 A 
ATOM     31  C   UNL     1      50.832   2.211  17.381  0.00  0.00    +0.000 A 
ATOM     32  C   UNL     1      51.564   1.028  17.419  0.00  0.00    +0.000 A 
ATOM     33  C   UNL     1      52.898   1.063  17.814  0.00  0.00    +0.000 A 
ATOM     34  C   UNL     1      53.457   2.287  18.152  0.00  0.00    +0.000 A 
ATOM     35  N   UNL     1      52.780   3.456  18.129  0.00  0.00    +0.000 NA
ENDBRANCH  27  30
ENDBRANCH  25  26
ENDBRANCH   6  25
TORSDOF 7
ENDMDL
