MODEL 1
REMARK VINA RESULT:    -9.036      0.000      0.000
REMARK INTER + INTRA:         -11.799
REMARK INTER:                 -11.150
REMARK INTRA:                  -0.649
REMARK UNBOUND:                -0.649
REMARK  Name = 
REMARK  4 active torsions:
REMARK  status: ('A' for Active; 'I' for Inactive)
REMARK    1  A    between atoms: C_2  and  C_4
REMARK    2  A    between atoms: N_8  and  C_9
REMARK    3  A    between atoms: C_9  and  C_10
REMARK    4  A    between atoms: C_14  and  C_15
REMARK                            x       y       z     vdW  Elec       q    Type
REMARK                         _______ _______ _______ _____ _____    ______ ____
ROOT
ATOM      1  C   UNL     1      43.524   3.632  11.140  0.00  0.00    +0.000 C 
ENDROOT
BRANCH   1   6
ATOM      2  C   UNL     1      46.628   2.486   7.168  0.00  0.00    +0.000 A 
ATOM      3  C   UNL     1      46.019   3.686   7.514  0.00  0.00    +0.000 A 
ATOM      4  C   UNL     1      45.200   3.731   8.642  0.00  0.00    +0.000 A 
ATOM      5  C   UNL     1      44.993   2.582   9.397  0.00  0.00    +0.000 A 
ATOM      6  N   UNL     1      44.271   2.550  10.554  0.00  0.00    +0.000 N 
ATOM      7  N   UNL     1      45.549   1.405   9.044  0.00  0.00    +0.000 NA
ATOM      8  C   UNL     1      46.343   1.373   7.943  0.00  0.00    +0.000 A 
ATOM      9  H   UNL     1      44.149   1.613  10.916  0.00  0.00    +0.000 HD
BRANCH   2  11
ATOM     10  N   UNL     1      47.452   3.296   5.032  0.00  0.00    +0.000 N 
ATOM     11  C   UNL     1      47.552   2.357   6.019  0.00  0.00    +0.000 C 
ATOM     12  O   UNL     1      48.394   1.472   5.976  0.00  0.00    +0.000 OA
ATOM     13  H   UNL     1      48.160   3.258   4.310  0.00  0.00    +0.000 HD
ATOM     14  H   UNL     1      46.955   4.166   5.156  0.00  0.00    +0.000 HD
ENDBRANCH   2  11
ENDBRANCH   1   6
BRANCH   1  15
ATOM     15  C   UNL     1      44.423   4.736  11.638  0.00  0.00    +0.000 A 
ATOM     16  C   UNL     1      44.283   6.044  11.162  0.00  0.00    +0.000 A 
ATOM     17  C   UNL     1      45.091   7.062  11.659  0.00  0.00    +0.000 A 
ATOM     18  C   UNL     1      46.033   6.788  12.655  0.00  0.00    +0.000 A 
ATOM     19  C   UNL     1      46.176   5.497  13.193  0.00  0.00    +0.000 A 
ATOM     20  C   UNL     1      45.372   4.479  12.644  0.00  0.00    +0.000 A 
BRANCH  19  21
ATOM     21  C   UNL     1      47.053   5.228  14.358  0.00  0.00    +0.000 A 
ATOM     22  C   UNL     1      47.959   6.204  14.817  0.00  0.00    +0.000 A 
ATOM     23  C   UNL     1      48.694   6.012  15.984  0.00  0.00    +0.000 A 
ATOM     24  F   UNL     1      49.527   6.976  16.400  0.00  0.00    +0.000 F 
ATOM     25  C   UNL     1      48.560   4.857  16.736  0.00  0.00    +0.000 A 
ATOM     26  C   UNL     1      47.694   3.876  16.283  0.00  0.00    +0.000 A 
ATOM     27  F   UNL     1      47.538   2.756  17.000  0.00  0.00    +0.000 F 
ATOM     28  C   UNL     1      46.957   4.043  15.108  0.00  0.00    +0.000 A 
ENDBRANCH  19  21
ENDBRANCH   1  15
TORSDOF 4
ENDMDL
MODEL 2
REMARK VINA RESULT:    -8.388      4.952      8.530
REMARK INTER + INTRA:         -10.999
REMARK INTER:                 -10.472
REMARK INTRA:                  -0.527
REMARK UNBOUND:                -0.649
REMARK  Name = 
REMARK  4 active torsions:
REMARK  status: ('A' for Active; 'I' for Inactive)
REMARK    1  A    between atoms: C_2  and  C_4
REMARK    2  A    between atoms: N_8  and  C_9
REMARK    3  A    between atoms: C_9  and  C_10
REMARK    4  A    between atoms: C_14  and  C_15
REMARK                            x       y       z     vdW  Elec       q    Type
REMARK                         _______ _______ _______ _____ _____    ______ ____
ROOT
ATOM      1  C   UNL     1      46.251   5.443  13.338  0.00  0.00    +0.000 C 
ENDROOT
BRANCH   1   6
ATOM      2  C   UNL     1      48.545   4.329  17.835  0.00  0.00    +0.000 A 
ATOM      3  C   UNL     1      48.653   5.454  17.027  0.00  0.00    +0.000 A 
ATOM      4  C   UNL     1      47.932   5.504  15.834  0.00  0.00    +0.000 A 
ATOM      5  C   UNL     1      47.126   4.434  15.463  0.00  0.00    +0.000 A 
ATOM      6  N   UNL     1      46.330   4.427  14.355  0.00  0.00    +0.000 N 
ATOM      7  N   UNL     1      47.047   3.323  16.223  0.00  0.00    +0.000 NA
ATOM      8  C   UNL     1      47.755   3.284  17.381  0.00  0.00    +0.000 A 
ATOM      9  H   UNL     1      45.888   3.531  14.193  0.00  0.00    +0.000 HD
BRANCH   2  11
ATOM     10  N   UNL     1      48.545   3.601  20.152  0.00  0.00    +0.000 N 
ATOM     11  C   UNL     1      49.232   4.209  19.140  0.00  0.00    +0.000 C 
ATOM     12  O   UNL     1      50.380   4.600  19.292  0.00  0.00    +0.000 OA
ATOM     13  H   UNL     1      49.066   3.429  21.002  0.00  0.00    +0.000 HD
ATOM     14  H   UNL     1      47.714   3.050  19.992  0.00  0.00    +0.000 HD
ENDBRANCH   2  11
ENDBRANCH   1   6
BRANCH   1  15
ATOM     15  C   UNL     1      45.306   5.058  12.227  0.00  0.00    +0.000 A 
ATOM     16  C   UNL     1      43.998   5.553  12.195  0.00  0.00    +0.000 A 
ATOM     17  C   UNL     1      43.149   5.223  11.143  0.00  0.00    +0.000 A 
ATOM     18  C   UNL     1      43.605   4.415  10.098  0.00  0.00    +0.000 A 
ATOM     19  C   UNL     1      44.926   3.932  10.069  0.00  0.00    +0.000 A 
ATOM     20  C   UNL     1      45.751   4.249  11.166  0.00  0.00    +0.000 A 
BRANCH  19  21
ATOM     21  C   UNL     1      45.468   3.212   8.892  0.00  0.00    +0.000 A 
ATOM     22  C   UNL     1      45.859   3.914   7.736  0.00  0.00    +0.000 A 
ATOM     23  C   UNL     1      46.488   3.263   6.676  0.00  0.00    +0.000 A 
ATOM     24  F   UNL     1      46.866   3.972   5.605  0.00  0.00    +0.000 F 
ATOM     25  C   UNL     1      46.752   1.905   6.722  0.00  0.00    +0.000 A 
ATOM     26  C   UNL     1      46.349   1.195   7.841  0.00  0.00    +0.000 A 
ATOM     27  F   UNL     1      46.605  -0.117   7.913  0.00  0.00    +0.000 F 
ATOM     28  C   UNL     1      45.705   1.826   8.908  0.00  0.00    +0.000 A 
ENDBRANCH  19  21
ENDBRANCH   1  15
TORSDOF 4
ENDMDL
MODEL 3
REMARK VINA RESULT:    -8.210      4.813      7.627
REMARK INTER + INTRA:         -10.779
REMARK INTER:                  -9.999
REMARK INTRA:                  -0.779
REMARK UNBOUND:                -0.649
REMARK  Name = 
REMARK  4 active torsions:
REMARK  status: ('A' for Active; 'I' for Inactive)
REMARK    1  A    between atoms: C_2  and  C_4
REMARK    2  A    between atoms: N_8  and  C_9
REMARK    3  A    between atoms: C_9  and  C_10
REMARK    4  A    between atoms: C_14  and  C_15
REMARK                            x       y       z     vdW  Elec       q    Type
REMARK                         _______ _______ _______ _____ _____    ______ ____
ROOT
ATOM      1  C   UNL     1      44.985   7.213  11.671  0.00  0.00    +0.000 C 
ENDROOT
BRANCH   1   6
ATOM      2  C   UNL     1      49.928   7.938  13.002  0.00  0.00    +0.000 A 
ATOM      3  C   UNL     1      49.332   7.909  11.747  0.00  0.00    +0.000 A 
ATOM      4  C   UNL     1      47.960   7.674  11.653  0.00  0.00    +0.000 A 
ATOM      5  C   UNL     1      47.210   7.462  12.805  0.00  0.00    +0.000 A 
ATOM      6  N   UNL     1      45.856   7.299  12.814  0.00  0.00    +0.000 N 
ATOM      7  N   UNL     1      47.790   7.449  14.023  0.00  0.00    +0.000 NA
ATOM      8  C   UNL     1      49.126   7.677  14.102  0.00  0.00    +0.000 A 
ATOM      9  H   UNL     1      45.494   7.063  13.729  0.00  0.00    +0.000 HD
BRANCH   2  11
ATOM     10  N   UNL     1      51.929   7.810  14.371  0.00  0.00    +0.000 N 
ATOM     11  C   UNL     1      51.365   8.230  13.200  0.00  0.00    +0.000 C 
ATOM     12  O   UNL     1      52.026   8.786  12.336  0.00  0.00    +0.000 OA
ATOM     13  H   UNL     1      52.932   7.919  14.445  0.00  0.00    +0.000 HD
ATOM     14  H   UNL     1      51.485   7.139  14.981  0.00  0.00    +0.000 HD
ENDBRANCH   2  11
ENDBRANCH   1   6
BRANCH   1  15
ATOM     15  C   UNL     1      44.590   5.790  11.367  0.00  0.00    +0.000 A 
ATOM     16  C   UNL     1      43.522   5.185  12.038  0.00  0.00    +0.000 A 
ATOM     17  C   UNL     1      43.141   3.884  11.721  0.00  0.00    +0.000 A 
ATOM     18  C   UNL     1      43.806   3.183  10.712  0.00  0.00    +0.000 A 
ATOM     19  C   UNL     1      44.855   3.770   9.982  0.00  0.00    +0.000 A 
ATOM     20  C   UNL     1      45.246   5.072  10.351  0.00  0.00    +0.000 A 
BRANCH  19  21
ATOM     21  C   UNL     1      45.459   3.100   8.805  0.00  0.00    +0.000 A 
ATOM     22  C   UNL     1      45.841   3.842   7.671  0.00  0.00    +0.000 A 
ATOM     23  C   UNL     1      46.524   3.244   6.615  0.00  0.00    +0.000 A 
ATOM     24  F   UNL     1      46.891   3.991   5.566  0.00  0.00    +0.000 F 
ATOM     25  C   UNL     1      46.855   1.900   6.643  0.00  0.00    +0.000 A 
ATOM     26  C   UNL     1      46.462   1.150   7.739  0.00  0.00    +0.000 A 
ATOM     27  F   UNL     1      46.782  -0.149   7.793  0.00  0.00    +0.000 F 
ATOM     28  C   UNL     1      45.765   1.727   8.802  0.00  0.00    +0.000 A 
ENDBRANCH  19  21
ENDBRANCH   1  15
TORSDOF 4
ENDMDL
MODEL 4
REMARK VINA RESULT:    -7.979      4.808      7.787
REMARK INTER + INTRA:         -10.493
REMARK INTER:                  -9.722
REMARK INTRA:                  -0.771
REMARK UNBOUND:                -0.649
REMARK  Name = 
REMARK  4 active torsions:
REMARK  status: ('A' for Active; 'I' for Inactive)
REMARK    1  A    between atoms: C_2  and  C_4
REMARK    2  A    between atoms: N_8  and  C_9
REMARK    3  A    between atoms: C_9  and  C_10
REMARK    4  A    between atoms: C_14  and  C_15
REMARK                            x       y       z     vdW  Elec       q    Type
REMARK                         _______ _______ _______ _____ _____    ______ ____
ROOT
ATOM      1  C   UNL     1      44.935   6.926  11.997  0.00  0.00    +0.000 C 
ENDROOT
BRANCH   1   6
ATOM      2  C   UNL     1      49.906   7.912  13.019  0.00  0.00    +0.000 A 
ATOM      3  C   UNL     1      49.184   8.065  11.842  0.00  0.00    +0.000 A 
ATOM      4  C   UNL     1      47.837   7.704  11.820  0.00  0.00    +0.000 A 
ATOM      5  C   UNL     1      47.236   7.189  12.963  0.00  0.00    +0.000 A 
ATOM      6  N   UNL     1      45.911   6.881  13.055  0.00  0.00    +0.000 N 
ATOM      7  N   UNL     1      47.940   7.002  14.098  0.00  0.00    +0.000 NA
ATOM      8  C   UNL     1      49.251   7.355  14.107  0.00  0.00    +0.000 A 
ATOM      9  H   UNL     1      45.670   6.432  13.929  0.00  0.00    +0.000 HD
BRANCH   2  11
ATOM     10  N   UNL     1      52.014   7.825  14.221  0.00  0.00    +0.000 N 
ATOM     11  C   UNL     1      51.323   8.315  13.149  0.00  0.00    +0.000 C 
ATOM     12  O   UNL     1      51.863   9.022  12.311  0.00  0.00    +0.000 OA
ATOM     13  H   UNL     1      53.006   8.020  14.237  0.00  0.00    +0.000 HD
ATOM     14  H   UNL     1      51.679   7.052  14.778  0.00  0.00    +0.000 HD
ENDBRANCH   2  11
ENDBRANCH   1   6
BRANCH   1  15
ATOM     15  C   UNL     1      44.560   5.547  11.514  0.00  0.00    +0.000 A 
ATOM     16  C   UNL     1      43.420   4.902  12.006  0.00  0.00    +0.000 A 
ATOM     17  C   UNL     1      43.062   3.646  11.524  0.00  0.00    +0.000 A 
ATOM     18  C   UNL     1      43.826   3.033  10.527  0.00  0.00    +0.000 A 
ATOM     19  C   UNL     1      44.953   3.665   9.974  0.00  0.00    +0.000 A 
ATOM     20  C   UNL     1      45.315   4.917  10.508  0.00  0.00    +0.000 A 
BRANCH  19  21
ATOM     21  C   UNL     1      45.673   3.100   8.808  0.00  0.00    +0.000 A 
ATOM     22  C   UNL     1      45.974   1.725   8.746  0.00  0.00    +0.000 A 
ATOM     23  C   UNL     1      46.536   1.162   7.602  0.00  0.00    +0.000 A 
ATOM     24  F   UNL     1      46.783  -0.155   7.575  0.00  0.00    +0.000 F 
ATOM     25  C   UNL     1      46.815   1.931   6.486  0.00  0.00    +0.000 A 
ATOM     26  C   UNL     1      46.551   3.289   6.541  0.00  0.00    +0.000 A 
ATOM     27  F   UNL     1      46.802   4.050   5.469  0.00  0.00    +0.000 F 
ATOM     28  C   UNL     1      46.001   3.876   7.683  0.00  0.00    +0.000 A 
ENDBRANCH  19  21
ENDBRANCH   1  15
TORSDOF 4
ENDMDL
MODEL 5
REMARK VINA RESULT:    -7.566      4.490      7.993
REMARK INTER + INTRA:          -9.985
REMARK INTER:                  -9.975
REMARK INTRA:                  -0.010
REMARK UNBOUND:                -0.649
REMARK  Name = 
REMARK  4 active torsions:
REMARK  status: ('A' for Active; 'I' for Inactive)
REMARK    1  A    between atoms: C_2  and  C_4
REMARK    2  A    between atoms: N_8  and  C_9
REMARK    3  A    between atoms: C_9  and  C_10
REMARK    4  A    between atoms: C_14  and  C_15
REMARK                            x       y       z     vdW  Elec       q    Type
REMARK                         _______ _______ _______ _____ _____    ______ ____
ROOT
ATOM      1  C   UNL     1      45.164   6.964  11.231  0.00  0.00    +0.000 C 
ENDROOT
BRANCH   1   6
ATOM      2  C   UNL     1      47.480   4.807  15.319  0.00  0.00    +0.000 A 
ATOM      3  C   UNL     1      46.262   4.513  14.719  0.00  0.00    +0.000 A 
ATOM      4  C   UNL     1      45.847   5.266  13.620  0.00  0.00    +0.000 A 
ATOM      5  C   UNL     1      46.644   6.302  13.146  0.00  0.00    +0.000 A 
ATOM      6  N   UNL     1      46.356   7.039  12.036  0.00  0.00    +0.000 N 
ATOM      7  N   UNL     1      47.809   6.618  13.748  0.00  0.00    +0.000 NA
ATOM      8  C   UNL     1      48.202   5.879  14.818  0.00  0.00    +0.000 A 
ATOM      9  H   UNL     1      46.998   7.809  11.896  0.00  0.00    +0.000 HD
BRANCH   2  11
ATOM     10  N   UNL     1      47.721   4.472  17.712  0.00  0.00    +0.000 N 
ATOM     11  C   UNL     1      48.024   4.030  16.455  0.00  0.00    +0.000 C 
ATOM     12  O   UNL     1      48.679   3.014  16.275  0.00  0.00    +0.000 OA
ATOM     13  H   UNL     1      48.007   3.871  18.474  0.00  0.00    +0.000 HD
ATOM     14  H   UNL     1      46.988   5.142  17.892  0.00  0.00    +0.000 HD
ENDBRANCH   2  11
ENDBRANCH   1   6
BRANCH   1  15
ATOM     15  C   UNL     1      44.804   5.540  10.885  0.00  0.00    +0.000 A 
ATOM     16  C   UNL     1      43.685   4.926  11.457  0.00  0.00    +0.000 A 
ATOM     17  C   UNL     1      43.340   3.625  11.101  0.00  0.00    +0.000 A 
ATOM     18  C   UNL     1      44.095   2.934  10.150  0.00  0.00    +0.000 A 
ATOM     19  C   UNL     1      45.201   3.530   9.518  0.00  0.00    +0.000 A 
ATOM     20  C   UNL     1      45.551   4.832   9.927  0.00  0.00    +0.000 A 
BRANCH  19  21
ATOM     21  C   UNL     1      45.909   2.870   8.395  0.00  0.00    +0.000 A 
ATOM     22  C   UNL     1      46.167   1.485   8.422  0.00  0.00    +0.000 A 
ATOM     23  C   UNL     1      46.716   0.834   7.319  0.00  0.00    +0.000 A 
ATOM     24  F   UNL     1      46.922  -0.489   7.377  0.00  0.00    +0.000 F 
ATOM     25  C   UNL     1      47.026   1.522   6.159  0.00  0.00    +0.000 A 
ATOM     26  C   UNL     1      46.804   2.888   6.126  0.00  0.00    +0.000 A 
ATOM     27  F   UNL     1      47.084   3.573   5.010  0.00  0.00    +0.000 F 
ATOM     28  C   UNL     1      46.267   3.563   7.225  0.00  0.00    +0.000 A 
ENDBRANCH  19  21
ENDBRANCH   1  15
TORSDOF 4
ENDMDL
MODEL 6
REMARK VINA RESULT:    -7.349      4.766      7.847
REMARK INTER + INTRA:          -9.717
REMARK INTER:                  -9.745
REMARK INTRA:                   0.029
REMARK UNBOUND:                -0.649
REMARK  Name = 
REMARK  4 active torsions:
REMARK  status: ('A' for Active; 'I' for Inactive)
REMARK    1  A    between atoms: C_2  and  C_4
REMARK    2  A    between atoms: N_8  and  C_9
REMARK    3  A    between atoms: C_9  and  C_10
REMARK    4  A    between atoms: C_14  and  C_15
REMARK                            x       y       z     vdW  Elec       q    Type
REMARK                         _______ _______ _______ _____ _____    ______ ____
ROOT
ATOM      1  C   UNL     1      48.986   7.862  12.605  0.00  0.00    +0.000 C 
ENDROOT
BRANCH   1   6
ATOM      2  C   UNL     1      47.778   4.850  16.630  0.00  0.00    +0.000 A 
ATOM      3  C   UNL     1      47.384   4.772  15.300  0.00  0.00    +0.000 A 
ATOM      4  C   UNL     1      47.842   5.733  14.398  0.00  0.00    +0.000 A 
ATOM      5  C   UNL     1      48.673   6.758  14.837  0.00  0.00    +0.000 A 
ATOM      6  N   UNL     1      49.227   7.694  14.015  0.00  0.00    +0.000 N 
ATOM      7  N   UNL     1      49.028   6.862  16.134  0.00  0.00    +0.000 NA
ATOM      8  C   UNL     1      48.574   5.922  17.002  0.00  0.00    +0.000 A 
ATOM      9  H   UNL     1      49.727   8.416  14.519  0.00  0.00    +0.000 HD
BRANCH   2  11
ATOM     10  N   UNL     1      47.860   4.025  18.912  0.00  0.00    +0.000 N 
ATOM     11  C   UNL     1      47.383   3.848  17.644  0.00  0.00    +0.000 C 
ATOM     12  O   UNL     1      46.630   2.927  17.368  0.00  0.00    +0.000 OA
ATOM     13  H   UNL     1      47.495   3.396  19.615  0.00  0.00    +0.000 HD
ATOM     14  H   UNL     1      48.265   4.895  19.226  0.00  0.00    +0.000 HD
ENDBRANCH   2  11
ENDBRANCH   1   6
BRANCH   1  15
ATOM     15  C   UNL     1      47.523   7.739  12.263  0.00  0.00    +0.000 A 
ATOM     16  C   UNL     1      46.644   8.806  12.478  0.00  0.00    +0.000 A 
ATOM     17  C   UNL     1      45.304   8.694  12.121  0.00  0.00    +0.000 A 
ATOM     18  C   UNL     1      44.831   7.523  11.523  0.00  0.00    +0.000 A 
ATOM     19  C   UNL     1      45.689   6.443  11.249  0.00  0.00    +0.000 A 
ATOM     20  C   UNL     1      47.031   6.568  11.657  0.00  0.00    +0.000 A 
BRANCH  19  21
ATOM     21  C   UNL     1      45.237   5.264  10.472  0.00  0.00    +0.000 A 
ATOM     22  C   UNL     1      45.632   5.092   9.130  0.00  0.00    +0.000 A 
ATOM     23  C   UNL     1      45.320   3.928   8.431  0.00  0.00    +0.000 A 
ATOM     24  F   UNL     1      45.736   3.794   7.165  0.00  0.00    +0.000 F 
ATOM     25  C   UNL     1      44.614   2.898   9.030  0.00  0.00    +0.000 A 
ATOM     26  C   UNL     1      44.195   3.063  10.339  0.00  0.00    +0.000 A 
ATOM     27  F   UNL     1      43.522   2.076  10.942  0.00  0.00    +0.000 F 
ATOM     28  C   UNL     1      44.486   4.228  11.053  0.00  0.00    +0.000 A 
ENDBRANCH  19  21
ENDBRANCH   1  15
TORSDOF 4
ENDMDL
MODEL 7
REMARK VINA RESULT:    -7.285      5.137      8.745
REMARK INTER + INTRA:          -9.638
REMARK INTER:                  -9.003
REMARK INTRA:                  -0.634
REMARK UNBOUND:                -0.649
REMARK  Name = 
REMARK  4 active torsions:
REMARK  status: ('A' for Active; 'I' for Inactive)
REMARK    1  A    between atoms: C_2  and  C_4
REMARK    2  A    between atoms: N_8  and  C_9
REMARK    3  A    between atoms: C_9  and  C_10
REMARK    4  A    between atoms: C_14  and  C_15
REMARK                            x       y       z     vdW  Elec       q    Type
REMARK                         _______ _______ _______ _____ _____    ______ ____
ROOT
ATOM      1  C   UNL     1      48.229   7.697  14.113  0.00  0.00    +0.000 C 
ENDROOT
BRANCH   1   6
ATOM      2  C   UNL     1      49.047   5.345  18.643  0.00  0.00    +0.000 A 
ATOM      3  C   UNL     1      48.826   6.686  18.355  0.00  0.00    +0.000 A 
ATOM      4  C   UNL     1      48.648   7.075  17.027  0.00  0.00    +0.000 A 
ATOM      5  C   UNL     1      48.704   6.127  16.012  0.00  0.00    +0.000 A 
ATOM      6  N   UNL     1      48.468   6.403  14.698  0.00  0.00    +0.000 N 
ATOM      7  N   UNL     1      48.958   4.830  16.281  0.00  0.00    +0.000 NA
ATOM      8  C   UNL     1      49.131   4.464  17.577  0.00  0.00    +0.000 A 
ATOM      9  H   UNL     1      48.645   5.612  14.091  0.00  0.00    +0.000 HD
BRANCH   2  11
ATOM     10  N   UNL     1      48.529   3.685  20.338  0.00  0.00    +0.000 N 
ATOM     11  C   UNL     1      49.196   4.835  20.024  0.00  0.00    +0.000 C 
ATOM     12  O   UNL     1      49.917   5.396  20.835  0.00  0.00    +0.000 OA
ATOM     13  H   UNL     1      48.727   3.291  21.248  0.00  0.00    +0.000 HD
ATOM     14  H   UNL     1      48.140   3.071  19.636  0.00  0.00    +0.000 HD
ENDBRANCH   2  11
ENDBRANCH   1   6
BRANCH   1  15
ATOM     15  C   UNL     1      47.017   7.697  13.215  0.00  0.00    +0.000 A 
ATOM     16  C   UNL     1      46.324   8.882  12.947  0.00  0.00    +0.000 A 
ATOM     17  C   UNL     1      45.231   8.876  12.085  0.00  0.00    +0.000 A 
ATOM     18  C   UNL     1      44.833   7.690  11.463  0.00  0.00    +0.000 A 
ATOM     19  C   UNL     1      45.528   6.485  11.670  0.00  0.00    +0.000 A 
ATOM     20  C   UNL     1      46.606   6.512  12.577  0.00  0.00    +0.000 A 
BRANCH  19  21
ATOM     21  C   UNL     1      45.218   5.260  10.895  0.00  0.00    +0.000 A 
ATOM     22  C   UNL     1      44.458   4.221  11.466  0.00  0.00    +0.000 A 
ATOM     23  C   UNL     1      44.053   3.124  10.707  0.00  0.00    +0.000 A 
ATOM     24  F   UNL     1      43.310   2.170  11.282  0.00  0.00    +0.000 F 
ATOM     25  C   UNL     1      44.380   3.019   9.366  0.00  0.00    +0.000 A 
ATOM     26  C   UNL     1      45.150   4.019   8.797  0.00  0.00    +0.000 A 
ATOM     27  F   UNL     1      45.468   3.945   7.498  0.00  0.00    +0.000 F 
ATOM     28  C   UNL     1      45.578   5.119   9.543  0.00  0.00    +0.000 A 
ENDBRANCH  19  21
ENDBRANCH   1  15
TORSDOF 4
ENDMDL
MODEL 8
REMARK VINA RESULT:    -6.926      5.290      8.703
REMARK INTER + INTRA:          -9.195
REMARK INTER:                  -8.460
REMARK INTRA:                  -0.735
REMARK UNBOUND:                -0.649
REMARK  Name = 
REMARK  4 active torsions:
REMARK  status: ('A' for Active; 'I' for Inactive)
REMARK    1  A    between atoms: C_2  and  C_4
REMARK    2  A    between atoms: N_8  and  C_9
REMARK    3  A    between atoms: C_9  and  C_10
REMARK    4  A    between atoms: C_14  and  C_15
REMARK                            x       y       z     vdW  Elec       q    Type
REMARK                         _______ _______ _______ _____ _____    ______ ____
ROOT
ATOM      1  C   UNL     1      48.975   7.875  12.636  0.00  0.00    +0.000 C 
ENDROOT
BRANCH   1   6
ATOM      2  C   UNL     1      49.056   7.418  17.785  0.00  0.00    +0.000 A 
ATOM      3  C   UNL     1      48.590   8.452  16.983  0.00  0.00    +0.000 A 
ATOM      4  C   UNL     1      48.701   8.340  15.597  0.00  0.00    +0.000 A 
ATOM      5  C   UNL     1      49.280   7.208  15.036  0.00  0.00    +0.000 A 
ATOM      6  N   UNL     1      49.362   6.978  13.694  0.00  0.00    +0.000 N 
ATOM      7  N   UNL     1      49.770   6.217  15.809  0.00  0.00    +0.000 NA
ATOM      8  C   UNL     1      49.659   6.339  17.157  0.00  0.00    +0.000 A 
ATOM      9  H   UNL     1      49.898   6.150  13.467  0.00  0.00    +0.000 HD
BRANCH   2  11
ATOM     10  N   UNL     1      47.752   6.998  19.790  0.00  0.00    +0.000 N 
ATOM     11  C   UNL     1      48.935   7.429  19.259  0.00  0.00    +0.000 C 
ATOM     12  O   UNL     1      49.868   7.769  19.971  0.00  0.00    +0.000 OA
ATOM     13  H   UNL     1      47.724   6.908  20.797  0.00  0.00    +0.000 HD
ATOM     14  H   UNL     1      47.070   6.481  19.253  0.00  0.00    +0.000 HD
ENDBRANCH   2  11
ENDBRANCH   1   6
BRANCH   1  15
ATOM     15  C   UNL     1      47.508   7.761  12.305  0.00  0.00    +0.000 A 
ATOM     16  C   UNL     1      46.637   8.832  12.532  0.00  0.00    +0.000 A 
ATOM     17  C   UNL     1      45.293   8.729  12.185  0.00  0.00    +0.000 A 
ATOM     18  C   UNL     1      44.809   7.562  11.587  0.00  0.00    +0.000 A 
ATOM     19  C   UNL     1      45.659   6.479  11.301  0.00  0.00    +0.000 A 
ATOM     20  C   UNL     1      47.005   6.596  11.698  0.00  0.00    +0.000 A 
BRANCH  19  21
ATOM     21  C   UNL     1      45.195   5.306  10.523  0.00  0.00    +0.000 A 
ATOM     22  C   UNL     1      45.614   5.113   9.192  0.00  0.00    +0.000 A 
ATOM     23  C   UNL     1      45.288   3.951   8.495  0.00  0.00    +0.000 A 
ATOM     24  F   UNL     1      45.728   3.796   7.240  0.00  0.00    +0.000 F 
ATOM     25  C   UNL     1      44.543   2.945   9.086  0.00  0.00    +0.000 A 
ATOM     26  C   UNL     1      44.100   3.131  10.384  0.00  0.00    +0.000 A 
ATOM     27  F   UNL     1      43.388   2.166  10.980  0.00  0.00    +0.000 F 
ATOM     28  C   UNL     1      44.404   4.294  11.095  0.00  0.00    +0.000 A 
ENDBRANCH  19  21
ENDBRANCH   1  15
TORSDOF 4
ENDMDL
MODEL 9
REMARK VINA RESULT:    -6.594      5.568      7.458
REMARK INTER + INTRA:          -8.785
REMARK INTER:                  -7.980
REMARK INTRA:                  -0.805
REMARK UNBOUND:                -0.649
REMARK  Name = 
REMARK  4 active torsions:
REMARK  status: ('A' for Active; 'I' for Inactive)
REMARK    1  A    between atoms: C_2  and  C_4
REMARK    2  A    between atoms: N_8  and  C_9
REMARK    3  A    between atoms: C_9  and  C_10
REMARK    4  A    between atoms: C_14  and  C_15
REMARK                            x       y       z     vdW  Elec       q    Type
REMARK                         _______ _______ _______ _____ _____    ______ ____
ROOT
ATOM      1  C   UNL     1      48.626   7.327  13.454  0.00  0.00    +0.000 C 
ENDROOT
BRANCH   1   6
ATOM      2  C   UNL     1      51.924   9.679  10.242  0.00  0.00    +0.000 A 
ATOM      3  C   UNL     1      50.957  10.213  11.085  0.00  0.00    +0.000 A 
ATOM      4  C   UNL     1      50.171   9.350  11.848  0.00  0.00    +0.000 A 
ATOM      5  C   UNL     1      50.353   7.976  11.753  0.00  0.00    +0.000 A 
ATOM      6  N   UNL     1      49.685   7.063  12.514  0.00  0.00    +0.000 N 
ATOM      7  N   UNL     1      51.263   7.449  10.908  0.00  0.00    +0.000 NA
ATOM      8  C   UNL     1      52.021   8.298  10.168  0.00  0.00    +0.000 A 
ATOM      9  H   UNL     1      49.876   6.107  12.244  0.00  0.00    +0.000 HD
BRANCH   2  11
ATOM     10  N   UNL     1      53.891  11.094  10.083  0.00  0.00    +0.000 N 
ATOM     11  C   UNL     1      52.836  10.518   9.434  0.00  0.00    +0.000 C 
ATOM     12  O   UNL     1      52.675  10.655   8.230  0.00  0.00    +0.000 OA
ATOM     13  H   UNL     1      54.564  11.573   9.499  0.00  0.00    +0.000 HD
ATOM     14  H   UNL     1      54.192  10.800  11.001  0.00  0.00    +0.000 HD
ENDBRANCH   2  11
ENDBRANCH   1   6
BRANCH   1  15
ATOM     15  C   UNL     1      47.274   7.366  12.786  0.00  0.00    +0.000 A 
ATOM     16  C   UNL     1      46.507   8.537  12.790  0.00  0.00    +0.000 A 
ATOM     17  C   UNL     1      45.279   8.573  12.136  0.00  0.00    +0.000 A 
ATOM     18  C   UNL     1      44.815   7.447  11.450  0.00  0.00    +0.000 A 
ATOM     19  C   UNL     1      45.574   6.266  11.384  0.00  0.00    +0.000 A 
ATOM     20  C   UNL     1      46.794   6.244  12.088  0.00  0.00    +0.000 A 
BRANCH  19  21
ATOM     21  C   UNL     1      45.170   5.124  10.528  0.00  0.00    +0.000 A 
ATOM     22  C   UNL     1      45.597   5.043   9.188  0.00  0.00    +0.000 A 
ATOM     23  C   UNL     1      45.330   3.915   8.415  0.00  0.00    +0.000 A 
ATOM     24  F   UNL     1      45.776   3.867   7.153  0.00  0.00    +0.000 F 
ATOM     25  C   UNL     1      44.639   2.834   8.935  0.00  0.00    +0.000 A 
ATOM     26  C   UNL     1      44.189   2.910  10.242  0.00  0.00    +0.000 A 
ATOM     27  F   UNL     1      43.529   1.872  10.771  0.00  0.00    +0.000 F 
ATOM     28  C   UNL     1      44.433   4.037  11.030  0.00  0.00    +0.000 A 
ENDBRANCH  19  21
ENDBRANCH   1  15
TORSDOF 4
ENDMDL
