MODEL 1
REMARK VINA RESULT:    -7.274      0.000      0.000
REMARK INTER + INTRA:         -10.006
REMARK INTER:                  -9.613
REMARK INTRA:                  -0.393
REMARK UNBOUND:                -0.393
REMARK  Name = 
REMARK  6 active torsions:
REMARK  status: ('A' for Active; 'I' for Inactive)
REMARK    1  A    between atoms: C_2  and  C_3
REMARK    2  A    between atoms: C_6  and  N_7
REMARK    3  A    between atoms: N_7  and  C_8
REMARK    4  A    between atoms: C_8  and  C_9
REMARK    5  A    between atoms: C_9  and  C_10
REMARK    6  A    between atoms: C_18  and  N_19
REMARK                            x       y       z     vdW  Elec       q    Type
REMARK                         _______ _______ _______ _____ _____    ______ ____
ROOT
ATOM      1  C   UNL     1      46.257   4.746  13.608  0.00  0.00    +0.000 A 
ATOM      2  N   UNL     1      45.665   3.595  13.199  0.00  0.00    +0.000 NA
ATOM      3  C   UNL     1      44.853   3.682  12.117  0.00  0.00    +0.000 A 
ATOM      4  C   UNL     1      44.558   4.855  11.424  0.00  0.00    +0.000 A 
ATOM      5  C   UNL     1      45.222   6.008  11.872  0.00  0.00    +0.000 A 
ATOM      6  C   UNL     1      46.114   5.979  12.957  0.00  0.00    +0.000 A 
ENDROOT
BRANCH   6   7
ATOM      7  N   UNL     1      46.617   7.195  13.456  0.00  0.00    +0.000 N 
ATOM      8  H   UNL     1      47.568   7.149  13.808  0.00  0.00    +0.000 HD
ATOM      9  H   UNL     1      46.000   7.695  14.095  0.00  0.00    +0.000 HD
ENDBRANCH   6   7
BRANCH   1  11
ATOM     10  N   UNL     1      47.832   4.454  15.658  0.00  0.00    +0.000 NA
ATOM     11  C   UNL     1      47.112   4.603  14.758  0.00  0.00    +0.000 C 
ENDBRANCH   1  11
BRANCH   4  12
ATOM     12  N   UNL     1      43.772   4.918  10.262  0.00  0.00    +0.000 N 
ATOM     13  H   UNL     1      42.779   4.838  10.470  0.00  0.00    +0.000 HD
BRANCH  12  14
ATOM     14  C   UNL     1      44.179   4.107   9.108  0.00  0.00    +0.000 C 
BRANCH  14  15
ATOM     15  C   UNL     1      45.593   4.491   8.648  0.00  0.00    +0.000 C 
BRANCH  15  16
ATOM     16  C   UNL     1      46.192   3.447   7.733  0.00  0.00    +0.000 A 
ATOM     17  C   UNL     1      46.788   3.825   6.521  0.00  0.00    +0.000 A 
ATOM     18  C   UNL     1      47.372   2.870   5.687  0.00  0.00    +0.000 A 
ATOM     19  C   UNL     1      47.368   1.525   6.053  0.00  0.00    +0.000 A 
ATOM     20  C   UNL     1      46.774   1.139   7.253  0.00  0.00    +0.000 A 
ATOM     21 CL   UNL     1      46.764  -0.520   7.704  0.00  0.00    +0.000 Cl
ATOM     22  C   UNL     1      46.192   2.090   8.092  0.00  0.00    +0.000 A 
ENDBRANCH  15  16
ENDBRANCH  14  15
ENDBRANCH  12  14
ENDBRANCH   4  12
TORSDOF 6
ENDMDL
MODEL 2
REMARK VINA RESULT:    -7.199      3.349      6.386
REMARK INTER + INTRA:          -9.907
REMARK INTER:                  -9.294
REMARK INTRA:                  -0.612
REMARK UNBOUND:                -0.393
REMARK  Name = 
REMARK  6 active torsions:
REMARK  status: ('A' for Active; 'I' for Inactive)
REMARK    1  A    between atoms: C_2  and  C_3
REMARK    2  A    between atoms: C_6  and  N_7
REMARK    3  A    between atoms: N_7  and  C_8
REMARK    4  A    between atoms: C_8  and  C_9
REMARK    5  A    between atoms: C_9  and  C_10
REMARK    6  A    between atoms: C_18  and  N_19
REMARK                            x       y       z     vdW  Elec       q    Type
REMARK                         _______ _______ _______ _____ _____    ______ ____
ROOT
ATOM      1  C   UNL     1      45.861   2.211   8.289  0.00  0.00    +0.000 A 
ATOM      2  N   UNL     1      44.952   1.752   9.186  0.00  0.00    +0.000 NA
ATOM      3  C   UNL     1      44.214   2.686   9.835  0.00  0.00    +0.000 A 
ATOM      4  C   UNL     1      44.343   4.066   9.676  0.00  0.00    +0.000 A 
ATOM      5  C   UNL     1      45.277   4.482   8.714  0.00  0.00    +0.000 A 
ATOM      6  C   UNL     1      46.038   3.565   7.971  0.00  0.00    +0.000 A 
ENDROOT
BRANCH   6   7
ATOM      7  N   UNL     1      47.069   4.050   7.144  0.00  0.00    +0.000 N 
ATOM      8  H   UNL     1      47.021   5.044   6.944  0.00  0.00    +0.000 HD
ATOM      9  H   UNL     1      47.249   3.503   6.303  0.00  0.00    +0.000 HD
ENDBRANCH   6   7
BRANCH   1  11
ATOM     10  N   UNL     1      47.181   0.330   7.070  0.00  0.00    +0.000 NA
ATOM     11  C   UNL     1      46.616   1.182   7.623  0.00  0.00    +0.000 C 
ENDBRANCH   1  11
BRANCH   4  12
ATOM     12  N   UNL     1      43.525   5.020  10.302  0.00  0.00    +0.000 N 
ATOM     13  H   UNL     1      43.971   5.933  10.346  0.00  0.00    +0.000 HD
BRANCH  12  14
ATOM     14  C   UNL     1      42.868   4.645  11.562  0.00  0.00    +0.000 C 
BRANCH  14  15
ATOM     15  C   UNL     1      43.218   5.646  12.673  0.00  0.00    +0.000 C 
BRANCH  15  16
ATOM     16  C   UNL     1      44.710   5.743  12.896  0.00  0.00    +0.000 A 
ATOM     17  C   UNL     1      45.421   4.652  13.417  0.00  0.00    +0.000 A 
ATOM     18  C   UNL     1      46.805   4.723  13.594  0.00  0.00    +0.000 A 
ATOM     19  C   UNL     1      47.495   5.886  13.253  0.00  0.00    +0.000 A 
ATOM     20  C   UNL     1      46.796   6.976  12.740  0.00  0.00    +0.000 A 
ATOM     21 CL   UNL     1      47.645   8.412  12.323  0.00  0.00    +0.000 Cl
ATOM     22  C   UNL     1      45.414   6.909  12.557  0.00  0.00    +0.000 A 
ENDBRANCH  15  16
ENDBRANCH  14  15
ENDBRANCH  12  14
ENDBRANCH   4  12
TORSDOF 6
ENDMDL
MODEL 3
REMARK VINA RESULT:    -7.158      3.466      6.815
REMARK INTER + INTRA:          -9.853
REMARK INTER:                  -9.323
REMARK INTRA:                  -0.530
REMARK UNBOUND:                -0.393
REMARK  Name = 
REMARK  6 active torsions:
REMARK  status: ('A' for Active; 'I' for Inactive)
REMARK    1  A    between atoms: C_2  and  C_3
REMARK    2  A    between atoms: C_6  and  N_7
REMARK    3  A    between atoms: N_7  and  C_8
REMARK    4  A    between atoms: C_8  and  C_9
REMARK    5  A    between atoms: C_9  and  C_10
REMARK    6  A    between atoms: C_18  and  N_19
REMARK                            x       y       z     vdW  Elec       q    Type
REMARK                         _______ _______ _______ _____ _____    ______ ____
ROOT
ATOM      1  C   UNL     1      46.647   2.644   7.362  0.00  0.00    +0.000 A 
ATOM      2  N   UNL     1      46.326   3.961   7.435  0.00  0.00    +0.000 NA
ATOM      3  C   UNL     1      45.390   4.309   8.353  0.00  0.00    +0.000 A 
ATOM      4  C   UNL     1      44.716   3.421   9.191  0.00  0.00    +0.000 A 
ATOM      5  C   UNL     1      45.109   2.077   9.093  0.00  0.00    +0.000 A 
ATOM      6  C   UNL     1      46.108   1.657   8.199  0.00  0.00    +0.000 A 
ENDROOT
BRANCH   6   7
ATOM      7  N   UNL     1      46.337   0.278   8.036  0.00  0.00    +0.000 N 
ATOM      8  H   UNL     1      46.560  -0.221   8.891  0.00  0.00    +0.000 HD
ATOM      9  H   UNL     1      46.968   0.026   7.276  0.00  0.00    +0.000 HD
ENDBRANCH   6   7
BRANCH   1  11
ATOM     10  N   UNL     1      48.421   2.033   5.561  0.00  0.00    +0.000 NA
ATOM     11  C   UNL     1      47.647   2.326   6.378  0.00  0.00    +0.000 C 
ENDBRANCH   1  11
BRANCH   4  12
ATOM     12  N   UNL     1      43.800   3.802  10.184  0.00  0.00    +0.000 N 
ATOM     13  H   UNL     1      43.895   4.784  10.433  0.00  0.00    +0.000 HD
BRANCH  12  14
ATOM     14  C   UNL     1      43.650   2.929  11.356  0.00  0.00    +0.000 C 
BRANCH  14  15
ATOM     15  C   UNL     1      43.505   3.764  12.637  0.00  0.00    +0.000 C 
BRANCH  15  16
ATOM     16  C   UNL     1      44.687   4.684  12.848  0.00  0.00    +0.000 A 
ATOM     17  C   UNL     1      45.953   4.156  13.138  0.00  0.00    +0.000 A 
ATOM     18  C   UNL     1      47.055   4.998  13.301  0.00  0.00    +0.000 A 
ATOM     19  C   UNL     1      46.905   6.378  13.176  0.00  0.00    +0.000 A 
ATOM     20  C   UNL     1      45.650   6.913  12.893  0.00  0.00    +0.000 A 
ATOM     21 CL   UNL     1      45.462   8.615  12.744  0.00  0.00    +0.000 Cl
ATOM     22  C   UNL     1      44.546   6.076  12.726  0.00  0.00    +0.000 A 
ENDBRANCH  15  16
ENDBRANCH  14  15
ENDBRANCH  12  14
ENDBRANCH   4  12
TORSDOF 6
ENDMDL
MODEL 4
REMARK VINA RESULT:    -7.048      1.168      1.620
REMARK INTER + INTRA:          -9.707
REMARK INTER:                  -9.285
REMARK INTRA:                  -0.423
REMARK UNBOUND:                -0.393
REMARK  Name = 
REMARK  6 active torsions:
REMARK  status: ('A' for Active; 'I' for Inactive)
REMARK    1  A    between atoms: C_2  and  C_3
REMARK    2  A    between atoms: C_6  and  N_7
REMARK    3  A    between atoms: N_7  and  C_8
REMARK    4  A    between atoms: C_8  and  C_9
REMARK    5  A    between atoms: C_9  and  C_10
REMARK    6  A    between atoms: C_18  and  N_19
REMARK                            x       y       z     vdW  Elec       q    Type
REMARK                         _______ _______ _______ _____ _____    ______ ____
ROOT
ATOM      1  C   UNL     1      46.621   4.823  13.965  0.00  0.00    +0.000 A 
ATOM      2  N   UNL     1      45.992   3.701  13.533  0.00  0.00    +0.000 NA
ATOM      3  C   UNL     1      45.182   3.835  12.455  0.00  0.00    +0.000 A 
ATOM      4  C   UNL     1      44.923   5.031  11.787  0.00  0.00    +0.000 A 
ATOM      5  C   UNL     1      45.623   6.154  12.257  0.00  0.00    +0.000 A 
ATOM      6  C   UNL     1      46.516   6.073  13.339  0.00  0.00    +0.000 A 
ENDROOT
BRANCH   6   7
ATOM      7  N   UNL     1      47.058   7.262  13.862  0.00  0.00    +0.000 N 
ATOM      8  H   UNL     1      46.721   8.113  13.422  0.00  0.00    +0.000 HD
ATOM      9  H   UNL     1      48.072   7.270  13.973  0.00  0.00    +0.000 HD
ENDBRANCH   6   7
BRANCH   1  11
ATOM     10  N   UNL     1      48.191   4.513  16.016  0.00  0.00    +0.000 NA
ATOM     11  C   UNL     1      47.473   4.630  15.109  0.00  0.00    +0.000 C 
ENDBRANCH   1  11
BRANCH   4  12
ATOM     12  N   UNL     1      44.137   5.144  10.629  0.00  0.00    +0.000 N 
ATOM     13  H   UNL     1      43.225   5.550  10.826  0.00  0.00    +0.000 HD
BRANCH  12  14
ATOM     14  C   UNL     1      44.061   3.983   9.731  0.00  0.00    +0.000 C 
BRANCH  14  15
ATOM     15  C   UNL     1      44.724   4.299   8.382  0.00  0.00    +0.000 C 
BRANCH  15  16
ATOM     16  C   UNL     1      45.598   3.161   7.904  0.00  0.00    +0.000 A 
ATOM     17  C   UNL     1      45.609   1.939   8.591  0.00  0.00    +0.000 A 
ATOM     18  C   UNL     1      46.389   0.873   8.136  0.00  0.00    +0.000 A 
ATOM     19  C   UNL     1      47.167   1.016   6.988  0.00  0.00    +0.000 A 
ATOM     20  C   UNL     1      47.166   2.228   6.301  0.00  0.00    +0.000 A 
ATOM     21 CL   UNL     1      48.129   2.408   4.888  0.00  0.00    +0.000 Cl
ATOM     22  C   UNL     1      46.386   3.295   6.750  0.00  0.00    +0.000 A 
ENDBRANCH  15  16
ENDBRANCH  14  15
ENDBRANCH  12  14
ENDBRANCH   4  12
TORSDOF 6
ENDMDL
MODEL 5
REMARK VINA RESULT:    -6.826      3.559      6.772
REMARK INTER + INTRA:          -9.414
REMARK INTER:                  -8.868
REMARK INTRA:                  -0.546
REMARK UNBOUND:                -0.393
REMARK  Name = 
REMARK  6 active torsions:
REMARK  status: ('A' for Active; 'I' for Inactive)
REMARK    1  A    between atoms: C_2  and  C_3
REMARK    2  A    between atoms: C_6  and  N_7
REMARK    3  A    between atoms: N_7  and  C_8
REMARK    4  A    between atoms: C_8  and  C_9
REMARK    5  A    between atoms: C_9  and  C_10
REMARK    6  A    between atoms: C_18  and  N_19
REMARK                            x       y       z     vdW  Elec       q    Type
REMARK                         _______ _______ _______ _____ _____    ______ ____
ROOT
ATOM      1  C   UNL     1      46.738   2.583   7.269  0.00  0.00    +0.000 A 
ATOM      2  N   UNL     1      46.377   3.887   7.376  0.00  0.00    +0.000 NA
ATOM      3  C   UNL     1      45.444   4.184   8.314  0.00  0.00    +0.000 A 
ATOM      4  C   UNL     1      44.812   3.257   9.142  0.00  0.00    +0.000 A 
ATOM      5  C   UNL     1      45.246   1.929   9.010  0.00  0.00    +0.000 A 
ATOM      6  C   UNL     1      46.244   1.561   8.092  0.00  0.00    +0.000 A 
ENDROOT
BRANCH   6   7
ATOM      7  N   UNL     1      46.515   0.194   7.895  0.00  0.00    +0.000 N 
ATOM      8  H   UNL     1      47.166  -0.007   7.143  0.00  0.00    +0.000 HD
ATOM      9  H   UNL     1      45.697  -0.414   7.860  0.00  0.00    +0.000 HD
ENDBRANCH   6   7
BRANCH   1  11
ATOM     10  N   UNL     1      48.498   2.084   5.420  0.00  0.00    +0.000 NA
ATOM     11  C   UNL     1      47.733   2.318   6.264  0.00  0.00    +0.000 C 
ENDBRANCH   1  11
BRANCH   4  12
ATOM     12  N   UNL     1      43.899   3.588  10.157  0.00  0.00    +0.000 N 
ATOM     13  H   UNL     1      42.935   3.493   9.847  0.00  0.00    +0.000 HD
BRANCH  12  14
ATOM     14  C   UNL     1      44.133   4.820  10.921  0.00  0.00    +0.000 C 
BRANCH  14  15
ATOM     15  C   UNL     1      44.851   4.509  12.243  0.00  0.00    +0.000 C 
BRANCH  15  16
ATOM     16  C   UNL     1      46.043   5.413  12.465  0.00  0.00    +0.000 A 
ATOM     17  C   UNL     1      46.472   6.280  11.450  0.00  0.00    +0.000 A 
ATOM     18  C   UNL     1      47.552   7.141  11.659  0.00  0.00    +0.000 A 
ATOM     19  C   UNL     1      48.215   7.147  12.885  0.00  0.00    +0.000 A 
ATOM     20  C   UNL     1      47.798   6.286  13.898  0.00  0.00    +0.000 A 
ATOM     21 CL   UNL     1      48.617   6.288  15.409  0.00  0.00    +0.000 Cl
ATOM     22  C   UNL     1      46.718   5.425  13.695  0.00  0.00    +0.000 A 
ENDBRANCH  15  16
ENDBRANCH  14  15
ENDBRANCH  12  14
ENDBRANCH   4  12
TORSDOF 6
ENDMDL
MODEL 6
REMARK VINA RESULT:    -6.687      1.439      1.977
REMARK INTER + INTRA:          -9.230
REMARK INTER:                  -9.460
REMARK INTRA:                   0.230
REMARK UNBOUND:                -0.393
REMARK  Name = 
REMARK  6 active torsions:
REMARK  status: ('A' for Active; 'I' for Inactive)
REMARK    1  A    between atoms: C_2  and  C_3
REMARK    2  A    between atoms: C_6  and  N_7
REMARK    3  A    between atoms: N_7  and  C_8
REMARK    4  A    between atoms: C_8  and  C_9
REMARK    5  A    between atoms: C_9  and  C_10
REMARK    6  A    between atoms: C_18  and  N_19
REMARK                            x       y       z     vdW  Elec       q    Type
REMARK                         _______ _______ _______ _____ _____    ______ ____
ROOT
ATOM      1  C   UNL     1      46.941   5.729  13.333  0.00  0.00    +0.000 A 
ATOM      2  N   UNL     1      47.345   4.434  13.387  0.00  0.00    +0.000 NA
ATOM      3  C   UNL     1      46.405   3.494  13.120  0.00  0.00    +0.000 A 
ATOM      4  C   UNL     1      45.065   3.754  12.833  0.00  0.00    +0.000 A 
ATOM      5  C   UNL     1      44.711   5.110  12.761  0.00  0.00    +0.000 A 
ATOM      6  C   UNL     1      45.647   6.135  12.978  0.00  0.00    +0.000 A 
ENDROOT
BRANCH   6   7
ATOM      7  N   UNL     1      45.193   7.465  13.052  0.00  0.00    +0.000 N 
ATOM      8  H   UNL     1      45.506   8.065  12.295  0.00  0.00    +0.000 HD
ATOM      9  H   UNL     1      45.302   7.915  13.961  0.00  0.00    +0.000 HD
ENDBRANCH   6   7
BRANCH   1  11
ATOM     10  N   UNL     1      48.813   7.444  13.899  0.00  0.00    +0.000 NA
ATOM     11  C   UNL     1      47.974   6.690  13.619  0.00  0.00    +0.000 C 
ENDBRANCH   1  11
BRANCH   4  12
ATOM     12  N   UNL     1      44.119   2.774  12.491  0.00  0.00    +0.000 N 
ATOM     13  H   UNL     1      44.376   1.856  12.846  0.00  0.00    +0.000 HD
BRANCH  12  14
ATOM     14  C   UNL     1      43.639   2.734  11.103  0.00  0.00    +0.000 C 
BRANCH  14  15
ATOM     15  C   UNL     1      44.218   3.906  10.296  0.00  0.00    +0.000 C 
BRANCH  15  16
ATOM     16  C   UNL     1      45.135   3.431   9.191  0.00  0.00    +0.000 A 
ATOM     17  C   UNL     1      45.764   4.357   8.346  0.00  0.00    +0.000 A 
ATOM     18  C   UNL     1      46.637   3.927   7.344  0.00  0.00    +0.000 A 
ATOM     19  C   UNL     1      46.893   2.568   7.175  0.00  0.00    +0.000 A 
ATOM     20  C   UNL     1      46.270   1.640   8.008  0.00  0.00    +0.000 A 
ATOM     21 CL   UNL     1      46.581  -0.037   7.798  0.00  0.00    +0.000 Cl
ATOM     22  C   UNL     1      45.399   2.064   9.012  0.00  0.00    +0.000 A 
ENDBRANCH  15  16
ENDBRANCH  14  15
ENDBRANCH  12  14
ENDBRANCH   4  12
TORSDOF 6
ENDMDL
MODEL 7
REMARK VINA RESULT:    -6.389      1.488      2.942
REMARK INTER + INTRA:          -8.836
REMARK INTER:                  -8.466
REMARK INTRA:                  -0.370
REMARK UNBOUND:                -0.393
REMARK  Name = 
REMARK  6 active torsions:
REMARK  status: ('A' for Active; 'I' for Inactive)
REMARK    1  A    between atoms: C_2  and  C_3
REMARK    2  A    between atoms: C_6  and  N_7
REMARK    3  A    between atoms: N_7  and  C_8
REMARK    4  A    between atoms: C_8  and  C_9
REMARK    5  A    between atoms: C_9  and  C_10
REMARK    6  A    between atoms: C_18  and  N_19
REMARK                            x       y       z     vdW  Elec       q    Type
REMARK                         _______ _______ _______ _____ _____    ______ ____
ROOT
ATOM      1  C   UNL     1      48.100   5.350  15.695  0.00  0.00    +0.000 A 
ATOM      2  N   UNL     1      48.310   6.222  14.678  0.00  0.00    +0.000 NA
ATOM      3  C   UNL     1      47.587   6.023  13.548  0.00  0.00    +0.000 A 
ATOM      4  C   UNL     1      46.682   4.982  13.345  0.00  0.00    +0.000 A 
ATOM      5  C   UNL     1      46.482   4.128  14.442  0.00  0.00    +0.000 A 
ATOM      6  C   UNL     1      47.163   4.308  15.658  0.00  0.00    +0.000 A 
ENDROOT
BRANCH   6   7
ATOM      7  N   UNL     1      47.040   3.324  16.656  0.00  0.00    +0.000 N 
ATOM      8  H   UNL     1      47.532   3.530  17.520  0.00  0.00    +0.000 HD
ATOM      9  H   UNL     1      47.201   2.365  16.349  0.00  0.00    +0.000 HD
ENDBRANCH   6   7
BRANCH   1  11
ATOM     10  N   UNL     1      49.550   5.845  17.797  0.00  0.00    +0.000 NA
ATOM     11  C   UNL     1      48.887   5.604  16.874  0.00  0.00    +0.000 C 
ENDBRANCH   1  11
BRANCH   4  12
ATOM     12  N   UNL     1      45.888   4.828  12.197  0.00  0.00    +0.000 N 
ATOM     13  H   UNL     1      45.325   5.654  12.010  0.00  0.00    +0.000 HD
BRANCH  12  14
ATOM     14  C   UNL     1      45.133   3.577  12.043  0.00  0.00    +0.000 C 
BRANCH  14  15
ATOM     15  C   UNL     1      44.257   3.626  10.782  0.00  0.00    +0.000 C 
BRANCH  15  16
ATOM     16  C   UNL     1      45.058   3.361   9.528  0.00  0.00    +0.000 A 
ATOM     17  C   UNL     1      45.432   4.421   8.689  0.00  0.00    +0.000 A 
ATOM     18  C   UNL     1      46.200   4.187   7.546  0.00  0.00    +0.000 A 
ATOM     19  C   UNL     1      46.603   2.892   7.227  0.00  0.00    +0.000 A 
ATOM     20  C   UNL     1      46.231   1.832   8.051  0.00  0.00    +0.000 A 
ATOM     21 CL   UNL     1      46.722   0.232   7.656  0.00  0.00    +0.000 Cl
ATOM     22  C   UNL     1      45.467   2.060   9.196  0.00  0.00    +0.000 A 
ENDBRANCH  15  16
ENDBRANCH  14  15
ENDBRANCH  12  14
ENDBRANCH   4  12
TORSDOF 6
ENDMDL
MODEL 8
REMARK VINA RESULT:    -6.359      1.975      3.432
REMARK INTER + INTRA:          -8.798
REMARK INTER:                  -8.317
REMARK INTRA:                  -0.480
REMARK UNBOUND:                -0.393
REMARK  Name = 
REMARK  6 active torsions:
REMARK  status: ('A' for Active; 'I' for Inactive)
REMARK    1  A    between atoms: C_2  and  C_3
REMARK    2  A    between atoms: C_6  and  N_7
REMARK    3  A    between atoms: N_7  and  C_8
REMARK    4  A    between atoms: C_8  and  C_9
REMARK    5  A    between atoms: C_9  and  C_10
REMARK    6  A    between atoms: C_18  and  N_19
REMARK                            x       y       z     vdW  Elec       q    Type
REMARK                         _______ _______ _______ _____ _____    ______ ____
ROOT
ATOM      1  C   UNL     1      45.702   8.367  12.130  0.00  0.00    +0.000 A 
ATOM      2  N   UNL     1      46.534   7.525  12.794  0.00  0.00    +0.000 NA
ATOM      3  C   UNL     1      46.154   6.225  12.862  0.00  0.00    +0.000 A 
ATOM      4  C   UNL     1      44.972   5.703  12.337  0.00  0.00    +0.000 A 
ATOM      5  C   UNL     1      44.165   6.613  11.635  0.00  0.00    +0.000 A 
ATOM      6  C   UNL     1      44.525   7.963  11.485  0.00  0.00    +0.000 A 
ENDROOT
BRANCH   6   7
ATOM      7  N   UNL     1      43.596   8.853  10.914  0.00  0.00    +0.000 N 
ATOM      8  H   UNL     1      43.898   9.283  10.045  0.00  0.00    +0.000 HD
ATOM      9  H   UNL     1      43.194   9.537  11.554  0.00  0.00    +0.000 HD
ENDBRANCH   6   7
BRANCH   1  11
ATOM     10  N   UNL     1      46.492  10.842  11.992  0.00  0.00    +0.000 NA
ATOM     11  C   UNL     1      46.150   9.734  12.081  0.00  0.00    +0.000 C 
ENDBRANCH   1  11
BRANCH   4  12
ATOM     12  N   UNL     1      44.625   4.343  12.354  0.00  0.00    +0.000 N 
ATOM     13  H   UNL     1      45.433   3.742  12.212  0.00  0.00    +0.000 HD
BRANCH  12  14
ATOM     14  C   UNL     1      43.456   3.920  11.571  0.00  0.00    +0.000 C 
BRANCH  14  15
ATOM     15  C   UNL     1      43.752   2.612  10.821  0.00  0.00    +0.000 C 
BRANCH  15  16
ATOM     16  C   UNL     1      44.639   2.841   9.619  0.00  0.00    +0.000 A 
ATOM     17  C   UNL     1      44.759   4.121   9.059  0.00  0.00    +0.000 A 
ATOM     18  C   UNL     1      45.603   4.345   7.969  0.00  0.00    +0.000 A 
ATOM     19  C   UNL     1      46.336   3.293   7.424  0.00  0.00    +0.000 A 
ATOM     20  C   UNL     1      46.220   2.016   7.970  0.00  0.00    +0.000 A 
ATOM     21 CL   UNL     1      47.121   0.716   7.296  0.00  0.00    +0.000 Cl
ATOM     22  C   UNL     1      45.381   1.787   9.062  0.00  0.00    +0.000 A 
ENDBRANCH  15  16
ENDBRANCH  14  15
ENDBRANCH  12  14
ENDBRANCH   4  12
TORSDOF 6
ENDMDL
MODEL 9
REMARK VINA RESULT:    -5.765      3.850      6.869
REMARK INTER + INTRA:          -8.012
REMARK INTER:                  -7.527
REMARK INTRA:                  -0.484
REMARK UNBOUND:                -0.393
REMARK  Name = 
REMARK  6 active torsions:
REMARK  status: ('A' for Active; 'I' for Inactive)
REMARK    1  A    between atoms: C_2  and  C_3
REMARK    2  A    between atoms: C_6  and  N_7
REMARK    3  A    between atoms: N_7  and  C_8
REMARK    4  A    between atoms: C_8  and  C_9
REMARK    5  A    between atoms: C_9  and  C_10
REMARK    6  A    between atoms: C_18  and  N_19
REMARK                            x       y       z     vdW  Elec       q    Type
REMARK                         _______ _______ _______ _____ _____    ______ ____
ROOT
ATOM      1  C   UNL     1      45.668   3.738   8.428  0.00  0.00    +0.000 A 
ATOM      2  N   UNL     1      45.866   5.054   8.695  0.00  0.00    +0.000 NA
ATOM      3  C   UNL     1      45.465   5.493   9.913  0.00  0.00    +0.000 A 
ATOM      4  C   UNL     1      44.841   4.712  10.885  0.00  0.00    +0.000 A 
ATOM      5  C   UNL     1      44.689   3.353  10.566  0.00  0.00    +0.000 A 
ATOM      6  C   UNL     1      45.127   2.823   9.341  0.00  0.00    +0.000 A 
ENDROOT
BRANCH   6   7
ATOM      7  N   UNL     1      44.798   1.493   9.021  0.00  0.00    +0.000 N 
ATOM      8  H   UNL     1      44.663   1.315   8.030  0.00  0.00    +0.000 HD
ATOM      9  H   UNL     1      44.057   1.077   9.583  0.00  0.00    +0.000 HD
ENDBRANCH   6   7
BRANCH   1  11
ATOM     10  N   UNL     1      46.424   2.986   6.055  0.00  0.00    +0.000 NA
ATOM     11  C   UNL     1      46.114   3.318   7.125  0.00  0.00    +0.000 C 
ENDBRANCH   1  11
BRANCH   4  12
ATOM     12  N   UNL     1      44.494   5.163  12.168  0.00  0.00    +0.000 N 
ATOM     13  H   UNL     1      43.495   5.083  12.342  0.00  0.00    +0.000 HD
BRANCH  12  14
ATOM     14  C   UNL     1      45.051   6.443  12.624  0.00  0.00    +0.000 C 
BRANCH  14  15
ATOM     15  C   UNL     1      46.412   6.230  13.304  0.00  0.00    +0.000 C 
BRANCH  15  16
ATOM     16  C   UNL     1      47.468   7.165  12.759  0.00  0.00    +0.000 A 
ATOM     17  C   UNL     1      48.793   6.729  12.614  0.00  0.00    +0.000 A 
ATOM     18  C   UNL     1      49.766   7.577  12.081  0.00  0.00    +0.000 A 
ATOM     19  C   UNL     1      49.427   8.870  11.685  0.00  0.00    +0.000 A 
ATOM     20  C   UNL     1      48.114   9.313  11.829  0.00  0.00    +0.000 A 
ATOM     21 CL   UNL     1      47.696  10.909  11.346  0.00  0.00    +0.000 Cl
ATOM     22  C   UNL     1      47.137   8.469  12.359  0.00  0.00    +0.000 A 
ENDBRANCH  15  16
ENDBRANCH  14  15
ENDBRANCH  12  14
ENDBRANCH   4  12
TORSDOF 6
ENDMDL
