MODEL 1
REMARK VINA RESULT:    -8.583      0.000      0.000
REMARK INTER + INTRA:         -12.564
REMARK INTER:                 -12.095
REMARK INTRA:                  -0.470
REMARK UNBOUND:                -0.470
REMARK  Name = 
REMARK  7 active torsions:
REMARK  status: ('A' for Active; 'I' for Inactive)
REMARK    1  A    between atoms: C_2  and  C_3
REMARK    2  A    between atoms: C_3  and  N_4
REMARK    3  A    between atoms: C_3  and  C_17
REMARK    4  A    between atoms: C_5  and  C_7
REMARK    5  A    between atoms: C_20  and  O_21
REMARK    6  A    between atoms: O_21  and  C_22
REMARK    7  A    between atoms: C_22  and  C_23
REMARK                            x       y       z     vdW  Elec       q    Type
REMARK                         _______ _______ _______ _____ _____    ______ ____
ROOT
ATOM      1  C   UNL     1      46.778   8.074  13.079  0.00  0.00    +0.000 C 
ENDROOT
BRANCH   1   2
ATOM      2  C   UNL     1      46.090   6.951  12.312  0.00  0.00    +0.000 A 
ATOM      3  C   UNL     1      46.399   6.728  10.958  0.00  0.00    +0.000 A 
ATOM      4  C   UNL     1      45.796   5.680  10.256  0.00  0.00    +0.000 A 
ATOM      5  C   UNL     1      44.882   4.841  10.891  0.00  0.00    +0.000 A 
ATOM      6  C   UNL     1      44.513   5.102  12.212  0.00  0.00    +0.000 A 
ATOM      7  C   UNL     1      45.111   6.148  12.915  0.00  0.00    +0.000 A 
BRANCH   5   8
ATOM      8  O   UNL     1      44.408   3.797  10.145  0.00  0.00    +0.000 OA
BRANCH   8   9
ATOM      9  C   UNL     1      44.505   3.981   8.729  0.00  0.00    +0.000 C 
BRANCH   9  10
ATOM     10  C   UNL     1      45.492   3.020   8.131  0.00  0.00    +0.000 A 
ATOM     11  C   UNL     1      46.377   3.442   7.133  0.00  0.00    +0.000 A 
ATOM     12  C   UNL     1      47.296   2.546   6.600  0.00  0.00    +0.000 A 
ATOM     13  C   UNL     1      47.313   1.255   7.097  0.00  0.00    +0.000 A 
ATOM     14  N   UNL     1      46.494   0.817   8.078  0.00  0.00    +0.000 NA
ATOM     15  C   UNL     1      45.605   1.707   8.574  0.00  0.00    +0.000 A 
ENDBRANCH   9  10
ENDBRANCH   8   9
ENDBRANCH   5   8
ENDBRANCH   1   2
BRANCH   1  16
ATOM     16  N   UNL     1      47.276   7.548  14.338  0.00  0.00    +0.000 N 
ATOM     17  C   UNL     1      48.296   6.638  14.358  0.00  0.00    +0.000 C 
ATOM     18  O   UNL     1      48.833   6.255  13.321  0.00  0.00    +0.000 OA
ATOM     19  H   UNL     1      46.725   7.718  15.174  0.00  0.00    +0.000 HD
BRANCH  17  20
ATOM     20  C   UNL     1      48.770   6.196  15.671  0.00  0.00    +0.000 A 
ATOM     21  C   UNL     1      49.772   6.916  16.309  0.00  0.00    +0.000 A 
ATOM     22  S   UNL     1      50.221   6.273  17.821  0.00  0.00    +0.000 S 
ATOM     23  C   UNL     1      49.125   4.983  17.657  0.00  0.00    +0.000 A 
ATOM     24  N   UNL     1      49.045   4.010  18.604  0.00  0.00    +0.000 NA
ATOM     25  C   UNL     1      48.200   3.073  18.336  0.00  0.00    +0.000 A 
ATOM     26  N   UNL     1      47.408   3.032  17.216  0.00  0.00    +0.000 N 
ATOM     27  C   UNL     1      47.407   4.027  16.266  0.00  0.00    +0.000 A 
ATOM     28  O   UNL     1      46.610   4.030  15.332  0.00  0.00    +0.000 OA
ATOM     29  C   UNL     1      48.388   5.071  16.489  0.00  0.00    +0.000 A 
ATOM     30  H   UNL     1      46.744   2.283  17.087  0.00  0.00    +0.000 HD
ENDBRANCH  17  20
ENDBRANCH   1  16
BRANCH   1  32
ATOM     31  N   UNL     1      48.717   9.244  11.705  0.00  0.00    +0.000 NA
ATOM     32  C   UNL     1      47.852   8.735  12.287  0.00  0.00    +0.000 C 
ENDBRANCH   1  32
TORSDOF 7
ENDMDL
MODEL 2
REMARK VINA RESULT:    -7.941      1.823      2.559
REMARK INTER + INTRA:         -11.660
REMARK INTER:                 -10.663
REMARK INTRA:                  -0.997
REMARK UNBOUND:                -0.470
REMARK  Name = 
REMARK  7 active torsions:
REMARK  status: ('A' for Active; 'I' for Inactive)
REMARK    1  A    between atoms: C_2  and  C_3
REMARK    2  A    between atoms: C_3  and  N_4
REMARK    3  A    between atoms: C_3  and  C_17
REMARK    4  A    between atoms: C_5  and  C_7
REMARK    5  A    between atoms: C_20  and  O_21
REMARK    6  A    between atoms: O_21  and  C_22
REMARK    7  A    between atoms: C_22  and  C_23
REMARK                            x       y       z     vdW  Elec       q    Type
REMARK                         _______ _______ _______ _____ _____    ______ ____
ROOT
ATOM      1  C   UNL     1      47.627   7.055  13.636  0.00  0.00    +0.000 C 
ENDROOT
BRANCH   1   2
ATOM      2  C   UNL     1      46.777   6.208  12.696  0.00  0.00    +0.000 A 
ATOM      3  C   UNL     1      46.305   4.950  13.110  0.00  0.00    +0.000 A 
ATOM      4  C   UNL     1      45.497   4.181  12.266  0.00  0.00    +0.000 A 
ATOM      5  C   UNL     1      45.149   4.655  11.002  0.00  0.00    +0.000 A 
ATOM      6  C   UNL     1      45.675   5.868  10.554  0.00  0.00    +0.000 A 
ATOM      7  C   UNL     1      46.482   6.636  11.393  0.00  0.00    +0.000 A 
BRANCH   5   8
ATOM      8  O   UNL     1      44.291   3.868  10.284  0.00  0.00    +0.000 OA
BRANCH   8   9
ATOM      9  C   UNL     1      44.374   4.033   8.865  0.00  0.00    +0.000 C 
BRANCH   9  10
ATOM     10  C   UNL     1      45.381   3.088   8.275  0.00  0.00    +0.000 A 
ATOM     11  C   UNL     1      46.333   3.547   7.358  0.00  0.00    +0.000 A 
ATOM     12  C   UNL     1      47.270   2.665   6.833  0.00  0.00    +0.000 A 
ATOM     13  C   UNL     1      47.234   1.348   7.255  0.00  0.00    +0.000 A 
ATOM     14  N   UNL     1      46.349   0.872   8.158  0.00  0.00    +0.000 NA
ATOM     15  C   UNL     1      45.445   1.750   8.648  0.00  0.00    +0.000 A 
ENDBRANCH   9  10
ENDBRANCH   8   9
ENDBRANCH   5   8
ENDBRANCH   1   2
BRANCH   1  16
ATOM     16  N   UNL     1      48.184   6.197  14.668  0.00  0.00    +0.000 N 
ATOM     17  C   UNL     1      48.647   6.728  15.839  0.00  0.00    +0.000 C 
ATOM     18  O   UNL     1      48.589   7.935  16.063  0.00  0.00    +0.000 OA
ATOM     19  H   UNL     1      48.400   5.236  14.420  0.00  0.00    +0.000 HD
BRANCH  17  20
ATOM     20  C   UNL     1      49.148   5.789  16.845  0.00  0.00    +0.000 A 
ATOM     21  C   UNL     1      48.244   5.015  17.561  0.00  0.00    +0.000 A 
ATOM     22  S   UNL     1      48.978   3.981  18.699  0.00  0.00    +0.000 S 
ATOM     23  C   UNL     1      50.527   4.563  18.306  0.00  0.00    +0.000 A 
ATOM     24  N   UNL     1      51.628   4.120  18.971  0.00  0.00    +0.000 NA
ATOM     25  C   UNL     1      52.733   4.670  18.599  0.00  0.00    +0.000 A 
ATOM     26  N   UNL     1      52.842   5.609  17.603  0.00  0.00    +0.000 N 
ATOM     27  C   UNL     1      51.766   6.036  16.860  0.00  0.00    +0.000 A 
ATOM     28  O   UNL     1      51.901   6.789  15.899  0.00  0.00    +0.000 OA
ATOM     29  C   UNL     1      50.490   5.494  17.285  0.00  0.00    +0.000 A 
ATOM     30  H   UNL     1      53.745   5.974  17.342  0.00  0.00    +0.000 HD
ENDBRANCH  17  20
ENDBRANCH   1  16
BRANCH   1  32
ATOM     31  N   UNL     1      49.531   8.386  12.363  0.00  0.00    +0.000 NA
ATOM     32  C   UNL     1      48.681   7.824  12.919  0.00  0.00    +0.000 C 
ENDBRANCH   1  32
TORSDOF 7
ENDMDL
MODEL 3
REMARK VINA RESULT:    -7.705      4.520      8.456
REMARK INTER + INTRA:         -11.328
REMARK INTER:                 -10.261
REMARK INTRA:                  -1.067
REMARK UNBOUND:                -0.470
REMARK  Name = 
REMARK  7 active torsions:
REMARK  status: ('A' for Active; 'I' for Inactive)
REMARK    1  A    between atoms: C_2  and  C_3
REMARK    2  A    between atoms: C_3  and  N_4
REMARK    3  A    between atoms: C_3  and  C_17
REMARK    4  A    between atoms: C_5  and  C_7
REMARK    5  A    between atoms: C_20  and  O_21
REMARK    6  A    between atoms: O_21  and  C_22
REMARK    7  A    between atoms: C_22  and  C_23
REMARK                            x       y       z     vdW  Elec       q    Type
REMARK                         _______ _______ _______ _____ _____    ______ ____
ROOT
ATOM      1  C   UNL     1      48.766   5.897  17.164  0.00  0.00    +0.000 C 
ENDROOT
BRANCH   1   2
ATOM      2  C   UNL     1      49.522   4.575  17.227  0.00  0.00    +0.000 A 
ATOM      3  C   UNL     1      50.914   4.566  17.421  0.00  0.00    +0.000 A 
ATOM      4  C   UNL     1      51.610   3.356  17.513  0.00  0.00    +0.000 A 
ATOM      5  C   UNL     1      50.930   2.143  17.414  0.00  0.00    +0.000 A 
ATOM      6  C   UNL     1      49.560   2.144  17.145  0.00  0.00    +0.000 A 
ATOM      7  C   UNL     1      48.863   3.349  17.052  0.00  0.00    +0.000 A 
BRANCH   5   8
ATOM      8  O   UNL     1      51.685   1.017  17.596  0.00  0.00    +0.000 OA
BRANCH   8   9
ATOM      9  C   UNL     1      53.076   1.259  17.824  0.00  0.00    +0.000 C 
BRANCH   9  10
ATOM     10  C   UNL     1      53.884   0.019  17.567  0.00  0.00    +0.000 A 
ATOM     11  C   UNL     1      54.539  -0.161  16.344  0.00  0.00    +0.000 A 
ATOM     12  C   UNL     1      55.296  -1.306  16.127  0.00  0.00    +0.000 A 
ATOM     13  C   UNL     1      55.388  -2.231  17.151  0.00  0.00    +0.000 A 
ATOM     14  N   UNL     1      54.794  -2.082  18.355  0.00  0.00    +0.000 NA
ATOM     15  C   UNL     1      54.058  -0.962  18.537  0.00  0.00    +0.000 A 
ENDBRANCH   9  10
ENDBRANCH   8   9
ENDBRANCH   5   8
ENDBRANCH   1   2
BRANCH   1  16
ATOM     16  N   UNL     1      47.869   5.873  16.023  0.00  0.00    +0.000 N 
ATOM     17  C   UNL     1      48.289   6.310  14.797  0.00  0.00    +0.000 C 
ATOM     18  O   UNL     1      49.436   6.714  14.620  0.00  0.00    +0.000 OA
ATOM     19  H   UNL     1      46.881   5.715  16.199  0.00  0.00    +0.000 HD
BRANCH  17  20
ATOM     20  C   UNL     1      47.337   6.205  13.689  0.00  0.00    +0.000 A 
ATOM     21  C   UNL     1      46.969   7.353  13.000  0.00  0.00    +0.000 A 
ATOM     22  S   UNL     1      45.849   7.071  11.748  0.00  0.00    +0.000 S 
ATOM     23  C   UNL     1      45.781   5.411  12.111  0.00  0.00    +0.000 A 
ATOM     24  N   UNL     1      44.947   4.581  11.430  0.00  0.00    +0.000 NA
ATOM     25  C   UNL     1      44.968   3.356  11.832  0.00  0.00    +0.000 A 
ATOM     26  N   UNL     1      45.768   2.878  12.840  0.00  0.00    +0.000 N 
ATOM     27  C   UNL     1      46.675   3.666  13.511  0.00  0.00    +0.000 A 
ATOM     28  O   UNL     1      47.461   3.197  14.328  0.00  0.00    +0.000 OA
ATOM     29  C   UNL     1      46.641   5.068  13.139  0.00  0.00    +0.000 A 
ATOM     30  H   UNL     1      45.756   1.898  13.081  0.00  0.00    +0.000 HD
ENDBRANCH  17  20
ENDBRANCH   1  16
BRANCH   1  32
ATOM     31  N   UNL     1      47.486   6.406  19.427  0.00  0.00    +0.000 NA
ATOM     32  C   UNL     1      48.049   6.208  18.432  0.00  0.00    +0.000 C 
ENDBRANCH   1  32
TORSDOF 7
ENDMDL
MODEL 4
REMARK VINA RESULT:    -7.587      3.809      5.099
REMARK INTER + INTRA:         -11.162
REMARK INTER:                  -9.710
REMARK INTRA:                  -1.452
REMARK UNBOUND:                -0.470
REMARK  Name = 
REMARK  7 active torsions:
REMARK  status: ('A' for Active; 'I' for Inactive)
REMARK    1  A    between atoms: C_2  and  C_3
REMARK    2  A    between atoms: C_3  and  N_4
REMARK    3  A    between atoms: C_3  and  C_17
REMARK    4  A    between atoms: C_5  and  C_7
REMARK    5  A    between atoms: C_20  and  O_21
REMARK    6  A    between atoms: O_21  and  C_22
REMARK    7  A    between atoms: C_22  and  C_23
REMARK                            x       y       z     vdW  Elec       q    Type
REMARK                         _______ _______ _______ _____ _____    ______ ____
ROOT
ATOM      1  C   UNL     1      46.257   9.204  12.560  0.00  0.00    +0.000 C 
ENDROOT
BRANCH   1   2
ATOM      2  C   UNL     1      45.798   7.768  12.337  0.00  0.00    +0.000 A 
ATOM      3  C   UNL     1      44.630   7.507  11.600  0.00  0.00    +0.000 A 
ATOM      4  C   UNL     1      44.220   6.191  11.362  0.00  0.00    +0.000 A 
ATOM      5  C   UNL     1      44.967   5.121  11.854  0.00  0.00    +0.000 A 
ATOM      6  C   UNL     1      46.084   5.373  12.651  0.00  0.00    +0.000 A 
ATOM      7  C   UNL     1      46.495   6.684  12.891  0.00  0.00    +0.000 A 
BRANCH   5   8
ATOM      8  O   UNL     1      44.529   3.874  11.502  0.00  0.00    +0.000 OA
BRANCH   8   9
ATOM      9  C   UNL     1      43.929   3.794  10.206  0.00  0.00    +0.000 C 
BRANCH   9  10
ATOM     10  C   UNL     1      44.906   3.266   9.195  0.00  0.00    +0.000 A 
ATOM     11  C   UNL     1      45.567   4.139   8.324  0.00  0.00    +0.000 A 
ATOM     12  C   UNL     1      46.481   3.638   7.404  0.00  0.00    +0.000 A 
ATOM     13  C   UNL     1      46.719   2.275   7.396  0.00  0.00    +0.000 A 
ATOM     14  N   UNL     1      46.122   1.404   8.238  0.00  0.00    +0.000 NA
ATOM     15  C   UNL     1      45.232   1.917   9.118  0.00  0.00    +0.000 A 
ENDBRANCH   9  10
ENDBRANCH   8   9
ENDBRANCH   5   8
ENDBRANCH   1   2
BRANCH   1  16
ATOM     16  N   UNL     1      47.525   9.405  11.881  0.00  0.00    +0.000 N 
ATOM     17  C   UNL     1      48.521  10.137  12.465  0.00  0.00    +0.000 C 
ATOM     18  O   UNL     1      48.383  10.627  13.583  0.00  0.00    +0.000 OA
ATOM     19  H   UNL     1      47.579   9.161  10.896  0.00  0.00    +0.000 HD
BRANCH  17  20
ATOM     20  C   UNL     1      49.784  10.248  11.733  0.00  0.00    +0.000 A 
ATOM     21  C   UNL     1      50.252  11.506  11.375  0.00  0.00    +0.000 A 
ATOM     22  S   UNL     1      51.726  11.471  10.521  0.00  0.00    +0.000 S 
ATOM     23  C   UNL     1      51.769   9.771  10.560  0.00  0.00    +0.000 A 
ATOM     24  N   UNL     1      52.767   9.083   9.944  0.00  0.00    +0.000 NA
ATOM     25  C   UNL     1      52.656   7.801  10.019  0.00  0.00    +0.000 A 
ATOM     26  N   UNL     1      51.649   7.141  10.677  0.00  0.00    +0.000 N 
ATOM     27  C   UNL     1      50.657   7.794  11.371  0.00  0.00    +0.000 A 
ATOM     28  O   UNL     1      49.832   7.187  12.049  0.00  0.00    +0.000 OA
ATOM     29  C   UNL     1      50.701   9.239  11.261  0.00  0.00    +0.000 A 
ATOM     30  H   UNL     1      51.643   6.132  10.723  0.00  0.00    +0.000 HD
ENDBRANCH  17  20
ENDBRANCH   1  16
BRANCH   1  32
ATOM     31  N   UNL     1      44.449  10.973  11.773  0.00  0.00    +0.000 NA
ATOM     32  C   UNL     1      45.236  10.204  12.143  0.00  0.00    +0.000 C 
ENDBRANCH   1  32
TORSDOF 7
ENDMDL
MODEL 5
REMARK VINA RESULT:    -7.517      1.968      2.125
REMARK INTER + INTRA:         -11.063
REMARK INTER:                 -10.167
REMARK INTRA:                  -0.895
REMARK UNBOUND:                -0.470
REMARK  Name = 
REMARK  7 active torsions:
REMARK  status: ('A' for Active; 'I' for Inactive)
REMARK    1  A    between atoms: C_2  and  C_3
REMARK    2  A    between atoms: C_3  and  N_4
REMARK    3  A    between atoms: C_3  and  C_17
REMARK    4  A    between atoms: C_5  and  C_7
REMARK    5  A    between atoms: C_20  and  O_21
REMARK    6  A    between atoms: O_21  and  C_22
REMARK    7  A    between atoms: C_22  and  C_23
REMARK                            x       y       z     vdW  Elec       q    Type
REMARK                         _______ _______ _______ _____ _____    ______ ____
ROOT
ATOM      1  C   UNL     1      47.302   7.632  13.477  0.00  0.00    +0.000 C 
ENDROOT
BRANCH   1   2
ATOM      2  C   UNL     1      46.516   6.538  12.766  0.00  0.00    +0.000 A 
ATOM      3  C   UNL     1      45.785   6.835  11.602  0.00  0.00    +0.000 A 
ATOM      4  C   UNL     1      45.087   5.830  10.926  0.00  0.00    +0.000 A 
ATOM      5  C   UNL     1      45.109   4.518  11.397  0.00  0.00    +0.000 A 
ATOM      6  C   UNL     1      45.768   4.229  12.593  0.00  0.00    +0.000 A 
ATOM      7  C   UNL     1      46.464   5.230  13.271  0.00  0.00    +0.000 A 
BRANCH   5   8
ATOM      8  O   UNL     1      44.464   3.593  10.623  0.00  0.00    +0.000 OA
BRANCH   8   9
ATOM      9  C   UNL     1      44.436   3.896   9.225  0.00  0.00    +0.000 C 
BRANCH   9  10
ATOM     10  C   UNL     1      45.401   3.027   8.470  0.00  0.00    +0.000 A 
ATOM     11  C   UNL     1      46.257   3.583   7.513  0.00  0.00    +0.000 A 
ATOM     12  C   UNL     1      47.156   2.769   6.834  0.00  0.00    +0.000 A 
ATOM     13  C   UNL     1      47.181   1.421   7.146  0.00  0.00    +0.000 A 
ATOM     14  N   UNL     1      46.391   0.852   8.082  0.00  0.00    +0.000 NA
ATOM     15  C   UNL     1      45.521   1.665   8.723  0.00  0.00    +0.000 A 
ENDBRANCH   9  10
ENDBRANCH   8   9
ENDBRANCH   5   8
ENDBRANCH   1   2
BRANCH   1  16
ATOM     16  N   UNL     1      48.115   7.028  14.518  0.00  0.00    +0.000 N 
ATOM     17  C   UNL     1      48.519   7.760  15.600  0.00  0.00    +0.000 C 
ATOM     18  O   UNL     1      48.193   8.937  15.734  0.00  0.00    +0.000 OA
ATOM     19  H   UNL     1      48.533   6.122  14.328  0.00  0.00    +0.000 HD
BRANCH  17  20
ATOM     20  C   UNL     1      49.293   7.061  16.627  0.00  0.00    +0.000 A 
ATOM     21  C   UNL     1      50.439   6.368  16.259  0.00  0.00    +0.000 A 
ATOM     22  S   UNL     1      51.224   5.601  17.562  0.00  0.00    +0.000 S 
ATOM     23  C   UNL     1      50.035   6.129  18.658  0.00  0.00    +0.000 A 
ATOM     24  N   UNL     1      50.081   5.764  19.967  0.00  0.00    +0.000 NA
ATOM     25  C   UNL     1      49.098   6.203  20.678  0.00  0.00    +0.000 A 
ATOM     26  N   UNL     1      48.084   6.997  20.203  0.00  0.00    +0.000 N 
ATOM     27  C   UNL     1      48.034   7.446  18.904  0.00  0.00    +0.000 A 
ATOM     28  O   UNL     1      47.183   8.247  18.528  0.00  0.00    +0.000 OA
ATOM     29  C   UNL     1      49.082   6.925  18.048  0.00  0.00    +0.000 A 
ATOM     30  H   UNL     1      47.364   7.332  20.825  0.00  0.00    +0.000 HD
ENDBRANCH  17  20
ENDBRANCH   1  16
BRANCH   1  32
ATOM     31  N   UNL     1      48.714   9.117  11.797  0.00  0.00    +0.000 NA
ATOM     32  C   UNL     1      48.117   8.454  12.540  0.00  0.00    +0.000 C 
ENDBRANCH   1  32
TORSDOF 7
ENDMDL
MODEL 6
REMARK VINA RESULT:    -7.366      2.078      2.598
REMARK INTER + INTRA:         -10.850
REMARK INTER:                  -9.636
REMARK INTRA:                  -1.214
REMARK UNBOUND:                -0.470
REMARK  Name = 
REMARK  7 active torsions:
REMARK  status: ('A' for Active; 'I' for Inactive)
REMARK    1  A    between atoms: C_2  and  C_3
REMARK    2  A    between atoms: C_3  and  N_4
REMARK    3  A    between atoms: C_3  and  C_17
REMARK    4  A    between atoms: C_5  and  C_7
REMARK    5  A    between atoms: C_20  and  O_21
REMARK    6  A    between atoms: O_21  and  C_22
REMARK    7  A    between atoms: C_22  and  C_23
REMARK                            x       y       z     vdW  Elec       q    Type
REMARK                         _______ _______ _______ _____ _____    ______ ____
ROOT
ATOM      1  C   UNL     1      47.976   7.877  13.782  0.00  0.00    +0.000 C 
ENDROOT
BRANCH   1   2
ATOM      2  C   UNL     1      46.985   6.924  13.124  0.00  0.00    +0.000 A 
ATOM      3  C   UNL     1      46.977   5.562  13.472  0.00  0.00    +0.000 A 
ATOM      4  C   UNL     1      46.050   4.687  12.897  0.00  0.00    +0.000 A 
ATOM      5  C   UNL     1      45.120   5.157  11.971  0.00  0.00    +0.000 A 
ATOM      6  C   UNL     1      45.170   6.491  11.563  0.00  0.00    +0.000 A 
ATOM      7  C   UNL     1      46.095   7.366  12.134  0.00  0.00    +0.000 A 
BRANCH   5   8
ATOM      8  O   UNL     1      44.204   4.243  11.526  0.00  0.00    +0.000 OA
BRANCH   8   9
ATOM      9  C   UNL     1      43.816   4.402  10.158  0.00  0.00    +0.000 C 
BRANCH   9  10
ATOM     10  C   UNL     1      44.808   3.746   9.241  0.00  0.00    +0.000 A 
ATOM     11  C   UNL     1      44.985   2.359   9.264  0.00  0.00    +0.000 A 
ATOM     12  C   UNL     1      45.895   1.763   8.398  0.00  0.00    +0.000 A 
ATOM     13  C   UNL     1      46.590   2.578   7.521  0.00  0.00    +0.000 A 
ATOM     14  N   UNL     1      46.427   3.917   7.449  0.00  0.00    +0.000 NA
ATOM     15  C   UNL     1      45.540   4.470   8.307  0.00  0.00    +0.000 A 
ENDBRANCH   9  10
ENDBRANCH   8   9
ENDBRANCH   5   8
ENDBRANCH   1   2
BRANCH   1  16
ATOM     16  N   UNL     1      48.099   7.531  15.188  0.00  0.00    +0.000 N 
ATOM     17  C   UNL     1      48.499   8.465  16.102  0.00  0.00    +0.000 C 
ATOM     18  O   UNL     1      48.745   9.622  15.770  0.00  0.00    +0.000 OA
ATOM     19  H   UNL     1      48.074   6.547  15.438  0.00  0.00    +0.000 HD
BRANCH  17  20
ATOM     20  C   UNL     1      48.549   8.047  17.505  0.00  0.00    +0.000 A 
ATOM     21  C   UNL     1      47.978   8.858  18.476  0.00  0.00    +0.000 A 
ATOM     22  S   UNL     1      48.126   8.241  20.058  0.00  0.00    +0.000 S 
ATOM     23  C   UNL     1      48.999   6.890  19.505  0.00  0.00    +0.000 A 
ATOM     24  N   UNL     1      49.486   5.969  20.379  0.00  0.00    +0.000 NA
ATOM     25  C   UNL     1      50.160   5.016  19.829  0.00  0.00    +0.000 A 
ATOM     26  N   UNL     1      50.370   4.887  18.479  0.00  0.00    +0.000 N 
ATOM     27  C   UNL     1      49.840   5.756  17.554  0.00  0.00    +0.000 A 
ATOM     28  O   UNL     1      49.942   5.558  16.347  0.00  0.00    +0.000 OA
ATOM     29  C   UNL     1      49.129   6.882  18.128  0.00  0.00    +0.000 A 
ATOM     30  H   UNL     1      50.880   4.096  18.115  0.00  0.00    +0.000 HD
ENDBRANCH  17  20
ENDBRANCH   1  16
BRANCH   1  32
ATOM     31  N   UNL     1      50.343   7.885  12.592  0.00  0.00    +0.000 NA
ATOM     32  C   UNL     1      49.296   7.896  13.095  0.00  0.00    +0.000 C 
ENDBRANCH   1  32
TORSDOF 7
ENDMDL
MODEL 7
REMARK VINA RESULT:    -7.118      1.701      2.200
REMARK INTER + INTRA:         -10.501
REMARK INTER:                  -9.306
REMARK INTRA:                  -1.195
REMARK UNBOUND:                -0.470
REMARK  Name = 
REMARK  7 active torsions:
REMARK  status: ('A' for Active; 'I' for Inactive)
REMARK    1  A    between atoms: C_2  and  C_3
REMARK    2  A    between atoms: C_3  and  N_4
REMARK    3  A    between atoms: C_3  and  C_17
REMARK    4  A    between atoms: C_5  and  C_7
REMARK    5  A    between atoms: C_20  and  O_21
REMARK    6  A    between atoms: O_21  and  C_22
REMARK    7  A    between atoms: C_22  and  C_23
REMARK                            x       y       z     vdW  Elec       q    Type
REMARK                         _______ _______ _______ _____ _____    ______ ____
ROOT
ATOM      1  C   UNL     1      47.864   8.523  14.378  0.00  0.00    +0.000 C 
ENDROOT
BRANCH   1   2
ATOM      2  C   UNL     1      46.902   7.775  13.463  0.00  0.00    +0.000 A 
ATOM      3  C   UNL     1      45.814   8.448  12.881  0.00  0.00    +0.000 A 
ATOM      4  C   UNL     1      44.945   7.777  12.014  0.00  0.00    +0.000 A 
ATOM      5  C   UNL     1      45.151   6.430  11.715  0.00  0.00    +0.000 A 
ATOM      6  C   UNL     1      46.183   5.736  12.348  0.00  0.00    +0.000 A 
ATOM      7  C   UNL     1      47.050   6.402  13.214  0.00  0.00    +0.000 A 
BRANCH   5   8
ATOM      8  O   UNL     1      44.297   5.884  10.796  0.00  0.00    +0.000 OA
BRANCH   8   9
ATOM      9  C   UNL     1      44.211   4.457  10.833  0.00  0.00    +0.000 C 
BRANCH   9  10
ATOM     10  C   UNL     1      44.951   3.846   9.677  0.00  0.00    +0.000 A 
ATOM     11  C   UNL     1      45.016   2.456   9.531  0.00  0.00    +0.000 A 
ATOM     12  C   UNL     1      45.690   1.906   8.447  0.00  0.00    +0.000 A 
ATOM     13  C   UNL     1      46.267   2.767   7.532  0.00  0.00    +0.000 A 
ATOM     14  N   UNL     1      46.203   4.114   7.623  0.00  0.00    +0.000 NA
ATOM     15  C   UNL     1      45.547   4.622   8.690  0.00  0.00    +0.000 A 
ENDBRANCH   9  10
ENDBRANCH   8   9
ENDBRANCH   5   8
ENDBRANCH   1   2
BRANCH   1  16
ATOM     16  N   UNL     1      48.751   7.565  15.014  0.00  0.00    +0.000 N 
ATOM     17  C   UNL     1      48.992   7.625  16.359  0.00  0.00    +0.000 C 
ATOM     18  O   UNL     1      48.455   8.472  17.068  0.00  0.00    +0.000 OA
ATOM     19  H   UNL     1      49.331   6.985  14.415  0.00  0.00    +0.000 HD
BRANCH  17  20
ATOM     20  C   UNL     1      49.859   6.591  16.928  0.00  0.00    +0.000 A 
ATOM     21  C   UNL     1      51.120   6.942  17.391  0.00  0.00    +0.000 A 
ATOM     22  S   UNL     1      52.011   5.630  18.013  0.00  0.00    +0.000 S 
ATOM     23  C   UNL     1      50.760   4.538  17.645  0.00  0.00    +0.000 A 
ATOM     24  N   UNL     1      50.905   3.206  17.878  0.00  0.00    +0.000 NA
ATOM     25  C   UNL     1      49.897   2.488  17.518  0.00  0.00    +0.000 A 
ATOM     26  N   UNL     1      48.742   2.985  16.966  0.00  0.00    +0.000 N 
ATOM     27  C   UNL     1      48.525   4.330  16.774  0.00  0.00    +0.000 A 
ATOM     28  O   UNL     1      47.443   4.763  16.387  0.00  0.00    +0.000 OA
ATOM     29  C   UNL     1      49.657   5.173  17.103  0.00  0.00    +0.000 A 
ATOM     30  H   UNL     1      47.978   2.367  16.737  0.00  0.00    +0.000 HD
ENDBRANCH  17  20
ENDBRANCH   1  16
BRANCH   1  32
ATOM     31  N   UNL     1      49.237  10.396  13.102  0.00  0.00    +0.000 NA
ATOM     32  C   UNL     1      48.617   9.593  13.666  0.00  0.00    +0.000 C 
ENDBRANCH   1  32
TORSDOF 7
ENDMDL
MODEL 8
REMARK VINA RESULT:    -7.107      3.767      8.101
REMARK INTER + INTRA:         -10.485
REMARK INTER:                  -9.346
REMARK INTRA:                  -1.138
REMARK UNBOUND:                -0.470
REMARK  Name = 
REMARK  7 active torsions:
REMARK  status: ('A' for Active; 'I' for Inactive)
REMARK    1  A    between atoms: C_2  and  C_3
REMARK    2  A    between atoms: C_3  and  N_4
REMARK    3  A    between atoms: C_3  and  C_17
REMARK    4  A    between atoms: C_5  and  C_7
REMARK    5  A    between atoms: C_20  and  O_21
REMARK    6  A    between atoms: O_21  and  C_22
REMARK    7  A    between atoms: C_22  and  C_23
REMARK                            x       y       z     vdW  Elec       q    Type
REMARK                         _______ _______ _______ _____ _____    ______ ____
ROOT
ATOM      1  C   UNL     1      48.930   7.608  15.522  0.00  0.00    +0.000 C 
ENDROOT
BRANCH   1   2
ATOM      2  C   UNL     1      49.394   6.362  16.267  0.00  0.00    +0.000 A 
ATOM      3  C   UNL     1      48.477   5.344  16.579  0.00  0.00    +0.000 A 
ATOM      4  C   UNL     1      48.900   4.183  17.234  0.00  0.00    +0.000 A 
ATOM      5  C   UNL     1      50.240   4.021  17.584  0.00  0.00    +0.000 A 
ATOM      6  C   UNL     1      51.142   5.059  17.346  0.00  0.00    +0.000 A 
ATOM      7  C   UNL     1      50.722   6.219  16.695  0.00  0.00    +0.000 A 
BRANCH   5   8
ATOM      8  O   UNL     1      50.570   2.819  18.147  0.00  0.00    +0.000 OA
BRANCH   8   9
ATOM      9  C   UNL     1      51.147   1.872  17.243  0.00  0.00    +0.000 C 
BRANCH   9  10
ATOM     10  C   UNL     1      52.495   1.422  17.728  0.00  0.00    +0.000 A 
ATOM     11  C   UNL     1      53.543   2.340  17.864  0.00  0.00    +0.000 A 
ATOM     12  C   UNL     1      54.781   1.912  18.330  0.00  0.00    +0.000 A 
ATOM     13  C   UNL     1      54.928   0.577  18.661  0.00  0.00    +0.000 A 
ATOM     14  N   UNL     1      53.935  -0.334  18.569  0.00  0.00    +0.000 NA
ATOM     15  C   UNL     1      52.743   0.108  18.107  0.00  0.00    +0.000 A 
ENDBRANCH   9  10
ENDBRANCH   8   9
ENDBRANCH   5   8
ENDBRANCH   1   2
BRANCH   1  16
ATOM     16  N   UNL     1      47.769   7.271  14.717  0.00  0.00    +0.000 N 
ATOM     17  C   UNL     1      47.919   6.732  13.470  0.00  0.00    +0.000 C 
ATOM     18  O   UNL     1      49.031   6.499  13.002  0.00  0.00    +0.000 OA
ATOM     19  H   UNL     1      46.865   7.624  15.018  0.00  0.00    +0.000 HD
BRANCH  17  20
ATOM     20  C   UNL     1      46.697   6.376  12.746  0.00  0.00    +0.000 A 
ATOM     21  C   UNL     1      45.990   7.368  12.079  0.00  0.00    +0.000 A 
ATOM     22  S   UNL     1      44.589   6.800  11.293  0.00  0.00    +0.000 S 
ATOM     23  C   UNL     1      44.853   5.216  11.855  0.00  0.00    +0.000 A 
ATOM     24  N   UNL     1      43.967   4.222  11.580  0.00  0.00    +0.000 NA
ATOM     25  C   UNL     1      44.269   3.080  12.098  0.00  0.00    +0.000 A 
ATOM     26  N   UNL     1      45.393   2.835  12.846  0.00  0.00    +0.000 N 
ATOM     27  C   UNL     1      46.350   3.792  13.092  0.00  0.00    +0.000 A 
ATOM     28  O   UNL     1      47.402   3.525  13.665  0.00  0.00    +0.000 OA
ATOM     29  C   UNL     1      46.022   5.111  12.586  0.00  0.00    +0.000 A 
ATOM     30  H   UNL     1      45.583   1.907  13.193  0.00  0.00    +0.000 HD
ENDBRANCH  17  20
ENDBRANCH   1  16
BRANCH   1  32
ATOM     31  N   UNL     1      48.416   9.630  17.156  0.00  0.00    +0.000 NA
ATOM     32  C   UNL     1      48.663   8.755  16.434  0.00  0.00    +0.000 C 
ENDBRANCH   1  32
TORSDOF 7
ENDMDL
MODEL 9
REMARK VINA RESULT:    -7.054      1.876      2.502
REMARK INTER + INTRA:         -10.410
REMARK INTER:                  -9.086
REMARK INTRA:                  -1.325
REMARK UNBOUND:                -0.470
REMARK  Name = 
REMARK  7 active torsions:
REMARK  status: ('A' for Active; 'I' for Inactive)
REMARK    1  A    between atoms: C_2  and  C_3
REMARK    2  A    between atoms: C_3  and  N_4
REMARK    3  A    between atoms: C_3  and  C_17
REMARK    4  A    between atoms: C_5  and  C_7
REMARK    5  A    between atoms: C_20  and  O_21
REMARK    6  A    between atoms: O_21  and  C_22
REMARK    7  A    between atoms: C_22  and  C_23
REMARK                            x       y       z     vdW  Elec       q    Type
REMARK                         _______ _______ _______ _____ _____    ______ ____
ROOT
ATOM      1  C   UNL     1      49.174   8.559  14.194  0.00  0.00    +0.000 C 
ENDROOT
BRANCH   1   2
ATOM      2  C   UNL     1      48.013   8.108  13.315  0.00  0.00    +0.000 A 
ATOM      3  C   UNL     1      48.197   7.079  12.376  0.00  0.00    +0.000 A 
ATOM      4  C   UNL     1      47.129   6.637  11.589  0.00  0.00    +0.000 A 
ATOM      5  C   UNL     1      45.867   7.213  11.728  0.00  0.00    +0.000 A 
ATOM      6  C   UNL     1      45.694   8.286  12.602  0.00  0.00    +0.000 A 
ATOM      7  C   UNL     1      46.758   8.730  13.388  0.00  0.00    +0.000 A 
BRANCH   5   8
ATOM      8  O   UNL     1      44.870   6.659  10.972  0.00  0.00    +0.000 OA
BRANCH   8   9
ATOM      9  C   UNL     1      44.502   5.329  11.349  0.00  0.00    +0.000 C 
BRANCH   9  10
ATOM     10  C   UNL     1      44.774   4.361  10.233  0.00  0.00    +0.000 A 
ATOM     11  C   UNL     1      45.415   4.788   9.065  0.00  0.00    +0.000 A 
ATOM     12  C   UNL     1      45.676   3.878   8.047  0.00  0.00    +0.000 A 
ATOM     13  C   UNL     1      45.300   2.560   8.238  0.00  0.00    +0.000 A 
ATOM     14  N   UNL     1      44.704   2.104   9.361  0.00  0.00    +0.000 NA
ATOM     15  C   UNL     1      44.457   3.012  10.332  0.00  0.00    +0.000 A 
ENDBRANCH   9  10
ENDBRANCH   8   9
ENDBRANCH   5   8
ENDBRANCH   1   2
BRANCH   1  16
ATOM     16  N   UNL     1      49.238   7.702  15.365  0.00  0.00    +0.000 N 
ATOM     17  C   UNL     1      48.668   8.091  16.545  0.00  0.00    +0.000 C 
ATOM     18  O   UNL     1      48.071   9.160  16.646  0.00  0.00    +0.000 OA
ATOM     19  H   UNL     1      49.877   6.913  15.341  0.00  0.00    +0.000 HD
BRANCH  17  20
ATOM     20  C   UNL     1      48.736   7.147  17.663  0.00  0.00    +0.000 A 
ATOM     21  C   UNL     1      49.046   7.618  18.932  0.00  0.00    +0.000 A 
ATOM     22  S   UNL     1      49.096   6.400  20.121  0.00  0.00    +0.000 S 
ATOM     23  C   UNL     1      48.750   5.192  18.974  0.00  0.00    +0.000 A 
ATOM     24  N   UNL     1      48.703   3.882  19.333  0.00  0.00    +0.000 NA
ATOM     25  C   UNL     1      48.468   3.070  18.359  0.00  0.00    +0.000 A 
ATOM     26  N   UNL     1      48.251   3.453  17.059  0.00  0.00    +0.000 N 
ATOM     27  C   UNL     1      48.222   4.770  16.663  0.00  0.00    +0.000 A 
ATOM     28  O   UNL     1      47.912   5.096  15.521  0.00  0.00    +0.000 OA
ATOM     29  C   UNL     1      48.546   5.718  17.711  0.00  0.00    +0.000 A 
ATOM     30  H   UNL     1      48.040   2.764  16.352  0.00  0.00    +0.000 HD
ENDBRANCH  17  20
ENDBRANCH   1  16
BRANCH   1  32
ATOM     31  N   UNL     1      51.495   8.597  12.916  0.00  0.00    +0.000 NA
ATOM     32  C   UNL     1      50.469   8.597  13.459  0.00  0.00    +0.000 C 
ENDBRANCH   1  32
TORSDOF 7
ENDMDL
