MODEL 1
REMARK VINA RESULT:    -8.082      0.000      0.000
REMARK INTER + INTRA:         -10.561
REMARK INTER:                  -9.971
REMARK INTRA:                  -0.589
REMARK UNBOUND:                -0.589
REMARK  Name = 
REMARK  4 active torsions:
REMARK  status: ('A' for Active; 'I' for Inactive)
REMARK    1  A    between atoms: C_2  and  C_3
REMARK    2  A    between atoms: C_7  and  C_8
REMARK    3  A    between atoms: C_8  and  N_9
REMARK    4  A    between atoms: C_14  and  C_15
REMARK                            x       y       z     vdW  Elec       q    Type
REMARK                         _______ _______ _______ _____ _____    ______ ____
ROOT
ATOM      1  N   UNL     1      44.643   4.175  11.137  0.00  0.00    +0.000 N 
ATOM      2  C   UNL     1      44.392   3.193  12.056  0.00  0.00    +0.000 A 
ATOM      3  N   UNL     1      45.043   3.402  13.178  0.00  0.00    +0.000 NA
ATOM      4  C   UNL     1      45.755   4.557  12.975  0.00  0.00    +0.000 A 
ATOM      5  C   UNL     1      46.639   5.217  13.843  0.00  0.00    +0.000 A 
ATOM      6  C   UNL     1      47.271   6.390  13.401  0.00  0.00    +0.000 A 
ATOM      7  C   UNL     1      47.007   6.885  12.112  0.00  0.00    +0.000 A 
ATOM      8  C   UNL     1      46.129   6.239  11.236  0.00  0.00    +0.000 A 
ATOM      9  C   UNL     1      45.522   5.070  11.701  0.00  0.00    +0.000 A 
ENDROOT
BRANCH   6  10
ATOM     10  C   UNL     1      48.237   7.153  14.241  0.00  0.00    +0.000 C 
ATOM     11  N   UNL     1      47.864   8.375  14.728  0.00  0.00    +0.000 N 
ATOM     12  O   UNL     1      49.348   6.707  14.502  0.00  0.00    +0.000 OA
ATOM     13  H   UNL     1      46.978   8.824  14.568  0.00  0.00    +0.000 HD
ATOM     14  H   UNL     1      48.545   8.863  15.296  0.00  0.00    +0.000 HD
ENDBRANCH   6  10
BRANCH   1  15
ATOM     15  C   UNL     1      44.166   4.177   9.763  0.00  0.00    +0.000 C 
BRANCH  15  20
ATOM     16  C   UNL     1      46.394   1.795   7.779  0.00  0.00    +0.000 A 
ATOM     17  C   UNL     1      47.123   2.679   6.983  0.00  0.00    +0.000 A 
ATOM     18  C   UNL     1      46.916   4.052   7.103  0.00  0.00    +0.000 A 
ATOM     19  C   UNL     1      45.971   4.543   8.008  0.00  0.00    +0.000 A 
ATOM     20  C   UNL     1      45.200   3.666   8.788  0.00  0.00    +0.000 A 
ATOM     21  C   UNL     1      45.434   2.286   8.675  0.00  0.00    +0.000 A 
BRANCH  16  23
ATOM     22  N   UNL     1      46.817  -0.761   7.632  0.00  0.00    +0.000 NA
ATOM     23  C   UNL     1      46.635   0.385   7.692  0.00  0.00    +0.000 C 
ENDBRANCH  16  23
ENDBRANCH  15  20
ENDBRANCH   1  15
TORSDOF 4
ENDMDL
MODEL 2
REMARK VINA RESULT:    -7.999      2.784      6.350
REMARK INTER + INTRA:         -10.459
REMARK INTER:                  -9.982
REMARK INTRA:                  -0.477
REMARK UNBOUND:                -0.589
REMARK  Name = 
REMARK  4 active torsions:
REMARK  status: ('A' for Active; 'I' for Inactive)
REMARK    1  A    between atoms: C_2  and  C_3
REMARK    2  A    between atoms: C_7  and  C_8
REMARK    3  A    between atoms: C_8  and  N_9
REMARK    4  A    between atoms: C_14  and  C_15
REMARK                            x       y       z     vdW  Elec       q    Type
REMARK                         _______ _______ _______ _____ _____    ______ ____
ROOT
ATOM      1  N   UNL     1      43.899   4.383  10.518  0.00  0.00    +0.000 N 
ATOM      2  C   UNL     1      43.378   3.258  11.096  0.00  0.00    +0.000 A 
ATOM      3  N   UNL     1      43.894   2.165  10.582  0.00  0.00    +0.000 NA
ATOM      4  C   UNL     1      44.775   2.597   9.622  0.00  0.00    +0.000 A 
ATOM      5  C   UNL     1      45.576   1.842   8.751  0.00  0.00    +0.000 A 
ATOM      6  C   UNL     1      46.396   2.515   7.832  0.00  0.00    +0.000 A 
ATOM      7  C   UNL     1      46.407   3.920   7.801  0.00  0.00    +0.000 A 
ATOM      8  C   UNL     1      45.614   4.686   8.662  0.00  0.00    +0.000 A 
ATOM      9  C   UNL     1      44.804   3.988   9.560  0.00  0.00    +0.000 A 
ENDROOT
BRANCH   6  10
ATOM     10  C   UNL     1      47.270   1.804   6.856  0.00  0.00    +0.000 C 
ATOM     11  N   UNL     1      48.278   2.497   6.248  0.00  0.00    +0.000 N 
ATOM     12  O   UNL     1      47.102   0.619   6.594  0.00  0.00    +0.000 OA
ATOM     13  H   UNL     1      48.493   3.469   6.397  0.00  0.00    +0.000 HD
ATOM     14  H   UNL     1      48.852   1.982   5.593  0.00  0.00    +0.000 HD
ENDBRANCH   6  10
BRANCH   1  15
ATOM     15  C   UNL     1      43.458   5.743  10.785  0.00  0.00    +0.000 C 
BRANCH  15  20
ATOM     16  C   UNL     1      46.419   6.673  13.009  0.00  0.00    +0.000 A 
ATOM     17  C   UNL     1      46.466   8.059  12.858  0.00  0.00    +0.000 A 
ATOM     18  C   UNL     1      45.524   8.703  12.057  0.00  0.00    +0.000 A 
ATOM     19  C   UNL     1      44.543   7.961  11.395  0.00  0.00    +0.000 A 
ATOM     20  C   UNL     1      44.504   6.562  11.503  0.00  0.00    +0.000 A 
ATOM     21  C   UNL     1      45.444   5.927  12.331  0.00  0.00    +0.000 A 
BRANCH  16  23
ATOM     22  N   UNL     1      48.107   5.479  14.575  0.00  0.00    +0.000 NA
ATOM     23  C   UNL     1      47.356   6.011  13.867  0.00  0.00    +0.000 C 
ENDBRANCH  16  23
ENDBRANCH  15  20
ENDBRANCH   1  15
TORSDOF 4
ENDMDL
MODEL 3
REMARK VINA RESULT:    -7.763      2.993      6.841
REMARK INTER + INTRA:         -10.168
REMARK INTER:                  -9.709
REMARK INTRA:                  -0.459
REMARK UNBOUND:                -0.589
REMARK  Name = 
REMARK  4 active torsions:
REMARK  status: ('A' for Active; 'I' for Inactive)
REMARK    1  A    between atoms: C_2  and  C_3
REMARK    2  A    between atoms: C_7  and  C_8
REMARK    3  A    between atoms: C_8  and  N_9
REMARK    4  A    between atoms: C_14  and  C_15
REMARK                            x       y       z     vdW  Elec       q    Type
REMARK                         _______ _______ _______ _____ _____    ______ ____
ROOT
ATOM      1  N   UNL     1      43.915   4.347  10.557  0.00  0.00    +0.000 N 
ATOM      2  C   UNL     1      43.393   3.219  11.127  0.00  0.00    +0.000 A 
ATOM      3  N   UNL     1      43.902   2.129  10.600  0.00  0.00    +0.000 NA
ATOM      4  C   UNL     1      44.780   2.566   9.640  0.00  0.00    +0.000 A 
ATOM      5  C   UNL     1      45.573   1.816   8.757  0.00  0.00    +0.000 A 
ATOM      6  C   UNL     1      46.391   2.495   7.840  0.00  0.00    +0.000 A 
ATOM      7  C   UNL     1      46.407   3.900   7.822  0.00  0.00    +0.000 A 
ATOM      8  C   UNL     1      45.622   4.661   8.695  0.00  0.00    +0.000 A 
ATOM      9  C   UNL     1      44.814   3.958   9.591  0.00  0.00    +0.000 A 
ENDROOT
BRANCH   6  10
ATOM     10  C   UNL     1      47.257   1.789   6.853  0.00  0.00    +0.000 C 
ATOM     11  N   UNL     1      48.260   2.486   6.241  0.00  0.00    +0.000 N 
ATOM     12  O   UNL     1      47.086   0.606   6.585  0.00  0.00    +0.000 OA
ATOM     13  H   UNL     1      48.477   3.457   6.394  0.00  0.00    +0.000 HD
ATOM     14  H   UNL     1      48.828   1.975   5.578  0.00  0.00    +0.000 HD
ENDBRANCH   6  10
BRANCH   1  15
ATOM     15  C   UNL     1      43.481   5.706  10.839  0.00  0.00    +0.000 C 
BRANCH  15  20
ATOM     16  C   UNL     1      45.541   8.669  12.086  0.00  0.00    +0.000 A 
ATOM     17  C   UNL     1      46.475   8.042  12.912  0.00  0.00    +0.000 A 
ATOM     18  C   UNL     1      46.460   6.655  13.047  0.00  0.00    +0.000 A 
ATOM     19  C   UNL     1      45.503   5.894  12.370  0.00  0.00    +0.000 A 
ATOM     20  C   UNL     1      44.531   6.511  11.568  0.00  0.00    +0.000 A 
ATOM     21  C   UNL     1      44.571   7.907  11.421  0.00  0.00    +0.000 A 
BRANCH  16  23
ATOM     22  N   UNL     1      45.615  11.240  11.746  0.00  0.00    +0.000 NA
ATOM     23  C   UNL     1      45.580  10.090  11.907  0.00  0.00    +0.000 C 
ENDBRANCH  16  23
ENDBRANCH  15  20
ENDBRANCH   1  15
TORSDOF 4
ENDMDL
MODEL 4
REMARK VINA RESULT:    -6.466      1.691      2.307
REMARK INTER + INTRA:          -8.567
REMARK INTER:                  -8.193
REMARK INTRA:                  -0.374
REMARK UNBOUND:                -0.589
REMARK  Name = 
REMARK  4 active torsions:
REMARK  status: ('A' for Active; 'I' for Inactive)
REMARK    1  A    between atoms: C_2  and  C_3
REMARK    2  A    between atoms: C_7  and  C_8
REMARK    3  A    between atoms: C_8  and  N_9
REMARK    4  A    between atoms: C_14  and  C_15
REMARK                            x       y       z     vdW  Elec       q    Type
REMARK                         _______ _______ _______ _____ _____    ______ ____
ROOT
ATOM      1  N   UNL     1      45.149   5.356  11.976  0.00  0.00    +0.000 N 
ATOM      2  C   UNL     1      44.847   4.567  13.052  0.00  0.00    +0.000 A 
ATOM      3  N   UNL     1      45.740   4.686  14.007  0.00  0.00    +0.000 NA
ATOM      4  C   UNL     1      46.667   5.578  13.528  0.00  0.00    +0.000 A 
ATOM      5  C   UNL     1      47.845   6.042  14.133  0.00  0.00    +0.000 A 
ATOM      6  C   UNL     1      48.652   6.952  13.433  0.00  0.00    +0.000 A 
ATOM      7  C   UNL     1      48.270   7.385  12.151  0.00  0.00    +0.000 A 
ATOM      8  C   UNL     1      47.100   6.931  11.535  0.00  0.00    +0.000 A 
ATOM      9  C   UNL     1      46.321   6.020  12.253  0.00  0.00    +0.000 A 
ENDROOT
BRANCH   6  10
ATOM     10  C   UNL     1      49.928   7.491  13.983  0.00  0.00    +0.000 C 
ATOM     11  N   UNL     1      50.929   7.827  13.116  0.00  0.00    +0.000 N 
ATOM     12  O   UNL     1      50.093   7.637  15.188  0.00  0.00    +0.000 OA
ATOM     13  H   UNL     1      50.889   7.742  12.114  0.00  0.00    +0.000 HD
ATOM     14  H   UNL     1      51.781   8.191  13.525  0.00  0.00    +0.000 HD
ENDBRANCH   6  10
BRANCH   1  15
ATOM     15  C   UNL     1      44.423   5.368  10.716  0.00  0.00    +0.000 C 
BRANCH  15  20
ATOM     16  C   UNL     1      45.734   3.177   7.878  0.00  0.00    +0.000 A 
ATOM     17  C   UNL     1      45.276   1.914   8.256  0.00  0.00    +0.000 A 
ATOM     18  C   UNL     1      44.518   1.769   9.416  0.00  0.00    +0.000 A 
ATOM     19  C   UNL     1      44.229   2.884  10.208  0.00  0.00    +0.000 A 
ATOM     20  C   UNL     1      44.715   4.155   9.865  0.00  0.00    +0.000 A 
ATOM     21  C   UNL     1      45.459   4.292   8.681  0.00  0.00    +0.000 A 
BRANCH  16  23
ATOM     22  N   UNL     1      47.072   3.454   5.672  0.00  0.00    +0.000 NA
ATOM     23  C   UNL     1      46.475   3.338   6.662  0.00  0.00    +0.000 C 
ENDBRANCH  16  23
ENDBRANCH  15  20
ENDBRANCH   1  15
TORSDOF 4
ENDMDL
MODEL 5
REMARK VINA RESULT:    -6.322      1.950      3.142
REMARK INTER + INTRA:          -8.390
REMARK INTER:                  -7.814
REMARK INTRA:                  -0.576
REMARK UNBOUND:                -0.589
REMARK  Name = 
REMARK  4 active torsions:
REMARK  status: ('A' for Active; 'I' for Inactive)
REMARK    1  A    between atoms: C_2  and  C_3
REMARK    2  A    between atoms: C_7  and  C_8
REMARK    3  A    between atoms: C_8  and  N_9
REMARK    4  A    between atoms: C_14  and  C_15
REMARK                            x       y       z     vdW  Elec       q    Type
REMARK                         _______ _______ _______ _____ _____    ______ ____
ROOT
ATOM      1  N   UNL     1      44.576   6.669  11.742  0.00  0.00    +0.000 N 
ATOM      2  C   UNL     1      44.634   7.987  11.380  0.00  0.00    +0.000 A 
ATOM      3  N   UNL     1      45.664   8.595  11.923  0.00  0.00    +0.000 NA
ATOM      4  C   UNL     1      46.293   7.637  12.679  0.00  0.00    +0.000 A 
ATOM      5  C   UNL     1      47.432   7.756  13.490  0.00  0.00    +0.000 A 
ATOM      6  C   UNL     1      47.886   6.626  14.190  0.00  0.00    +0.000 A 
ATOM      7  C   UNL     1      47.203   5.405  14.064  0.00  0.00    +0.000 A 
ATOM      8  C   UNL     1      46.066   5.271  13.261  0.00  0.00    +0.000 A 
ATOM      9  C   UNL     1      45.635   6.414  12.583  0.00  0.00    +0.000 A 
ENDROOT
BRANCH   6  10
ATOM     10  C   UNL     1      49.075   6.655  15.087  0.00  0.00    +0.000 C 
ATOM     11  N   UNL     1      49.959   7.691  14.975  0.00  0.00    +0.000 N 
ATOM     12  O   UNL     1      49.270   5.775  15.917  0.00  0.00    +0.000 OA
ATOM     13  H   UNL     1      49.886   8.456  14.326  0.00  0.00    +0.000 HD
ATOM     14  H   UNL     1      50.754   7.678  15.602  0.00  0.00    +0.000 HD
ENDBRANCH   6  10
BRANCH   1  15
ATOM     15  C   UNL     1      43.500   5.753  11.401  0.00  0.00    +0.000 C 
BRANCH  15  20
ATOM     16  C   UNL     1      45.215   3.599   8.756  0.00  0.00    +0.000 A 
ATOM     17  C   UNL     1      44.909   2.310   9.194  0.00  0.00    +0.000 A 
ATOM     18  C   UNL     1      44.125   2.131  10.332  0.00  0.00    +0.000 A 
ATOM     19  C   UNL     1      43.657   3.240  11.042  0.00  0.00    +0.000 A 
ATOM     20  C   UNL     1      43.987   4.544  10.639  0.00  0.00    +0.000 A 
ATOM     21  C   UNL     1      44.759   4.711   9.478  0.00  0.00    +0.000 A 
BRANCH  16  23
ATOM     22  N   UNL     1      46.610   3.928   6.594  0.00  0.00    +0.000 NA
ATOM     23  C   UNL     1      45.982   3.789   7.561  0.00  0.00    +0.000 C 
ENDBRANCH  16  23
ENDBRANCH  15  20
ENDBRANCH   1  15
TORSDOF 4
ENDMDL
MODEL 6
REMARK VINA RESULT:    -6.062      2.347      3.752
REMARK INTER + INTRA:          -8.069
REMARK INTER:                  -7.501
REMARK INTRA:                  -0.568
REMARK UNBOUND:                -0.589
REMARK  Name = 
REMARK  4 active torsions:
REMARK  status: ('A' for Active; 'I' for Inactive)
REMARK    1  A    between atoms: C_2  and  C_3
REMARK    2  A    between atoms: C_7  and  C_8
REMARK    3  A    between atoms: C_8  and  N_9
REMARK    4  A    between atoms: C_14  and  C_15
REMARK                            x       y       z     vdW  Elec       q    Type
REMARK                         _______ _______ _______ _____ _____    ______ ____
ROOT
ATOM      1  N   UNL     1      46.070   6.134  13.264  0.00  0.00    +0.000 N 
ATOM      2  C   UNL     1      46.670   5.196  14.059  0.00  0.00    +0.000 A 
ATOM      3  N   UNL     1      47.937   5.472  14.264  0.00  0.00    +0.000 NA
ATOM      4  C   UNL     1      48.174   6.629  13.564  0.00  0.00    +0.000 A 
ATOM      5  C   UNL     1      49.371   7.347  13.418  0.00  0.00    +0.000 A 
ATOM      6  C   UNL     1      49.372   8.507  12.628  0.00  0.00    +0.000 A 
ATOM      7  C   UNL     1      48.186   8.931  12.006  0.00  0.00    +0.000 A 
ATOM      8  C   UNL     1      46.986   8.226  12.140  0.00  0.00    +0.000 A 
ATOM      9  C   UNL     1      47.018   7.072  12.926  0.00  0.00    +0.000 A 
ENDROOT
BRANCH   6  10
ATOM     10  C   UNL     1      50.595   9.329  12.400  0.00  0.00    +0.000 C 
ATOM     11  N   UNL     1      51.263   9.199  11.216  0.00  0.00    +0.000 N 
ATOM     12  O   UNL     1      51.005  10.112  13.248  0.00  0.00    +0.000 OA
ATOM     13  H   UNL     1      51.006   8.584  10.462  0.00  0.00    +0.000 HD
ATOM     14  H   UNL     1      52.088   9.773  11.095  0.00  0.00    +0.000 HD
ENDBRANCH   6  10
BRANCH   1  15
ATOM     15  C   UNL     1      44.708   6.059  12.761  0.00  0.00    +0.000 C 
BRANCH  15  20
ATOM     16  C   UNL     1      44.925   3.893   9.624  0.00  0.00    +0.000 A 
ATOM     17  C   UNL     1      44.149   2.790   9.984  0.00  0.00    +0.000 A 
ATOM     18  C   UNL     1      43.530   2.753  11.232  0.00  0.00    +0.000 A 
ATOM     19  C   UNL     1      43.697   3.812  12.128  0.00  0.00    +0.000 A 
ATOM     20  C   UNL     1      44.506   4.911  11.800  0.00  0.00    +0.000 A 
ATOM     21  C   UNL     1      45.106   4.947  10.531  0.00  0.00    +0.000 A 
BRANCH  16  23
ATOM     22  N   UNL     1      46.026   4.000   7.278  0.00  0.00    +0.000 NA
ATOM     23  C   UNL     1      45.526   3.957   8.326  0.00  0.00    +0.000 C 
ENDBRANCH  16  23
ENDBRANCH  15  20
ENDBRANCH   1  15
TORSDOF 4
ENDMDL
MODEL 7
REMARK VINA RESULT:    -5.886      3.533      6.595
REMARK INTER + INTRA:          -7.851
REMARK INTER:                  -7.340
REMARK INTRA:                  -0.511
REMARK UNBOUND:                -0.589
REMARK  Name = 
REMARK  4 active torsions:
REMARK  status: ('A' for Active; 'I' for Inactive)
REMARK    1  A    between atoms: C_2  and  C_3
REMARK    2  A    between atoms: C_7  and  C_8
REMARK    3  A    between atoms: C_8  and  N_9
REMARK    4  A    between atoms: C_14  and  C_15
REMARK                            x       y       z     vdW  Elec       q    Type
REMARK                         _______ _______ _______ _____ _____    ______ ____
ROOT
ATOM      1  N   UNL     1      47.468   6.900  12.953  0.00  0.00    +0.000 N 
ATOM      2  C   UNL     1      47.854   6.241  14.088  0.00  0.00    +0.000 A 
ATOM      3  N   UNL     1      47.311   5.047  14.164  0.00  0.00    +0.000 NA
ATOM      4  C   UNL     1      46.532   4.931  13.041  0.00  0.00    +0.000 A 
ATOM      5  C   UNL     1      45.711   3.866  12.638  0.00  0.00    +0.000 A 
ATOM      6  C   UNL     1      44.987   3.984  11.441  0.00  0.00    +0.000 A 
ATOM      7  C   UNL     1      45.097   5.153  10.669  0.00  0.00    +0.000 A 
ATOM      8  C   UNL     1      45.909   6.224  11.057  0.00  0.00    +0.000 A 
ATOM      9  C   UNL     1      46.612   6.079  12.256  0.00  0.00    +0.000 A 
ENDROOT
BRANCH   6  10
ATOM     10  C   UNL     1      44.078   2.916  10.938  0.00  0.00    +0.000 C 
ATOM     11  N   UNL     1      44.482   2.154   9.878  0.00  0.00    +0.000 N 
ATOM     12  O   UNL     1      42.986   2.711  11.454  0.00  0.00    +0.000 OA
ATOM     13  H   UNL     1      45.357   2.247   9.389  0.00  0.00    +0.000 HD
ATOM     14  H   UNL     1      43.840   1.437   9.564  0.00  0.00    +0.000 HD
ENDBRANCH   6  10
BRANCH   1  15
ATOM     15  C   UNL     1      47.803   8.278  12.629  0.00  0.00    +0.000 C 
BRANCH  15  20
ATOM     16  C   UNL     1      51.339   8.035  11.208  0.00  0.00    +0.000 A 
ATOM     17  C   UNL     1      52.056   8.852  12.083  0.00  0.00    +0.000 A 
ATOM     18  C   UNL     1      51.404   9.465  13.152  0.00  0.00    +0.000 A 
ATOM     19  C   UNL     1      50.033   9.273  13.340  0.00  0.00    +0.000 A 
ATOM     20  C   UNL     1      49.288   8.486  12.448  0.00  0.00    +0.000 A 
ATOM     21  C   UNL     1      49.960   7.856  11.388  0.00  0.00    +0.000 A 
BRANCH  16  23
ATOM     22  N   UNL     1      52.555   6.810   9.271  0.00  0.00    +0.000 NA
ATOM     23  C   UNL     1      52.012   7.366  10.135  0.00  0.00    +0.000 C 
ENDBRANCH  16  23
ENDBRANCH  15  20
ENDBRANCH   1  15
TORSDOF 4
ENDMDL
MODEL 8
REMARK VINA RESULT:    -5.709      3.476      6.664
REMARK INTER + INTRA:          -7.634
REMARK INTER:                  -7.099
REMARK INTRA:                  -0.534
REMARK UNBOUND:                -0.589
REMARK  Name = 
REMARK  4 active torsions:
REMARK  status: ('A' for Active; 'I' for Inactive)
REMARK    1  A    between atoms: C_2  and  C_3
REMARK    2  A    between atoms: C_7  and  C_8
REMARK    3  A    between atoms: C_8  and  N_9
REMARK    4  A    between atoms: C_14  and  C_15
REMARK                            x       y       z     vdW  Elec       q    Type
REMARK                         _______ _______ _______ _____ _____    ______ ____
ROOT
ATOM      1  N   UNL     1      46.031   7.915  12.839  0.00  0.00    +0.000 N 
ATOM      2  C   UNL     1      45.204   8.716  12.099  0.00  0.00    +0.000 A 
ATOM      3  N   UNL     1      44.349   8.011  11.394  0.00  0.00    +0.000 NA
ATOM      4  C   UNL     1      44.640   6.700  11.677  0.00  0.00    +0.000 A 
ATOM      5  C   UNL     1      44.047   5.531  11.173  0.00  0.00    +0.000 A 
ATOM      6  C   UNL     1      44.531   4.287  11.604  0.00  0.00    +0.000 A 
ATOM      7  C   UNL     1      45.588   4.228  12.528  0.00  0.00    +0.000 A 
ATOM      8  C   UNL     1      46.190   5.383  13.039  0.00  0.00    +0.000 A 
ATOM      9  C   UNL     1      45.691   6.606  12.586  0.00  0.00    +0.000 A 
ENDROOT
BRANCH   6  10
ATOM     10  C   UNL     1      43.978   2.991  11.115  0.00  0.00    +0.000 C 
ATOM     11  N   UNL     1      44.650   2.318  10.134  0.00  0.00    +0.000 N 
ATOM     12  O   UNL     1      42.944   2.524  11.575  0.00  0.00    +0.000 OA
ATOM     13  H   UNL     1      45.503   2.621   9.694  0.00  0.00    +0.000 HD
ATOM     14  H   UNL     1      44.246   1.442   9.828  0.00  0.00    +0.000 HD
ENDBRANCH   6  10
BRANCH   1  15
ATOM     15  C   UNL     1      47.154   8.380  13.636  0.00  0.00    +0.000 C 
BRANCH  15  20
ATOM     16  C   UNL     1      50.239   8.601  11.398  0.00  0.00    +0.000 A 
ATOM     17  C   UNL     1      50.361   9.978  11.212  0.00  0.00    +0.000 A 
ATOM     18  C   UNL     1      49.462  10.844  11.832  0.00  0.00    +0.000 A 
ATOM     19  C   UNL     1      48.431  10.334  12.626  0.00  0.00    +0.000 A 
ATOM     20  C   UNL     1      48.269   8.950  12.792  0.00  0.00    +0.000 A 
ATOM     21  C   UNL     1      49.195   8.089  12.181  0.00  0.00    +0.000 A 
BRANCH  16  23
ATOM     22  N   UNL     1      51.945   6.981  10.305  0.00  0.00    +0.000 NA
ATOM     23  C   UNL     1      51.188   7.708  10.800  0.00  0.00    +0.000 C 
ENDBRANCH  16  23
ENDBRANCH  15  20
ENDBRANCH   1  15
TORSDOF 4
ENDMDL
MODEL 9
REMARK VINA RESULT:    -5.626      3.842      7.822
REMARK INTER + INTRA:          -7.530
REMARK INTER:                  -6.969
REMARK INTRA:                  -0.561
REMARK UNBOUND:                -0.589
REMARK  Name = 
REMARK  4 active torsions:
REMARK  status: ('A' for Active; 'I' for Inactive)
REMARK    1  A    between atoms: C_2  and  C_3
REMARK    2  A    between atoms: C_7  and  C_8
REMARK    3  A    between atoms: C_8  and  N_9
REMARK    4  A    between atoms: C_14  and  C_15
REMARK                            x       y       z     vdW  Elec       q    Type
REMARK                         _______ _______ _______ _____ _____    ______ ____
ROOT
ATOM      1  N   UNL     1      47.428   7.266  13.639  0.00  0.00    +0.000 N 
ATOM      2  C   UNL     1      46.725   8.377  13.261  0.00  0.00    +0.000 A 
ATOM      3  N   UNL     1      45.569   8.060  12.724  0.00  0.00    +0.000 NA
ATOM      4  C   UNL     1      45.525   6.688  12.743  0.00  0.00    +0.000 A 
ATOM      5  C   UNL     1      44.524   5.827  12.266  0.00  0.00    +0.000 A 
ATOM      6  C   UNL     1      44.712   4.441  12.382  0.00  0.00    +0.000 A 
ATOM      7  C   UNL     1      45.884   3.941  12.973  0.00  0.00    +0.000 A 
ATOM      8  C   UNL     1      46.891   4.785  13.452  0.00  0.00    +0.000 A 
ATOM      9  C   UNL     1      46.679   6.159  13.316  0.00  0.00    +0.000 A 
ENDROOT
BRANCH   6  10
ATOM     10  C   UNL     1      43.715   3.447  11.892  0.00  0.00    +0.000 C 
ATOM     11  N   UNL     1      43.685   2.208  12.467  0.00  0.00    +0.000 N 
ATOM     12  O   UNL     1      42.930   3.720  10.992  0.00  0.00    +0.000 OA
ATOM     13  H   UNL     1      44.288   1.890  13.207  0.00  0.00    +0.000 HD
ATOM     14  H   UNL     1      42.995   1.559  12.110  0.00  0.00    +0.000 HD
ENDBRANCH   6  10
BRANCH   1  15
ATOM     15  C   UNL     1      48.786   7.271  14.161  0.00  0.00    +0.000 C 
BRANCH  15  20
ATOM     16  C   UNL     1      48.787   5.858  17.707  0.00  0.00    +0.000 A 
ATOM     17  C   UNL     1      48.904   7.016  18.477  0.00  0.00    +0.000 A 
ATOM     18  C   UNL     1      48.955   8.261  17.854  0.00  0.00    +0.000 A 
ATOM     19  C   UNL     1      48.905   8.351  16.460  0.00  0.00    +0.000 A 
ATOM     20  C   UNL     1      48.829   7.194  15.668  0.00  0.00    +0.000 A 
ATOM     21  C   UNL     1      48.754   5.946  16.309  0.00  0.00    +0.000 A 
BRANCH  16  23
ATOM     22  N   UNL     1      48.623   3.537  18.856  0.00  0.00    +0.000 NA
ATOM     23  C   UNL     1      48.688   4.578  18.344  0.00  0.00    +0.000 C 
ENDBRANCH  16  23
ENDBRANCH  15  20
ENDBRANCH   1  15
TORSDOF 4
ENDMDL
