MODEL 1
REMARK VINA RESULT:    -8.228      0.000      0.000
REMARK INTER + INTRA:          -9.259
REMARK INTER:                  -9.671
REMARK INTRA:                   0.411
REMARK UNBOUND:                 0.411
REMARK  Name = 
REMARK  3 active torsions:
REMARK  status: ('A' for Active; 'I' for Inactive)
REMARK    1  A    between atoms: C_2  and  C_4
REMARK    2  A    between atoms: N_8  and  C_9
REMARK    3  A    between atoms: C_9  and  C_10
REMARK                            x       y       z     vdW  Elec       q    Type
REMARK                         _______ _______ _______ _____ _____    ______ ____
ROOT
ATOM      1  C   UNL     1      46.361   2.098   7.874  0.00  0.00    +0.000 A 
ATOM      2  C   UNL     1      46.393   3.394   7.370  0.00  0.00    +0.000 A 
ATOM      3  C   UNL     1      45.681   4.393   8.034  0.00  0.00    +0.000 A 
ATOM      4  C   UNL     1      44.972   4.094   9.200  0.00  0.00    +0.000 A 
ATOM      5  N   UNL     1      44.357   5.181   9.854  0.00  0.00    +0.000 N 
ATOM      6  N   UNL     1      44.920   2.837   9.680  0.00  0.00    +0.000 NA
ATOM      7  C   UNL     1      45.596   1.867   9.006  0.00  0.00    +0.000 A 
ATOM      8  H   UNL     1      43.644   5.585   9.246  0.00  0.00    +0.000 HD
ENDROOT
BRANCH   1  10
ATOM      9  N   UNL     1      46.753  -0.289   7.642  0.00  0.00    +0.000 N 
ATOM     10  C   UNL     1      47.093   0.976   7.250  0.00  0.00    +0.000 C 
ATOM     11  O   UNL     1      47.944   1.165   6.391  0.00  0.00    +0.000 OA
ATOM     12  H   UNL     1      47.189  -1.050   7.137  0.00  0.00    +0.000 HD
ATOM     13  H   UNL     1      45.896  -0.493   8.139  0.00  0.00    +0.000 HD
ENDBRANCH   1  10
BRANCH   5  14
ATOM     14  C   UNL     1      43.927   5.187  11.285  0.00  0.00    +0.000 C 
ATOM     15  C   UNL     1      42.825   4.171  11.597  0.00  0.00    +0.000 C 
ATOM     16  C   UNL     1      42.567   5.628  11.797  0.00  0.00    +0.000 C 
BRANCH  14  17
ATOM     17  C   UNL     1      45.127   5.261  12.282  0.00  0.00    +0.000 A 
ATOM     18  N   UNL     1      45.765   6.452  12.419  0.00  0.00    +0.000 NA
ATOM     19  C   UNL     1      46.820   6.492  13.259  0.00  0.00    +0.000 A 
ATOM     20  C   UNL     1      47.277   5.408  13.962  0.00  0.00    +0.000 A 
ATOM     21  C   UNL     1      46.582   4.243  13.762  0.00  0.00    +0.000 A 
ATOM     22  N   UNL     1      45.522   4.144  12.939  0.00  0.00    +0.000 NA
ENDBRANCH  14  17
ENDBRANCH   5  14
TORSDOF 3
ENDMDL
MODEL 2
REMARK VINA RESULT:    -7.225      1.518      1.931
REMARK INTER + INTRA:          -8.081
REMARK INTER:                  -7.739
REMARK INTRA:                  -0.342
REMARK UNBOUND:                 0.411
REMARK  Name = 
REMARK  3 active torsions:
REMARK  status: ('A' for Active; 'I' for Inactive)
REMARK    1  A    between atoms: C_2  and  C_4
REMARK    2  A    between atoms: N_8  and  C_9
REMARK    3  A    between atoms: C_9  and  C_10
REMARK                            x       y       z     vdW  Elec       q    Type
REMARK                         _______ _______ _______ _____ _____    ______ ____
ROOT
ATOM      1  C   UNL     1      46.408   3.020   7.502  0.00  0.00    +0.000 A 
ATOM      2  C   UNL     1      45.814   1.991   8.226  0.00  0.00    +0.000 A 
ATOM      3  C   UNL     1      45.225   2.286   9.455  0.00  0.00    +0.000 A 
ATOM      4  C   UNL     1      45.212   3.600   9.932  0.00  0.00    +0.000 A 
ATOM      5  N   UNL     1      44.517   3.821  11.138  0.00  0.00    +0.000 N 
ATOM      6  N   UNL     1      45.805   4.594   9.246  0.00  0.00    +0.000 NA
ATOM      7  C   UNL     1      46.402   4.287   8.061  0.00  0.00    +0.000 A 
ATOM      8  H   UNL     1      44.971   3.304  11.893  0.00  0.00    +0.000 HD
ENDROOT
BRANCH   1  10
ATOM      9  N   UNL     1      48.386   2.535   6.175  0.00  0.00    +0.000 N 
ATOM     10  C   UNL     1      47.045   2.809   6.185  0.00  0.00    +0.000 C 
ATOM     11  O   UNL     1      46.398   2.843   5.147  0.00  0.00    +0.000 OA
ATOM     12  H   UNL     1      48.789   2.295   5.278  0.00  0.00    +0.000 HD
ATOM     13  H   UNL     1      48.888   2.245   7.003  0.00  0.00    +0.000 HD
ENDBRANCH   1  10
BRANCH   5  14
ATOM     14  C   UNL     1      44.014   5.147  11.606  0.00  0.00    +0.000 C 
ATOM     15  C   UNL     1      42.689   5.065  12.370  0.00  0.00    +0.000 C 
ATOM     16  C   UNL     1      42.763   5.846  11.100  0.00  0.00    +0.000 C 
BRANCH  14  17
ATOM     17  C   UNL     1      45.135   6.041  12.224  0.00  0.00    +0.000 A 
ATOM     18  N   UNL     1      45.044   7.385  12.048  0.00  0.00    +0.000 NA
ATOM     19  C   UNL     1      46.036   8.141  12.559  0.00  0.00    +0.000 A 
ATOM     20  C   UNL     1      47.117   7.631  13.229  0.00  0.00    +0.000 A 
ATOM     21  C   UNL     1      47.137   6.266  13.358  0.00  0.00    +0.000 A 
ATOM     22  N   UNL     1      46.175   5.461  12.870  0.00  0.00    +0.000 NA
ENDBRANCH  14  17
ENDBRANCH   5  14
TORSDOF 3
ENDMDL
MODEL 3
REMARK VINA RESULT:    -7.225      3.052      6.523
REMARK INTER + INTRA:          -8.081
REMARK INTER:                  -7.860
REMARK INTRA:                  -0.220
REMARK UNBOUND:                 0.411
REMARK  Name = 
REMARK  3 active torsions:
REMARK  status: ('A' for Active; 'I' for Inactive)
REMARK    1  A    between atoms: C_2  and  C_4
REMARK    2  A    between atoms: N_8  and  C_9
REMARK    3  A    between atoms: C_9  and  C_10
REMARK                            x       y       z     vdW  Elec       q    Type
REMARK                         _______ _______ _______ _____ _____    ______ ____
ROOT
ATOM      1  C   UNL     1      47.172   8.044  13.342  0.00  0.00    +0.000 A 
ATOM      2  C   UNL     1      46.075   8.662  12.750  0.00  0.00    +0.000 A 
ATOM      3  C   UNL     1      45.271   7.921  11.884  0.00  0.00    +0.000 A 
ATOM      4  C   UNL     1      45.553   6.574  11.641  0.00  0.00    +0.000 A 
ATOM      5  N   UNL     1      44.637   5.880  10.826  0.00  0.00    +0.000 N 
ATOM      6  N   UNL     1      46.626   5.978  12.194  0.00  0.00    +0.000 NA
ATOM      7  C   UNL     1      47.419   6.720  13.014  0.00  0.00    +0.000 A 
ATOM      8  H   UNL     1      44.635   6.289   9.890  0.00  0.00    +0.000 HD
ENDROOT
BRANCH   1  10
ATOM      9  N   UNL     1      47.534   9.181  15.459  0.00  0.00    +0.000 N 
ATOM     10  C   UNL     1      48.074   8.741  14.281  0.00  0.00    +0.000 C 
ATOM     11  O   UNL     1      49.264   8.890  14.037  0.00  0.00    +0.000 OA
ATOM     12  H   UNL     1      48.181   9.566  16.135  0.00  0.00    +0.000 HD
ATOM     13  H   UNL     1      46.642   8.853  15.804  0.00  0.00    +0.000 HD
ENDBRANCH   1  10
BRANCH   5  14
ATOM     14  C   UNL     1      44.489   4.394  10.776  0.00  0.00    +0.000 C 
ATOM     15  C   UNL     1      43.080   3.907  11.126  0.00  0.00    +0.000 C 
ATOM     16  C   UNL     1      44.238   3.490  11.971  0.00  0.00    +0.000 C 
BRANCH  14  17
ATOM     17  C   UNL     1      45.170   3.756   9.524  0.00  0.00    +0.000 A 
ATOM     18  N   UNL     1      45.298   2.404   9.492  0.00  0.00    +0.000 NA
ATOM     19  C   UNL     1      45.917   1.869   8.420  0.00  0.00    +0.000 A 
ATOM     20  C   UNL     1      46.423   2.608   7.383  0.00  0.00    +0.000 A 
ATOM     21  C   UNL     1      46.259   3.965   7.496  0.00  0.00    +0.000 A 
ATOM     22  N   UNL     1      45.648   4.555   8.540  0.00  0.00    +0.000 NA
ENDBRANCH  14  17
ENDBRANCH   5  14
TORSDOF 3
ENDMDL
MODEL 4
REMARK VINA RESULT:    -7.141      2.973      6.314
REMARK INTER + INTRA:          -7.982
REMARK INTER:                  -7.683
REMARK INTRA:                  -0.298
REMARK UNBOUND:                 0.411
REMARK  Name = 
REMARK  3 active torsions:
REMARK  status: ('A' for Active; 'I' for Inactive)
REMARK    1  A    between atoms: C_2  and  C_4
REMARK    2  A    between atoms: N_8  and  C_9
REMARK    3  A    between atoms: C_9  and  C_10
REMARK                            x       y       z     vdW  Elec       q    Type
REMARK                         _______ _______ _______ _____ _____    ______ ____
ROOT
ATOM      1  C   UNL     1      47.500   4.600  15.318  0.00  0.00    +0.000 A 
ATOM      2  C   UNL     1      47.595   5.885  14.794  0.00  0.00    +0.000 A 
ATOM      3  C   UNL     1      47.022   6.150  13.550  0.00  0.00    +0.000 A 
ATOM      4  C   UNL     1      46.343   5.142  12.860  0.00  0.00    +0.000 A 
ATOM      5  N   UNL     1      45.718   5.521  11.655  0.00  0.00    +0.000 N 
ATOM      6  N   UNL     1      46.267   3.891  13.352  0.00  0.00    +0.000 NA
ATOM      7  C   UNL     1      46.856   3.640  14.554  0.00  0.00    +0.000 A 
ATOM      8  H   UNL     1      46.426   5.824  10.984  0.00  0.00    +0.000 HD
ENDROOT
BRANCH   1  10
ATOM      9  N   UNL     1      47.177   3.981  17.646  0.00  0.00    +0.000 N 
ATOM     10  C   UNL     1      48.062   4.227  16.632  0.00  0.00    +0.000 C 
ATOM     11  O   UNL     1      49.268   4.106  16.803  0.00  0.00    +0.000 OA
ATOM     12  H   UNL     1      47.568   3.630  18.510  0.00  0.00    +0.000 HD
ATOM     13  H   UNL     1      46.193   3.816  17.481  0.00  0.00    +0.000 HD
ENDBRANCH   1  10
BRANCH   5  14
ATOM     14  C   UNL     1      44.618   4.764  10.986  0.00  0.00    +0.000 C 
ATOM     15  C   UNL     1      43.328   5.574  10.823  0.00  0.00    +0.000 C 
ATOM     16  C   UNL     1      43.319   4.326  11.643  0.00  0.00    +0.000 C 
BRANCH  14  17
ATOM     17  C   UNL     1      45.104   3.949   9.746  0.00  0.00    +0.000 A 
ATOM     18  N   UNL     1      45.028   2.594   9.808  0.00  0.00    +0.000 NA
ATOM     19  C   UNL     1      45.482   1.903   8.743  0.00  0.00    +0.000 A 
ATOM     20  C   UNL     1      46.015   2.487   7.624  0.00  0.00    +0.000 A 
ATOM     21  C   UNL     1      46.062   3.858   7.644  0.00  0.00    +0.000 A 
ATOM     22  N   UNL     1      45.622   4.600   8.676  0.00  0.00    +0.000 NA
ENDBRANCH  14  17
ENDBRANCH   5  14
TORSDOF 3
ENDMDL
MODEL 5
REMARK VINA RESULT:    -7.022      2.999      6.432
REMARK INTER + INTRA:          -7.842
REMARK INTER:                  -7.508
REMARK INTRA:                  -0.333
REMARK UNBOUND:                 0.411
REMARK  Name = 
REMARK  3 active torsions:
REMARK  status: ('A' for Active; 'I' for Inactive)
REMARK    1  A    between atoms: C_2  and  C_4
REMARK    2  A    between atoms: N_8  and  C_9
REMARK    3  A    between atoms: C_9  and  C_10
REMARK                            x       y       z     vdW  Elec       q    Type
REMARK                         _______ _______ _______ _____ _____    ______ ____
ROOT
ATOM      1  C   UNL     1      48.068   6.764  14.406  0.00  0.00    +0.000 A 
ATOM      2  C   UNL     1      47.639   7.870  13.680  0.00  0.00    +0.000 A 
ATOM      3  C   UNL     1      46.782   7.674  12.597  0.00  0.00    +0.000 A 
ATOM      4  C   UNL     1      46.346   6.387  12.269  0.00  0.00    +0.000 A 
ATOM      5  N   UNL     1      45.412   6.293  11.218  0.00  0.00    +0.000 N 
ATOM      6  N   UNL     1      46.776   5.312  12.954  0.00  0.00    +0.000 NA
ATOM      7  C   UNL     1      47.635   5.515  13.991  0.00  0.00    +0.000 A 
ATOM      8  H   UNL     1      45.840   6.621  10.351  0.00  0.00    +0.000 HD
ENDROOT
BRANCH   1  10
ATOM      9  N   UNL     1      48.396   7.224  16.769  0.00  0.00    +0.000 N 
ATOM     10  C   UNL     1      48.964   6.871  15.576  0.00  0.00    +0.000 C 
ATOM     11  O   UNL     1      50.159   6.621  15.493  0.00  0.00    +0.000 OA
ATOM     12  H   UNL     1      49.000   7.197  17.581  0.00  0.00    +0.000 HD
ATOM     13  H   UNL     1      47.399   7.182  16.931  0.00  0.00    +0.000 HD
ENDBRANCH   1  10
BRANCH   5  14
ATOM     14  C   UNL     1      44.508   5.127  10.978  0.00  0.00    +0.000 C 
ATOM     15  C   UNL     1      43.021   5.494  10.988  0.00  0.00    +0.000 C 
ATOM     16  C   UNL     1      43.552   4.526  11.994  0.00  0.00    +0.000 C 
BRANCH  14  17
ATOM     17  C   UNL     1      45.002   4.201   9.822  0.00  0.00    +0.000 A 
ATOM     18  N   UNL     1      44.847   2.860   9.974  0.00  0.00    +0.000 NA
ATOM     19  C   UNL     1      45.308   2.071   8.982  0.00  0.00    +0.000 A 
ATOM     20  C   UNL     1      45.922   2.544   7.853  0.00  0.00    +0.000 A 
ATOM     21  C   UNL     1      46.045   3.908   7.779  0.00  0.00    +0.000 A 
ATOM     22  N   UNL     1      45.603   4.745   8.736  0.00  0.00    +0.000 NA
ENDBRANCH  14  17
ENDBRANCH   5  14
TORSDOF 3
ENDMDL
MODEL 6
REMARK VINA RESULT:    -6.323      6.127      8.824
REMARK INTER + INTRA:          -7.020
REMARK INTER:                  -6.742
REMARK INTRA:                  -0.278
REMARK UNBOUND:                 0.411
REMARK  Name = 
REMARK  3 active torsions:
REMARK  status: ('A' for Active; 'I' for Inactive)
REMARK    1  A    between atoms: C_2  and  C_4
REMARK    2  A    between atoms: N_8  and  C_9
REMARK    3  A    between atoms: C_9  and  C_10
REMARK                            x       y       z     vdW  Elec       q    Type
REMARK                         _______ _______ _______ _____ _____    ______ ____
ROOT
ATOM      1  C   UNL     1      52.434   1.642  17.772  0.00  0.00    +0.000 A 
ATOM      2  C   UNL     1      52.651   2.928  18.256  0.00  0.00    +0.000 A 
ATOM      3  C   UNL     1      51.681   3.905  18.032  0.00  0.00    +0.000 A 
ATOM      4  C   UNL     1      50.502   3.582  17.354  0.00  0.00    +0.000 A 
ATOM      5  N   UNL     1      49.539   4.607  17.251  0.00  0.00    +0.000 N 
ATOM      6  N   UNL     1      50.298   2.346  16.864  0.00  0.00    +0.000 NA
ATOM      7  C   UNL     1      51.266   1.410  17.065  0.00  0.00    +0.000 A 
ATOM      8  H   UNL     1      49.920   5.379  16.701  0.00  0.00    +0.000 HD
ENDROOT
BRANCH   1  10
ATOM      9  N   UNL     1      52.924  -0.605  18.557  0.00  0.00    +0.000 N 
ATOM     10  C   UNL     1      53.396   0.538  17.971  0.00  0.00    +0.000 C 
ATOM     11  O   UNL     1      54.558   0.625  17.597  0.00  0.00    +0.000 OA
ATOM     12  H   UNL     1      53.565  -1.387  18.597  0.00  0.00    +0.000 HD
ATOM     13  H   UNL     1      51.937  -0.808  18.637  0.00  0.00    +0.000 HD
ENDBRANCH   1  10
BRANCH   5  14
ATOM     14  C   UNL     1      48.088   4.393  16.967  0.00  0.00    +0.000 C 
ATOM     15  C   UNL     1      47.169   4.834  18.110  0.00  0.00    +0.000 C 
ATOM     16  C   UNL     1      47.184   3.404  17.683  0.00  0.00    +0.000 C 
BRANCH  14  17
ATOM     17  C   UNL     1      47.680   4.822  15.522  0.00  0.00    +0.000 A 
ATOM     18  N   UNL     1      48.279   5.921  14.994  0.00  0.00    +0.000 NA
ATOM     19  C   UNL     1      47.892   6.299  13.759  0.00  0.00    +0.000 A 
ATOM     20  C   UNL     1      46.937   5.647  13.025  0.00  0.00    +0.000 A 
ATOM     21  C   UNL     1      46.377   4.552  13.632  0.00  0.00    +0.000 A 
ATOM     22  N   UNL     1      46.723   4.127  14.861  0.00  0.00    +0.000 NA
ENDBRANCH  14  17
ENDBRANCH   5  14
TORSDOF 3
ENDMDL
MODEL 7
REMARK VINA RESULT:    -6.246      3.464      5.313
REMARK INTER + INTRA:          -6.930
REMARK INTER:                  -6.565
REMARK INTRA:                  -0.365
REMARK UNBOUND:                 0.411
REMARK  Name = 
REMARK  3 active torsions:
REMARK  status: ('A' for Active; 'I' for Inactive)
REMARK    1  A    between atoms: C_2  and  C_4
REMARK    2  A    between atoms: N_8  and  C_9
REMARK    3  A    between atoms: C_9  and  C_10
REMARK                            x       y       z     vdW  Elec       q    Type
REMARK                         _______ _______ _______ _____ _____    ______ ____
ROOT
ATOM      1  C   UNL     1      44.762   4.483  11.669  0.00  0.00    +0.000 A 
ATOM      2  C   UNL     1      44.345   5.681  11.098  0.00  0.00    +0.000 A 
ATOM      3  C   UNL     1      45.108   6.829  11.309  0.00  0.00    +0.000 A 
ATOM      4  C   UNL     1      46.285   6.763  12.060  0.00  0.00    +0.000 A 
ATOM      5  N   UNL     1      47.039   7.951  12.146  0.00  0.00    +0.000 N 
ATOM      6  N   UNL     1      46.681   5.612  12.633  0.00  0.00    +0.000 NA
ATOM      7  C   UNL     1      45.911   4.505  12.444  0.00  0.00    +0.000 A 
ATOM      8  H   UNL     1      46.495   8.667  12.629  0.00  0.00    +0.000 HD
ENDROOT
BRANCH   1  10
ATOM      9  N   UNL     1      43.746   2.490  12.620  0.00  0.00    +0.000 N 
ATOM     10  C   UNL     1      44.029   3.213  11.493  0.00  0.00    +0.000 C 
ATOM     11  O   UNL     1      43.658   2.835  10.389  0.00  0.00    +0.000 OA
ATOM     12  H   UNL     1      43.159   1.675  12.497  0.00  0.00    +0.000 HD
ATOM     13  H   UNL     1      43.802   2.887  13.548  0.00  0.00    +0.000 HD
ENDBRANCH   1  10
BRANCH   5  14
ATOM     14  C   UNL     1      48.486   8.022  12.510  0.00  0.00    +0.000 C 
ATOM     15  C   UNL     1      49.264   9.084  11.727  0.00  0.00    +0.000 C 
ATOM     16  C   UNL     1      49.646   7.647  11.603  0.00  0.00    +0.000 C 
BRANCH  14  17
ATOM     17  C   UNL     1      48.731   7.957  14.051  0.00  0.00    +0.000 A 
ATOM     18  N   UNL     1      49.425   6.896  14.538  0.00  0.00    +0.000 NA
ATOM     19  C   UNL     1      49.600   6.836  15.874  0.00  0.00    +0.000 A 
ATOM     20  C   UNL     1      49.114   7.770  16.751  0.00  0.00    +0.000 A 
ATOM     21  C   UNL     1      48.418   8.805  16.179  0.00  0.00    +0.000 A 
ATOM     22  N   UNL     1      48.214   8.918  14.854  0.00  0.00    +0.000 NA
ENDBRANCH  14  17
ENDBRANCH   5  14
TORSDOF 3
ENDMDL
MODEL 8
REMARK VINA RESULT:    -6.226      4.322      6.562
REMARK INTER + INTRA:          -6.907
REMARK INTER:                  -6.841
REMARK INTRA:                  -0.066
REMARK UNBOUND:                 0.411
REMARK  Name = 
REMARK  3 active torsions:
REMARK  status: ('A' for Active; 'I' for Inactive)
REMARK    1  A    between atoms: C_2  and  C_4
REMARK    2  A    between atoms: N_8  and  C_9
REMARK    3  A    between atoms: C_9  and  C_10
REMARK                            x       y       z     vdW  Elec       q    Type
REMARK                         _______ _______ _______ _____ _____    ______ ____
ROOT
ATOM      1  C   UNL     1      46.009   5.476  12.157  0.00  0.00    +0.000 A 
ATOM      2  C   UNL     1      45.673   4.135  12.310  0.00  0.00    +0.000 A 
ATOM      3  C   UNL     1      46.229   3.417  13.368  0.00  0.00    +0.000 A 
ATOM      4  C   UNL     1      47.088   4.048  14.272  0.00  0.00    +0.000 A 
ATOM      5  N   UNL     1      47.530   3.271  15.361  0.00  0.00    +0.000 N 
ATOM      6  N   UNL     1      47.434   5.339  14.116  0.00  0.00    +0.000 NA
ATOM      7  C   UNL     1      46.907   6.021  13.062  0.00  0.00    +0.000 A 
ATOM      8  H   UNL     1      48.089   2.488  15.017  0.00  0.00    +0.000 HD
ENDROOT
BRANCH   1  10
ATOM      9  N   UNL     1      45.321   5.749   9.843  0.00  0.00    +0.000 N 
ATOM     10  C   UNL     1      45.462   6.322  11.077  0.00  0.00    +0.000 C 
ATOM     11  O   UNL     1      45.116   7.478  11.281  0.00  0.00    +0.000 OA
ATOM     12  H   UNL     1      44.855   6.306   9.138  0.00  0.00    +0.000 HD
ATOM     13  H   UNL     1      45.347   4.748   9.702  0.00  0.00    +0.000 HD
ENDBRANCH   1  10
BRANCH   5  14
ATOM     14  C   UNL     1      48.080   3.819  16.637  0.00  0.00    +0.000 C 
ATOM     15  C   UNL     1      47.051   3.885  17.769  0.00  0.00    +0.000 C 
ATOM     16  C   UNL     1      47.686   5.141  17.274  0.00  0.00    +0.000 C 
BRANCH  14  17
ATOM     17  C   UNL     1      49.488   3.245  16.991  0.00  0.00    +0.000 A 
ATOM     18  N   UNL     1      50.424   4.108  17.464  0.00  0.00    +0.000 NA
ATOM     19  C   UNL     1      51.646   3.604  17.735  0.00  0.00    +0.000 A 
ATOM     20  C   UNL     1      51.987   2.290  17.551  0.00  0.00    +0.000 A 
ATOM     21  C   UNL     1      50.987   1.486  17.064  0.00  0.00    +0.000 A 
ATOM     22  N   UNL     1      49.751   1.933  16.778  0.00  0.00    +0.000 NA
ENDBRANCH  14  17
ENDBRANCH   5  14
TORSDOF 3
ENDMDL
MODEL 9
REMARK VINA RESULT:    -6.151      3.681      5.861
REMARK INTER + INTRA:          -6.818
REMARK INTER:                  -6.771
REMARK INTRA:                  -0.047
REMARK UNBOUND:                 0.411
REMARK  Name = 
REMARK  3 active torsions:
REMARK  status: ('A' for Active; 'I' for Inactive)
REMARK    1  A    between atoms: C_2  and  C_4
REMARK    2  A    between atoms: N_8  and  C_9
REMARK    3  A    between atoms: C_9  and  C_10
REMARK                            x       y       z     vdW  Elec       q    Type
REMARK                         _______ _______ _______ _____ _____    ______ ____
ROOT
ATOM      1  C   UNL     1      44.469   4.669  12.126  0.00  0.00    +0.000 A 
ATOM      2  C   UNL     1      45.179   3.500  11.870  0.00  0.00    +0.000 A 
ATOM      3  C   UNL     1      46.212   3.137  12.734  0.00  0.00    +0.000 A 
ATOM      4  C   UNL     1      46.505   3.924  13.851  0.00  0.00    +0.000 A 
ATOM      5  N   UNL     1      47.502   3.434  14.718  0.00  0.00    +0.000 N 
ATOM      6  N   UNL     1      45.836   5.068  14.090  0.00  0.00    +0.000 NA
ATOM      7  C   UNL     1      44.850   5.426  13.223  0.00  0.00    +0.000 A 
ATOM      8  H   UNL     1      48.394   3.392  14.222  0.00  0.00    +0.000 HD
ENDROOT
BRANCH   1  10
ATOM      9  N   UNL     1      43.557   5.146   9.925  0.00  0.00    +0.000 N 
ATOM     10  C   UNL     1      43.352   5.130  11.277  0.00  0.00    +0.000 C 
ATOM     11  O   UNL     1      42.273   5.454  11.757  0.00  0.00    +0.000 OA
ATOM     12  H   UNL     1      42.754   5.367   9.350  0.00  0.00    +0.000 HD
ATOM     13  H   UNL     1      44.320   4.650   9.485  0.00  0.00    +0.000 HD
ENDBRANCH   1  10
BRANCH   5  14
ATOM     14  C   UNL     1      47.683   3.854  16.140  0.00  0.00    +0.000 C 
ATOM     15  C   UNL     1      48.274   2.758  17.032  0.00  0.00    +0.000 C 
ATOM     16  C   UNL     1      46.916   3.301  17.329  0.00  0.00    +0.000 C 
BRANCH  14  17
ATOM     17  C   UNL     1      48.288   5.286  16.280  0.00  0.00    +0.000 A 
ATOM     18  N   UNL     1      48.159   5.915  17.477  0.00  0.00    +0.000 NA
ATOM     19  C   UNL     1      48.658   7.164  17.574  0.00  0.00    +0.000 A 
ATOM     20  C   UNL     1      49.271   7.823  16.541  0.00  0.00    +0.000 A 
ATOM     21  C   UNL     1      49.355   7.122  15.365  0.00  0.00    +0.000 A 
ATOM     22  N   UNL     1      48.877   5.874  15.210  0.00  0.00    +0.000 NA
ENDBRANCH  14  17
ENDBRANCH   5  14
TORSDOF 3
ENDMDL
