MODEL 1
REMARK VINA RESULT:    -7.847      0.000      0.000
REMARK INTER + INTRA:         -13.248
REMARK INTER:                 -11.746
REMARK INTRA:                  -1.501
REMARK UNBOUND:                -1.501
REMARK  Name = 
REMARK  11 active torsions:
REMARK  status: ('A' for Active; 'I' for Inactive)
REMARK    1  A    between atoms: C_1  and  C_2
REMARK    2  A    between atoms: C_2  and  C_3
REMARK    3  A    between atoms: C_3  and  C_4
REMARK    4  A    between atoms: C_4  and  N_5
REMARK    5  A    between atoms: C_4  and  C_19
REMARK    6  A    between atoms: C_6  and  C_8
REMARK    7  A    between atoms: N_14  and  C_15
REMARK    8  A    between atoms: C_22  and  C_23
REMARK    9  A    between atoms: C_23  and  N_24
REMARK   10  A    between atoms: C_23  and  C_25
REMARK   11  A    between atoms: C_25  and  C_26
REMARK                            x       y       z     vdW  Elec       q    Type
REMARK                         _______ _______ _______ _____ _____    ______ ____
ROOT
ATOM      1  C   UNL     1      47.527   7.373  12.828  0.00  0.00    +0.000 C 
ENDROOT
BRANCH   1   2
ATOM      2  C   UNL     1      46.654   6.273  12.270  0.00  0.00    +0.000 A 
ATOM      3  C   UNL     1      46.005   6.348  11.038  0.00  0.00    +0.000 A 
ATOM      4  C   UNL     1      45.229   5.287  10.586  0.00  0.00    +0.000 A 
ATOM      5  C   UNL     1      45.125   4.148  11.375  0.00  0.00    +0.000 A 
ATOM      6  N   UNL     1      45.759   4.036  12.570  0.00  0.00    +0.000 NA
ATOM      7  C   UNL     1      46.491   5.092  12.990  0.00  0.00    +0.000 A 
BRANCH   5   8
ATOM      8  C   UNL     1      44.312   2.946  10.914  0.00  0.00    +0.000 C 
BRANCH   8   9
ATOM      9  N   UNL     1      42.910   3.080  11.381  0.00  0.00    +0.000 NA
ATOM     10  H   UNL     1      42.549   2.144  11.577  0.00  0.00    +0.000 HD
ATOM     11  H   UNL     1      42.365   3.394  10.575  0.00  0.00    +0.000 HD
ENDBRANCH   8   9
BRANCH   8  12
ATOM     12  C   UNL     1      44.381   2.723   9.388  0.00  0.00    +0.000 C 
BRANCH  12  13
ATOM     13  C   UNL     1      45.779   2.421   8.831  0.00  0.00    +0.000 C 
ATOM     14  C   UNL     1      46.067   3.178   7.536  0.00  0.00    +0.000 C 
ATOM     15  C   UNL     1      47.190   2.372   6.918  0.00  0.00    +0.000 C 
ATOM     16  C   UNL     1      46.928   0.943   7.370  0.00  0.00    +0.000 C 
ATOM     17  N   UNL     1      45.973   1.011   8.479  0.00  0.00    +0.000 NA
ATOM     18  H   UNL     1      46.273   0.451   9.273  0.00  0.00    +0.000 HD
ENDBRANCH  12  13
ENDBRANCH   8  12
ENDBRANCH   5   8
ENDBRANCH   1   2
BRANCH   1  19
ATOM     19  N   UNL     1      48.418   6.796  13.816  0.00  0.00    +0.000 N 
ATOM     20  C   UNL     1      48.769   7.446  14.967  0.00  0.00    +0.000 C 
ATOM     21  O   UNL     1      48.265   8.528  15.304  0.00  0.00    +0.000 OA
ATOM     22  H   UNL     1      48.860   5.914  13.590  0.00  0.00    +0.000 HD
BRANCH  20  23
ATOM     23  C   UNL     1      49.724   6.740  15.809  0.00  0.00    +0.000 A 
ATOM     24  C   UNL     1      51.033   7.163  15.987  0.00  0.00    +0.000 A 
ATOM     25  S   UNL     1      51.905   6.187  17.090  0.00  0.00    +0.000 S 
ATOM     26  C   UNL     1      50.564   5.168  17.335  0.00  0.00    +0.000 A 
ATOM     27  N   UNL     1      50.628   4.118  18.188  0.00  0.00    +0.000 NA
ATOM     28  C   UNL     1      49.534   3.433  18.276  0.00  0.00    +0.000 A 
ATOM     29  N   UNL     1      48.370   3.681  17.579  0.00  0.00    +0.000 N 
ATOM     30  C   UNL     1      47.227   2.805  17.730  0.00  0.00    +0.000 C 
ATOM     31  C   UNL     1      48.293   4.703  16.642  0.00  0.00    +0.000 A 
ATOM     32  O   UNL     1      47.302   4.879  15.933  0.00  0.00    +0.000 OA
ATOM     33  C   UNL     1      49.477   5.544  16.576  0.00  0.00    +0.000 A 
ENDBRANCH  20  23
ENDBRANCH   1  19
BRANCH   1  34
ATOM     34  C   UNL     1      48.315   8.173  11.767  0.00  0.00    +0.000 C 
BRANCH  34  36
ATOM     35  C   UNL     1      46.658  10.031  12.163  0.00  0.00    +0.000 C 
ATOM     36  C   UNL     1      48.116   9.688  11.902  0.00  0.00    +0.000 C 
ENDBRANCH  34  36
ENDBRANCH   1  34
TORSDOF 9
ENDMDL
MODEL 2
REMARK VINA RESULT:    -7.790      0.882      1.265
REMARK INTER + INTRA:         -13.162
REMARK INTER:                 -11.603
REMARK INTRA:                  -1.560
REMARK UNBOUND:                -1.501
REMARK  Name = 
REMARK  11 active torsions:
REMARK  status: ('A' for Active; 'I' for Inactive)
REMARK    1  A    between atoms: C_1  and  C_2
REMARK    2  A    between atoms: C_2  and  C_3
REMARK    3  A    between atoms: C_3  and  C_4
REMARK    4  A    between atoms: C_4  and  N_5
REMARK    5  A    between atoms: C_4  and  C_19
REMARK    6  A    between atoms: C_6  and  C_8
REMARK    7  A    between atoms: N_14  and  C_15
REMARK    8  A    between atoms: C_22  and  C_23
REMARK    9  A    between atoms: C_23  and  N_24
REMARK   10  A    between atoms: C_23  and  C_25
REMARK   11  A    between atoms: C_25  and  C_26
REMARK                            x       y       z     vdW  Elec       q    Type
REMARK                         _______ _______ _______ _____ _____    ______ ____
ROOT
ATOM      1  C   UNL     1      47.210   7.373  13.213  0.00  0.00    +0.000 C 
ENDROOT
BRANCH   1   2
ATOM      2  C   UNL     1      46.497   6.159  12.663  0.00  0.00    +0.000 A 
ATOM      3  C   UNL     1      46.423   4.935  13.330  0.00  0.00    +0.000 A 
ATOM      4  C   UNL     1      45.735   3.868  12.766  0.00  0.00    +0.000 A 
ATOM      5  C   UNL     1      45.111   4.046  11.537  0.00  0.00    +0.000 A 
ATOM      6  N   UNL     1      45.148   5.228  10.872  0.00  0.00    +0.000 NA
ATOM      7  C   UNL     1      45.840   6.242  11.438  0.00  0.00    +0.000 A 
BRANCH   5   8
ATOM      8  C   UNL     1      44.320   2.919  10.889  0.00  0.00    +0.000 C 
BRANCH   8   9
ATOM      9  N   UNL     1      42.900   2.993  11.314  0.00  0.00    +0.000 NA
ATOM     10  H   UNL     1      42.861   2.838  12.323  0.00  0.00    +0.000 HD
ATOM     11  H   UNL     1      42.436   2.173  10.917  0.00  0.00    +0.000 HD
ENDBRANCH   8   9
BRANCH   8  12
ATOM     12  C   UNL     1      44.449   2.900   9.350  0.00  0.00    +0.000 C 
BRANCH  12  13
ATOM     13  C   UNL     1      45.836   2.520   8.813  0.00  0.00    +0.000 C 
ATOM     14  C   UNL     1      46.184   3.260   7.523  0.00  0.00    +0.000 C 
ATOM     15  C   UNL     1      47.270   2.393   6.920  0.00  0.00    +0.000 C 
ATOM     16  C   UNL     1      46.921   0.981   7.366  0.00  0.00    +0.000 C 
ATOM     17  N   UNL     1      45.956   1.102   8.462  0.00  0.00    +0.000 NA
ATOM     18  H   UNL     1      46.213   0.525   9.260  0.00  0.00    +0.000 HD
ENDBRANCH  12  13
ENDBRANCH   8  12
ENDBRANCH   5   8
ENDBRANCH   1   2
BRANCH   1  19
ATOM     19  N   UNL     1      48.351   6.924  13.987  0.00  0.00    +0.000 N 
ATOM     20  C   UNL     1      48.837   7.618  15.060  0.00  0.00    +0.000 C 
ATOM     21  O   UNL     1      48.272   8.622  15.520  0.00  0.00    +0.000 OA
ATOM     22  H   UNL     1      48.852   6.110  13.654  0.00  0.00    +0.000 HD
BRANCH  20  23
ATOM     23  C   UNL     1      50.028   7.050  15.676  0.00  0.00    +0.000 A 
ATOM     24  C   UNL     1      51.300   7.568  15.484  0.00  0.00    +0.000 A 
ATOM     25  S   UNL     1      52.498   6.749  16.390  0.00  0.00    +0.000 S 
ATOM     26  C   UNL     1      51.352   5.672  17.038  0.00  0.00    +0.000 A 
ATOM     27  N   UNL     1      51.714   4.705  17.914  0.00  0.00    +0.000 NA
ATOM     28  C   UNL     1      50.738   3.961  18.325  0.00  0.00    +0.000 A 
ATOM     29  N   UNL     1      49.420   4.074  17.935  0.00  0.00    +0.000 N 
ATOM     30  C   UNL     1      48.429   3.143  18.432  0.00  0.00    +0.000 C 
ATOM     31  C   UNL     1      49.026   5.005  16.982  0.00  0.00    +0.000 A 
ATOM     32  O   UNL     1      47.878   5.055  16.540  0.00  0.00    +0.000 OA
ATOM     33  C   UNL     1      50.082   5.910  16.559  0.00  0.00    +0.000 A 
ENDBRANCH  20  23
ENDBRANCH   1  19
BRANCH   1  34
ATOM     34  C   UNL     1      47.632   8.411  12.149  0.00  0.00    +0.000 C 
BRANCH  34  36
ATOM     35  C   UNL     1      49.954   9.294  11.719  0.00  0.00    +0.000 C 
ATOM     36  C   UNL     1      49.012   8.114  11.549  0.00  0.00    +0.000 C 
ENDBRANCH  34  36
ENDBRANCH   1  34
TORSDOF 9
ENDMDL
MODEL 3
REMARK VINA RESULT:    -7.417      2.029      2.379
REMARK INTER + INTRA:         -12.603
REMARK INTER:                 -10.967
REMARK INTRA:                  -1.636
REMARK UNBOUND:                -1.501
REMARK  Name = 
REMARK  11 active torsions:
REMARK  status: ('A' for Active; 'I' for Inactive)
REMARK    1  A    between atoms: C_1  and  C_2
REMARK    2  A    between atoms: C_2  and  C_3
REMARK    3  A    between atoms: C_3  and  C_4
REMARK    4  A    between atoms: C_4  and  N_5
REMARK    5  A    between atoms: C_4  and  C_19
REMARK    6  A    between atoms: C_6  and  C_8
REMARK    7  A    between atoms: N_14  and  C_15
REMARK    8  A    between atoms: C_22  and  C_23
REMARK    9  A    between atoms: C_23  and  N_24
REMARK   10  A    between atoms: C_23  and  C_25
REMARK   11  A    between atoms: C_25  and  C_26
REMARK                            x       y       z     vdW  Elec       q    Type
REMARK                         _______ _______ _______ _____ _____    ______ ____
ROOT
ATOM      1  C   UNL     1      48.099   7.610  13.455  0.00  0.00    +0.000 C 
ENDROOT
BRANCH   1   2
ATOM      2  C   UNL     1      47.093   6.665  12.839  0.00  0.00    +0.000 A 
ATOM      3  C   UNL     1      46.632   5.507  13.466  0.00  0.00    +0.000 A 
ATOM      4  C   UNL     1      45.694   4.695  12.840  0.00  0.00    +0.000 A 
ATOM      5  C   UNL     1      45.214   5.065  11.589  0.00  0.00    +0.000 A 
ATOM      6  N   UNL     1      45.628   6.194  10.961  0.00  0.00    +0.000 NA
ATOM      7  C   UNL     1      46.555   6.953  11.588  0.00  0.00    +0.000 A 
BRANCH   5   8
ATOM      8  C   UNL     1      44.165   4.227  10.873  0.00  0.00    +0.000 C 
BRANCH   8   9
ATOM      9  N   UNL     1      43.459   5.058   9.867  0.00  0.00    +0.000 NA
ATOM     10  H   UNL     1      42.480   4.765   9.841  0.00  0.00    +0.000 HD
ATOM     11  H   UNL     1      43.827   4.783   8.953  0.00  0.00    +0.000 HD
ENDBRANCH   8   9
BRANCH   8  12
ATOM     12  C   UNL     1      44.748   2.946  10.238  0.00  0.00    +0.000 C 
BRANCH  12  13
ATOM     13  C   UNL     1      45.084   3.048   8.744  0.00  0.00    +0.000 C 
ATOM     14  C   UNL     1      45.981   1.907   8.269  0.00  0.00    +0.000 C 
ATOM     15  C   UNL     1      46.591   2.465   6.999  0.00  0.00    +0.000 C 
ATOM     16  C   UNL     1      46.686   3.962   7.249  0.00  0.00    +0.000 C 
ATOM     17  N   UNL     1      45.827   4.263   8.397  0.00  0.00    +0.000 NA
ATOM     18  H   UNL     1      45.213   5.054   8.215  0.00  0.00    +0.000 HD
ENDBRANCH  12  13
ENDBRANCH   8  12
ENDBRANCH   5   8
ENDBRANCH   1   2
BRANCH   1  19
ATOM     19  N   UNL     1      47.980   7.530  14.898  0.00  0.00    +0.000 N 
ATOM     20  C   UNL     1      48.564   8.434  15.741  0.00  0.00    +0.000 C 
ATOM     21  O   UNL     1      49.144   9.452  15.333  0.00  0.00    +0.000 OA
ATOM     22  H   UNL     1      47.518   6.717  15.286  0.00  0.00    +0.000 HD
BRANCH  20  23
ATOM     23  C   UNL     1      48.392   8.158  17.160  0.00  0.00    +0.000 A 
ATOM     24  C   UNL     1      47.946   9.108  18.067  0.00  0.00    +0.000 A 
ATOM     25  S   UNL     1      47.764   8.485  19.651  0.00  0.00    +0.000 S 
ATOM     26  C   UNL     1      48.299   6.944  19.166  0.00  0.00    +0.000 A 
ATOM     27  N   UNL     1      48.371   5.918  20.046  0.00  0.00    +0.000 NA
ATOM     28  C   UNL     1      48.792   4.805  19.538  0.00  0.00    +0.000 A 
ATOM     29  N   UNL     1      49.169   4.610  18.226  0.00  0.00    +0.000 N 
ATOM     30  C   UNL     1      49.672   3.324  17.793  0.00  0.00    +0.000 C 
ATOM     31  C   UNL     1      49.178   5.658  17.314  0.00  0.00    +0.000 A 
ATOM     32  O   UNL     1      49.608   5.535  16.167  0.00  0.00    +0.000 OA
ATOM     33  C   UNL     1      48.634   6.904  17.830  0.00  0.00    +0.000 A 
ENDBRANCH  20  23
ENDBRANCH   1  19
BRANCH   1  34
ATOM     34  C   UNL     1      49.559   7.385  13.003  0.00  0.00    +0.000 C 
BRANCH  34  36
ATOM     35  C   UNL     1      49.213   9.567  11.787  0.00  0.00    +0.000 C 
ATOM     36  C   UNL     1      49.934   8.229  11.777  0.00  0.00    +0.000 C 
ENDBRANCH  34  36
ENDBRANCH   1  34
TORSDOF 9
ENDMDL
MODEL 4
REMARK VINA RESULT:    -7.364      2.223      4.745
REMARK INTER + INTRA:         -12.525
REMARK INTER:                 -10.738
REMARK INTRA:                  -1.788
REMARK UNBOUND:                -1.501
REMARK  Name = 
REMARK  11 active torsions:
REMARK  status: ('A' for Active; 'I' for Inactive)
REMARK    1  A    between atoms: C_1  and  C_2
REMARK    2  A    between atoms: C_2  and  C_3
REMARK    3  A    between atoms: C_3  and  C_4
REMARK    4  A    between atoms: C_4  and  N_5
REMARK    5  A    between atoms: C_4  and  C_19
REMARK    6  A    between atoms: C_6  and  C_8
REMARK    7  A    between atoms: N_14  and  C_15
REMARK    8  A    between atoms: C_22  and  C_23
REMARK    9  A    between atoms: C_23  and  N_24
REMARK   10  A    between atoms: C_23  and  C_25
REMARK   11  A    between atoms: C_25  and  C_26
REMARK                            x       y       z     vdW  Elec       q    Type
REMARK                         _______ _______ _______ _____ _____    ______ ____
ROOT
ATOM      1  C   UNL     1      47.505   4.710  15.179  0.00  0.00    +0.000 C 
ENDROOT
BRANCH   1   2
ATOM      2  C   UNL     1      46.758   4.540  13.877  0.00  0.00    +0.000 A 
ATOM      3  C   UNL     1      46.295   3.311  13.404  0.00  0.00    +0.000 A 
ATOM      4  C   UNL     1      45.601   3.237  12.202  0.00  0.00    +0.000 A 
ATOM      5  C   UNL     1      45.365   4.407  11.490  0.00  0.00    +0.000 A 
ATOM      6  N   UNL     1      45.786   5.619  11.932  0.00  0.00    +0.000 NA
ATOM      7  C   UNL     1      46.474   5.656  13.095  0.00  0.00    +0.000 A 
BRANCH   5   8
ATOM      8  C   UNL     1      44.586   4.385  10.183  0.00  0.00    +0.000 C 
BRANCH   8   9
ATOM      9  N   UNL     1      43.357   5.206  10.318  0.00  0.00    +0.000 NA
ATOM     10  H   UNL     1      43.018   5.430   9.380  0.00  0.00    +0.000 HD
ATOM     11  H   UNL     1      43.651   6.108  10.700  0.00  0.00    +0.000 HD
ENDBRANCH   8   9
BRANCH   8  12
ATOM     12  C   UNL     1      45.431   4.830   8.971  0.00  0.00    +0.000 C 
BRANCH  12  13
ATOM     13  C   UNL     1      45.715   3.736   7.932  0.00  0.00    +0.000 C 
ATOM     14  C   UNL     1      45.977   2.376   8.574  0.00  0.00    +0.000 C 
ATOM     15  C   UNL     1      46.720   1.627   7.487  0.00  0.00    +0.000 C 
ATOM     16  C   UNL     1      47.494   2.706   6.744  0.00  0.00    +0.000 C 
ATOM     17  N   UNL     1      46.912   3.995   7.127  0.00  0.00    +0.000 NA
ATOM     18  H   UNL     1      46.717   4.579   6.317  0.00  0.00    +0.000 HD
ENDBRANCH  12  13
ENDBRANCH   8  12
ENDBRANCH   5   8
ENDBRANCH   1   2
BRANCH   1  19
ATOM     19  N   UNL     1      47.796   6.119  15.361  0.00  0.00    +0.000 N 
ATOM     20  C   UNL     1      48.962   6.570  15.916  0.00  0.00    +0.000 C 
ATOM     21  O   UNL     1      49.903   5.815  16.201  0.00  0.00    +0.000 OA
ATOM     22  H   UNL     1      47.061   6.781  15.147  0.00  0.00    +0.000 HD
BRANCH  20  23
ATOM     23  C   UNL     1      49.051   8.014  16.079  0.00  0.00    +0.000 A 
ATOM     24  C   UNL     1      48.898   8.649  17.302  0.00  0.00    +0.000 A 
ATOM     25  S   UNL     1      49.130  10.342  17.210  0.00  0.00    +0.000 S 
ATOM     26  C   UNL     1      49.417  10.267  15.534  0.00  0.00    +0.000 A 
ATOM     27  N   UNL     1      49.699  11.383  14.821  0.00  0.00    +0.000 NA
ATOM     28  C   UNL     1      49.896  11.176  13.559  0.00  0.00    +0.000 A 
ATOM     29  N   UNL     1      49.824   9.955  12.922  0.00  0.00    +0.000 N 
ATOM     30  C   UNL     1      50.016   9.865  11.490  0.00  0.00    +0.000 C 
ATOM     31  C   UNL     1      49.464   8.802  13.609  0.00  0.00    +0.000 A 
ATOM     32  O   UNL     1      49.291   7.722  13.045  0.00  0.00    +0.000 OA
ATOM     33  C   UNL     1      49.314   8.983  15.043  0.00  0.00    +0.000 A 
ENDBRANCH  20  23
ENDBRANCH   1  19
BRANCH   1  34
ATOM     34  C   UNL     1      46.790   4.125  16.417  0.00  0.00    +0.000 C 
BRANCH  34  36
ATOM     35  C   UNL     1      48.655   2.430  16.481  0.00  0.00    +0.000 C 
ATOM     36  C   UNL     1      47.731   3.306  17.310  0.00  0.00    +0.000 C 
ENDBRANCH  34  36
ENDBRANCH   1  34
TORSDOF 9
ENDMDL
MODEL 5
REMARK VINA RESULT:    -7.295      2.864      4.112
REMARK INTER + INTRA:         -12.422
REMARK INTER:                 -10.965
REMARK INTRA:                  -1.457
REMARK UNBOUND:                -1.501
REMARK  Name = 
REMARK  11 active torsions:
REMARK  status: ('A' for Active; 'I' for Inactive)
REMARK    1  A    between atoms: C_1  and  C_2
REMARK    2  A    between atoms: C_2  and  C_3
REMARK    3  A    between atoms: C_3  and  C_4
REMARK    4  A    between atoms: C_4  and  N_5
REMARK    5  A    between atoms: C_4  and  C_19
REMARK    6  A    between atoms: C_6  and  C_8
REMARK    7  A    between atoms: N_14  and  C_15
REMARK    8  A    between atoms: C_22  and  C_23
REMARK    9  A    between atoms: C_23  and  N_24
REMARK   10  A    between atoms: C_23  and  C_25
REMARK   11  A    between atoms: C_25  and  C_26
REMARK                            x       y       z     vdW  Elec       q    Type
REMARK                         _______ _______ _______ _____ _____    ______ ____
ROOT
ATOM      1  C   UNL     1      47.709   4.891  15.070  0.00  0.00    +0.000 C 
ENDROOT
BRANCH   1   2
ATOM      2  C   UNL     1      46.919   4.853  13.782  0.00  0.00    +0.000 A 
ATOM      3  C   UNL     1      46.764   5.951  12.935  0.00  0.00    +0.000 A 
ATOM      4  C   UNL     1      46.034   5.833  11.759  0.00  0.00    +0.000 A 
ATOM      5  C   UNL     1      45.475   4.602  11.435  0.00  0.00    +0.000 A 
ATOM      6  N   UNL     1      45.623   3.511  12.228  0.00  0.00    +0.000 NA
ATOM      7  C   UNL     1      46.324   3.662  13.375  0.00  0.00    +0.000 A 
BRANCH   5   8
ATOM      8  C   UNL     1      44.691   4.412  10.145  0.00  0.00    +0.000 C 
BRANCH   8   9
ATOM      9  N   UNL     1      43.431   5.193  10.204  0.00  0.00    +0.000 NA
ATOM     10  H   UNL     1      43.136   5.250  11.181  0.00  0.00    +0.000 HD
ATOM     11  H   UNL     1      42.711   4.616   9.760  0.00  0.00    +0.000 HD
ENDBRANCH   8   9
BRANCH   8  12
ATOM     12  C   UNL     1      45.513   4.758   8.885  0.00  0.00    +0.000 C 
BRANCH  12  13
ATOM     13  C   UNL     1      45.775   3.586   7.929  0.00  0.00    +0.000 C 
ATOM     14  C   UNL     1      45.874   2.249   8.660  0.00  0.00    +0.000 C 
ATOM     15  C   UNL     1      46.626   1.380   7.673  0.00  0.00    +0.000 C 
ATOM     16  C   UNL     1      47.539   2.347   6.935  0.00  0.00    +0.000 C 
ATOM     17  N   UNL     1      47.044   3.700   7.205  0.00  0.00    +0.000 NA
ATOM     18  H   UNL     1      46.957   4.249   6.353  0.00  0.00    +0.000 HD
ENDBRANCH  12  13
ENDBRANCH   8  12
ENDBRANCH   5   8
ENDBRANCH   1   2
BRANCH   1  19
ATOM     19  N   UNL     1      47.849   6.274  15.482  0.00  0.00    +0.000 N 
ATOM     20  C   UNL     1      49.052   6.828  15.824  0.00  0.00    +0.000 C 
ATOM     21  O   UNL     1      50.127   6.222  15.698  0.00  0.00    +0.000 OA
ATOM     22  H   UNL     1      47.002   6.815  15.603  0.00  0.00    +0.000 HD
BRANCH  20  23
ATOM     23  C   UNL     1      48.991   8.211  16.275  0.00  0.00    +0.000 A 
ATOM     24  C   UNL     1      49.335   9.285  15.468  0.00  0.00    +0.000 A 
ATOM     25  S   UNL     1      49.093  10.797  16.233  0.00  0.00    +0.000 S 
ATOM     26  C   UNL     1      48.548  10.051  17.662  0.00  0.00    +0.000 A 
ATOM     27  N   UNL     1      48.160  10.784  18.731  0.00  0.00    +0.000 NA
ATOM     28  C   UNL     1      47.768  10.084  19.747  0.00  0.00    +0.000 A 
ATOM     29  N   UNL     1      47.737   8.707  19.812  0.00  0.00    +0.000 N 
ATOM     30  C   UNL     1      47.323   8.042  21.029  0.00  0.00    +0.000 C 
ATOM     31  C   UNL     1      48.199   7.924  18.761  0.00  0.00    +0.000 A 
ATOM     32  O   UNL     1      48.280   6.698  18.834  0.00  0.00    +0.000 OA
ATOM     33  C   UNL     1      48.571   8.676  17.574  0.00  0.00    +0.000 A 
ENDBRANCH  20  23
ENDBRANCH   1  19
BRANCH   1  34
ATOM     34  C   UNL     1      47.129   4.026  16.210  0.00  0.00    +0.000 C 
BRANCH  34  36
ATOM     35  C   UNL     1      48.581   3.243  18.117  0.00  0.00    +0.000 C 
ATOM     36  C   UNL     1      48.114   2.956  16.700  0.00  0.00    +0.000 C 
ENDBRANCH  34  36
ENDBRANCH   1  34
TORSDOF 9
ENDMDL
MODEL 6
REMARK VINA RESULT:    -7.244      1.612      2.529
REMARK INTER + INTRA:         -12.344
REMARK INTER:                 -10.812
REMARK INTRA:                  -1.532
REMARK UNBOUND:                -1.501
REMARK  Name = 
REMARK  11 active torsions:
REMARK  status: ('A' for Active; 'I' for Inactive)
REMARK    1  A    between atoms: C_1  and  C_2
REMARK    2  A    between atoms: C_2  and  C_3
REMARK    3  A    between atoms: C_3  and  C_4
REMARK    4  A    between atoms: C_4  and  N_5
REMARK    5  A    between atoms: C_4  and  C_19
REMARK    6  A    between atoms: C_6  and  C_8
REMARK    7  A    between atoms: N_14  and  C_15
REMARK    8  A    between atoms: C_22  and  C_23
REMARK    9  A    between atoms: C_23  and  N_24
REMARK   10  A    between atoms: C_23  and  C_25
REMARK   11  A    between atoms: C_25  and  C_26
REMARK                            x       y       z     vdW  Elec       q    Type
REMARK                         _______ _______ _______ _____ _____    ______ ____
ROOT
ATOM      1  C   UNL     1      47.695   7.304  13.596  0.00  0.00    +0.000 C 
ENDROOT
BRANCH   1   2
ATOM      2  C   UNL     1      46.810   6.415  12.753  0.00  0.00    +0.000 A 
ATOM      3  C   UNL     1      46.567   6.627  11.395  0.00  0.00    +0.000 A 
ATOM      4  C   UNL     1      45.751   5.756  10.683  0.00  0.00    +0.000 A 
ATOM      5  C   UNL     1      45.198   4.665  11.342  0.00  0.00    +0.000 A 
ATOM      6  N   UNL     1      45.430   4.420  12.657  0.00  0.00    +0.000 NA
ATOM      7  C   UNL     1      46.213   5.296  13.326  0.00  0.00    +0.000 A 
BRANCH   5   8
ATOM      8  C   UNL     1      44.322   3.664  10.603  0.00  0.00    +0.000 C 
BRANCH   8   9
ATOM      9  N   UNL     1      43.035   3.495  11.322  0.00  0.00    +0.000 NA
ATOM     10  H   UNL     1      42.311   3.278  10.634  0.00  0.00    +0.000 HD
ATOM     11  H   UNL     1      42.777   4.420  11.675  0.00  0.00    +0.000 HD
ENDBRANCH   8   9
BRANCH   8  12
ATOM     12  C   UNL     1      44.096   4.040   9.122  0.00  0.00    +0.000 C 
BRANCH  12  13
ATOM     13  C   UNL     1      44.888   3.207   8.105  0.00  0.00    +0.000 C 
ATOM     14  C   UNL     1      45.543   1.982   8.739  0.00  0.00    +0.000 C 
ATOM     15  C   UNL     1      46.639   1.638   7.752  0.00  0.00    +0.000 C 
ATOM     16  C   UNL     1      47.054   2.977   7.162  0.00  0.00    +0.000 C 
ATOM     17  N   UNL     1      46.000   3.939   7.493  0.00  0.00    +0.000 NA
ATOM     18  H   UNL     1      45.710   4.479   6.681  0.00  0.00    +0.000 HD
ENDBRANCH  12  13
ENDBRANCH   8  12
ENDBRANCH   5   8
ENDBRANCH   1   2
BRANCH   1  19
ATOM     19  N   UNL     1      48.216   6.521  14.699  0.00  0.00    +0.000 N 
ATOM     20  C   UNL     1      48.598   7.077  15.888  0.00  0.00    +0.000 C 
ATOM     21  O   UNL     1      48.423   8.276  16.153  0.00  0.00    +0.000 OA
ATOM     22  H   UNL     1      48.382   5.536  14.536  0.00  0.00    +0.000 HD
BRANCH  20  23
ATOM     23  C   UNL     1      49.158   6.145  16.856  0.00  0.00    +0.000 A 
ATOM     24  C   UNL     1      48.381   5.429  17.755  0.00  0.00    +0.000 A 
ATOM     25  S   UNL     1      49.297   4.352  18.719  0.00  0.00    +0.000 S 
ATOM     26  C   UNL     1      50.750   4.834  17.977  0.00  0.00    +0.000 A 
ATOM     27  N   UNL     1      51.935   4.283  18.331  0.00  0.00    +0.000 NA
ATOM     28  C   UNL     1      52.955   4.744  17.682  0.00  0.00    +0.000 A 
ATOM     29  N   UNL     1      52.917   5.724  16.712  0.00  0.00    +0.000 N 
ATOM     30  C   UNL     1      54.141   6.189  16.095  0.00  0.00    +0.000 C 
ATOM     31  C   UNL     1      51.730   6.363  16.377  0.00  0.00    +0.000 A 
ATOM     32  O   UNL     1      51.686   7.310  15.592  0.00  0.00    +0.000 OA
ATOM     33  C   UNL     1      50.552   5.814  17.028  0.00  0.00    +0.000 A 
ENDBRANCH  20  23
ENDBRANCH   1  19
BRANCH   1  34
ATOM     34  C   UNL     1      48.835   8.003  12.822  0.00  0.00    +0.000 C 
BRANCH  34  36
ATOM     35  C   UNL     1      47.541  10.040  12.090  0.00  0.00    +0.000 C 
ATOM     36  C   UNL     1      48.736   9.533  12.880  0.00  0.00    +0.000 C 
ENDBRANCH  34  36
ENDBRANCH   1  34
TORSDOF 9
ENDMDL
MODEL 7
REMARK VINA RESULT:    -6.532      2.921      8.082
REMARK INTER + INTRA:         -11.279
REMARK INTER:                 -10.437
REMARK INTRA:                  -0.841
REMARK UNBOUND:                -1.501
REMARK  Name = 
REMARK  11 active torsions:
REMARK  status: ('A' for Active; 'I' for Inactive)
REMARK    1  A    between atoms: C_1  and  C_2
REMARK    2  A    between atoms: C_2  and  C_3
REMARK    3  A    between atoms: C_3  and  C_4
REMARK    4  A    between atoms: C_4  and  N_5
REMARK    5  A    between atoms: C_4  and  C_19
REMARK    6  A    between atoms: C_6  and  C_8
REMARK    7  A    between atoms: N_14  and  C_15
REMARK    8  A    between atoms: C_22  and  C_23
REMARK    9  A    between atoms: C_23  and  N_24
REMARK   10  A    between atoms: C_23  and  C_25
REMARK   11  A    between atoms: C_25  and  C_26
REMARK                            x       y       z     vdW  Elec       q    Type
REMARK                         _______ _______ _______ _____ _____    ______ ____
ROOT
ATOM      1  C   UNL     1      46.903   7.781  12.690  0.00  0.00    +0.000 C 
ENDROOT
BRANCH   1   2
ATOM      2  C   UNL     1      47.749   7.577  13.926  0.00  0.00    +0.000 A 
ATOM      3  C   UNL     1      48.270   8.622  14.690  0.00  0.00    +0.000 A 
ATOM      4  C   UNL     1      49.028   8.354  15.823  0.00  0.00    +0.000 A 
ATOM      5  C   UNL     1      49.243   7.030  16.189  0.00  0.00    +0.000 A 
ATOM      6  N   UNL     1      48.735   5.992  15.478  0.00  0.00    +0.000 NA
ATOM      7  C   UNL     1      48.017   6.285  14.371  0.00  0.00    +0.000 A 
BRANCH   5   8
ATOM      8  C   UNL     1      50.041   6.682  17.438  0.00  0.00    +0.000 C 
BRANCH   8   9
ATOM      9  N   UNL     1      49.121   6.235  18.513  0.00  0.00    +0.000 NA
ATOM     10  H   UNL     1      49.637   5.609  19.134  0.00  0.00    +0.000 HD
ATOM     11  H   UNL     1      48.426   5.630  18.068  0.00  0.00    +0.000 HD
ENDBRANCH   8   9
BRANCH   8  12
ATOM     12  C   UNL     1      51.148   5.639  17.173  0.00  0.00    +0.000 C 
BRANCH  12  13
ATOM     13  C   UNL     1      50.859   4.226  17.698  0.00  0.00    +0.000 C 
ATOM     14  C   UNL     1      52.074   3.306  17.595  0.00  0.00    +0.000 C 
ATOM     15  C   UNL     1      51.455   1.925  17.648  0.00  0.00    +0.000 C 
ATOM     16  C   UNL     1      50.092   2.093  16.993  0.00  0.00    +0.000 C 
ATOM     17  N   UNL     1      49.810   3.530  16.948  0.00  0.00    +0.000 NA
ATOM     18  H   UNL     1      48.878   3.746  17.293  0.00  0.00    +0.000 HD
ENDBRANCH  12  13
ENDBRANCH   8  12
ENDBRANCH   5   8
ENDBRANCH   1   2
BRANCH   1  19
ATOM     19  N   UNL     1      46.286   6.516  12.341  0.00  0.00    +0.000 N 
ATOM     20  C   UNL     1      45.165   6.427  11.564  0.00  0.00    +0.000 C 
ATOM     21  O   UNL     1      44.657   7.412  11.008  0.00  0.00    +0.000 OA
ATOM     22  H   UNL     1      46.660   5.679  12.770  0.00  0.00    +0.000 HD
BRANCH  20  23
ATOM     23  C   UNL     1      44.650   5.079  11.373  0.00  0.00    +0.000 A 
ATOM     24  C   UNL     1      43.872   4.424  12.316  0.00  0.00    +0.000 A 
ATOM     25  S   UNL     1      43.343   2.883  11.792  0.00  0.00    +0.000 S 
ATOM     26  C   UNL     1      44.160   3.046  10.308  0.00  0.00    +0.000 A 
ATOM     27  N   UNL     1      44.110   2.071   9.370  0.00  0.00    +0.000 NA
ATOM     28  C   UNL     1      44.776   2.331   8.291  0.00  0.00    +0.000 A 
ATOM     29  N   UNL     1      45.511   3.473   8.054  0.00  0.00    +0.000 N 
ATOM     30  C   UNL     1      46.255   3.621   6.822  0.00  0.00    +0.000 C 
ATOM     31  C   UNL     1      45.645   4.460   9.023  0.00  0.00    +0.000 A 
ATOM     32  O   UNL     1      46.378   5.437   8.876  0.00  0.00    +0.000 OA
ATOM     33  C   UNL     1      44.845   4.238  10.217  0.00  0.00    +0.000 A 
ENDBRANCH  20  23
ENDBRANCH   1  19
BRANCH   1  34
ATOM     34  C   UNL     1      45.847   8.902  12.807  0.00  0.00    +0.000 C 
BRANCH  34  36
ATOM     35  C   UNL     1      45.039  10.925  11.537  0.00  0.00    +0.000 C 
ATOM     36  C   UNL     1      46.255  10.178  12.060  0.00  0.00    +0.000 C 
ENDBRANCH  34  36
ENDBRANCH   1  34
TORSDOF 9
ENDMDL
MODEL 8
REMARK VINA RESULT:    -6.468      2.311      3.704
REMARK INTER + INTRA:         -11.184
REMARK INTER:                  -9.522
REMARK INTRA:                  -1.661
REMARK UNBOUND:                -1.501
REMARK  Name = 
REMARK  11 active torsions:
REMARK  status: ('A' for Active; 'I' for Inactive)
REMARK    1  A    between atoms: C_1  and  C_2
REMARK    2  A    between atoms: C_2  and  C_3
REMARK    3  A    between atoms: C_3  and  C_4
REMARK    4  A    between atoms: C_4  and  N_5
REMARK    5  A    between atoms: C_4  and  C_19
REMARK    6  A    between atoms: C_6  and  C_8
REMARK    7  A    between atoms: N_14  and  C_15
REMARK    8  A    between atoms: C_22  and  C_23
REMARK    9  A    between atoms: C_23  and  N_24
REMARK   10  A    between atoms: C_23  and  C_25
REMARK   11  A    between atoms: C_25  and  C_26
REMARK                            x       y       z     vdW  Elec       q    Type
REMARK                         _______ _______ _______ _____ _____    ______ ____
ROOT
ATOM      1  C   UNL     1      48.531   7.847  14.374  0.00  0.00    +0.000 C 
ENDROOT
BRANCH   1   2
ATOM      2  C   UNL     1      47.368   7.026  13.867  0.00  0.00    +0.000 A 
ATOM      3  C   UNL     1      47.274   5.642  14.016  0.00  0.00    +0.000 A 
ATOM      4  C   UNL     1      46.164   4.958  13.534  0.00  0.00    +0.000 A 
ATOM      5  C   UNL     1      45.147   5.677  12.918  0.00  0.00    +0.000 A 
ATOM      6  N   UNL     1      45.200   7.025  12.775  0.00  0.00    +0.000 NA
ATOM      7  C   UNL     1      46.301   7.660  13.237  0.00  0.00    +0.000 A 
BRANCH   5   8
ATOM      8  C   UNL     1      43.897   4.981  12.400  0.00  0.00    +0.000 C 
BRANCH   8   9
ATOM      9  N   UNL     1      42.730   5.357  13.235  0.00  0.00    +0.000 NA
ATOM     10  H   UNL     1      43.078   5.766  14.104  0.00  0.00    +0.000 HD
ATOM     11  H   UNL     1      42.289   4.481  13.529  0.00  0.00    +0.000 HD
ENDBRANCH   8   9
BRANCH   8  12
ATOM     12  C   UNL     1      43.633   5.254  10.903  0.00  0.00    +0.000 C 
BRANCH  12  13
ATOM     13  C   UNL     1      43.762   4.034   9.980  0.00  0.00    +0.000 C 
ATOM     14  C   UNL     1      44.831   3.053  10.457  0.00  0.00    +0.000 C 
ATOM     15  C   UNL     1      45.149   2.266   9.202  0.00  0.00    +0.000 C 
ATOM     16  C   UNL     1      44.933   3.256   8.067  0.00  0.00    +0.000 C 
ATOM     17  N   UNL     1      44.167   4.378   8.614  0.00  0.00    +0.000 NA
ATOM     18  H   UNL     1      43.375   4.621   8.024  0.00  0.00    +0.000 HD
ENDBRANCH  12  13
ENDBRANCH   8  12
ENDBRANCH   5   8
ENDBRANCH   1   2
BRANCH   1  19
ATOM     19  N   UNL     1      49.436   6.969  15.090  0.00  0.00    +0.000 N 
ATOM     20  C   UNL     1      49.531   6.955  16.454  0.00  0.00    +0.000 C 
ATOM     21  O   UNL     1      48.772   7.609  17.185  0.00  0.00    +0.000 OA
ATOM     22  H   UNL     1      50.081   6.414  14.542  0.00  0.00    +0.000 HD
BRANCH  20  23
ATOM     23  C   UNL     1      50.541   6.055  16.994  0.00  0.00    +0.000 A 
ATOM     24  C   UNL     1      50.234   4.978  17.813  0.00  0.00    +0.000 A 
ATOM     25  S   UNL     1      51.608   4.049  18.235  0.00  0.00    +0.000 S 
ATOM     26  C   UNL     1      52.642   5.076  17.357  0.00  0.00    +0.000 A 
ATOM     27  N   UNL     1      53.973   4.839  17.290  0.00  0.00    +0.000 NA
ATOM     28  C   UNL     1      54.635   5.699  16.586  0.00  0.00    +0.000 A 
ATOM     29  N   UNL     1      54.101   6.797  15.945  0.00  0.00    +0.000 N 
ATOM     30  C   UNL     1      54.961   7.715  15.228  0.00  0.00    +0.000 C 
ATOM     31  C   UNL     1      52.752   7.112  16.054  0.00  0.00    +0.000 A 
ATOM     32  O   UNL     1      52.271   8.140  15.580  0.00  0.00    +0.000 OA
ATOM     33  C   UNL     1      51.964   6.122  16.770  0.00  0.00    +0.000 A 
ENDBRANCH  20  23
ENDBRANCH   1  19
BRANCH   1  34
ATOM     34  C   UNL     1      49.278   8.651  13.287  0.00  0.00    +0.000 C 
BRANCH  34  36
ATOM     35  C   UNL     1      50.289   7.738  11.166  0.00  0.00    +0.000 C 
ATOM     36  C   UNL     1      50.445   7.869  12.672  0.00  0.00    +0.000 C 
ENDBRANCH  34  36
ENDBRANCH   1  34
TORSDOF 9
ENDMDL
MODEL 9
REMARK VINA RESULT:    -6.091      1.699      2.400
REMARK INTER + INTRA:         -10.619
REMARK INTER:                  -8.847
REMARK INTRA:                  -1.772
REMARK UNBOUND:                -1.501
REMARK  Name = 
REMARK  11 active torsions:
REMARK  status: ('A' for Active; 'I' for Inactive)
REMARK    1  A    between atoms: C_1  and  C_2
REMARK    2  A    between atoms: C_2  and  C_3
REMARK    3  A    between atoms: C_3  and  C_4
REMARK    4  A    between atoms: C_4  and  N_5
REMARK    5  A    between atoms: C_4  and  C_19
REMARK    6  A    between atoms: C_6  and  C_8
REMARK    7  A    between atoms: N_14  and  C_15
REMARK    8  A    between atoms: C_22  and  C_23
REMARK    9  A    between atoms: C_23  and  N_24
REMARK   10  A    between atoms: C_23  and  C_25
REMARK   11  A    between atoms: C_25  and  C_26
REMARK                            x       y       z     vdW  Elec       q    Type
REMARK                         _______ _______ _______ _____ _____    ______ ____
ROOT
ATOM      1  C   UNL     1      48.294   8.827  14.669  0.00  0.00    +0.000 C 
ENDROOT
BRANCH   1   2
ATOM      2  C   UNL     1      47.477   7.979  13.723  0.00  0.00    +0.000 A 
ATOM      3  C   UNL     1      47.827   6.682  13.346  0.00  0.00    +0.000 A 
ATOM      4  C   UNL     1      47.016   5.958  12.481  0.00  0.00    +0.000 A 
ATOM      5  C   UNL     1      45.845   6.542  12.012  0.00  0.00    +0.000 A 
ATOM      6  N   UNL     1      45.467   7.794  12.374  0.00  0.00    +0.000 NA
ATOM      7  C   UNL     1      46.287   8.479  13.202  0.00  0.00    +0.000 A 
BRANCH   5   8
ATOM      8  C   UNL     1      44.906   5.783  11.086  0.00  0.00    +0.000 C 
BRANCH   8   9
ATOM      9  N   UNL     1      43.608   6.496  10.992  0.00  0.00    +0.000 NA
ATOM     10  H   UNL     1      43.022   6.197  11.774  0.00  0.00    +0.000 HD
ATOM     11  H   UNL     1      43.132   6.125  10.166  0.00  0.00    +0.000 HD
ENDBRANCH   8   9
BRANCH   8  12
ATOM     12  C   UNL     1      45.513   5.527   9.690  0.00  0.00    +0.000 C 
BRANCH  12  13
ATOM     13  C   UNL     1      45.043   4.242   8.995  0.00  0.00    +0.000 C 
ATOM     14  C   UNL     1      44.882   3.077   9.970  0.00  0.00    +0.000 C 
ATOM     15  C   UNL     1      44.943   1.867   9.061  0.00  0.00    +0.000 C 
ATOM     16  C   UNL     1      45.868   2.287   7.929  0.00  0.00    +0.000 C 
ATOM     17  N   UNL     1      45.987   3.747   7.989  0.00  0.00    +0.000 NA
ATOM     18  H   UNL     1      45.845   4.177   7.079  0.00  0.00    +0.000 HD
ENDBRANCH  12  13
ENDBRANCH   8  12
ENDBRANCH   5   8
ENDBRANCH   1   2
BRANCH   1  19
ATOM     19  N   UNL     1      49.314   7.991  15.273  0.00  0.00    +0.000 N 
ATOM     20  C   UNL     1      49.622   8.043  16.604  0.00  0.00    +0.000 C 
ATOM     21  O   UNL     1      48.979   8.727  17.414  0.00  0.00    +0.000 OA
ATOM     22  H   UNL     1      49.872   7.414  14.657  0.00  0.00    +0.000 HD
BRANCH  20  23
ATOM     23  C   UNL     1      50.717   7.177  17.020  0.00  0.00    +0.000 A 
ATOM     24  C   UNL     1      51.979   7.654  17.339  0.00  0.00    +0.000 A 
ATOM     25  S   UNL     1      53.043   6.422  17.868  0.00  0.00    +0.000 S 
ATOM     26  C   UNL     1      51.852   5.226  17.659  0.00  0.00    +0.000 A 
ATOM     27  N   UNL     1      52.103   3.927  17.949  0.00  0.00    +0.000 NA
ATOM     28  C   UNL     1      51.105   3.130  17.744  0.00  0.00    +0.000 A 
ATOM     29  N   UNL     1      49.868   3.496  17.258  0.00  0.00    +0.000 N 
ATOM     30  C   UNL     1      48.848   2.495  17.026  0.00  0.00    +0.000 C 
ATOM     31  C   UNL     1      49.599   4.806  16.881  0.00  0.00    +0.000 A 
ATOM     32  O   UNL     1      48.540   5.138  16.348  0.00  0.00    +0.000 OA
ATOM     33  C   UNL     1      50.671   5.744  17.173  0.00  0.00    +0.000 A 
ENDBRANCH  20  23
ENDBRANCH   1  19
BRANCH   1  34
ATOM     34  C   UNL     1      48.916  10.090  14.033  0.00  0.00    +0.000 C 
BRANCH  34  36
ATOM     35  C   UNL     1      49.637   9.973  11.620  0.00  0.00    +0.000 C 
ATOM     36  C   UNL     1      50.060   9.762  13.064  0.00  0.00    +0.000 C 
ENDBRANCH  34  36
ENDBRANCH   1  34
TORSDOF 9
ENDMDL
