MODEL 1
REMARK VINA RESULT:    -7.058      0.000      0.000
REMARK INTER + INTRA:          -9.166
REMARK INTER:                  -8.915
REMARK INTRA:                  -0.251
REMARK UNBOUND:                -0.251
REMARK  Name = 
REMARK  5 active torsions:
REMARK  status: ('A' for Active; 'I' for Inactive)
REMARK    1  A    between atoms: N_1  and  C_2
REMARK    2  A    between atoms: C_2  and  C_3
REMARK    3  A    between atoms: C_6  and  O_7
REMARK    4  A    between atoms: O_7  and  C_8
REMARK    5  A    between atoms: C_8  and  C_9
REMARK                            x       y       z     vdW  Elec       q    Type
REMARK                         _______ _______ _______ _____ _____    ______ ____
ROOT
ATOM      1  C   UNL     1      46.607   2.018   7.634  0.00  0.00    +0.000 A 
ATOM      2  C   UNL     1      46.534   3.386   7.381  0.00  0.00    +0.000 A 
ATOM      3  N   UNL     1      45.643   4.205   7.993  0.00  0.00    +0.000 NA
ATOM      4  C   UNL     1      44.820   3.617   8.887  0.00  0.00    +0.000 A 
ATOM      5  C   UNL     1      44.930   2.261   9.179  0.00  0.00    +0.000 A 
ATOM      6  N   UNL     1      45.806   1.434   8.559  0.00  0.00    +0.000 NA
ENDROOT
BRANCH   1   7
ATOM      7  C   UNL     1      47.561   1.138   6.870  0.00  0.00    +0.000 C 
BRANCH   7   8
ATOM      8  N   UNL     1      48.328   1.865   5.857  0.00  0.00    +0.000 NA
ATOM      9  H   UNL     1      48.332   2.855   6.101  0.00  0.00    +0.000 HD
ATOM     10  H   UNL     1      47.822   1.803   4.972  0.00  0.00    +0.000 HD
ENDBRANCH   7   8
ENDBRANCH   1   7
BRANCH   4  11
ATOM     11  O   UNL     1      43.904   4.464   9.443  0.00  0.00    +0.000 OA
BRANCH  11  12
ATOM     12  C   UNL     1      43.744   4.308  10.852  0.00  0.00    +0.000 C 
BRANCH  12  13
ATOM     13  C   UNL     1      44.925   4.871  11.596  0.00  0.00    +0.000 A 
ATOM     14  C   UNL     1      45.595   6.027  11.182  0.00  0.00    +0.000 A 
ATOM     15  C   UNL     1      46.627   6.544  11.961  0.00  0.00    +0.000 A 
ATOM     16  C   UNL     1      46.941   5.886  13.137  0.00  0.00    +0.000 A 
ATOM     17 CL   UNL     1      48.184   6.467  14.165  0.00  0.00    +0.000 Cl
ATOM     18  N   UNL     1      46.317   4.777  13.582  0.00  0.00    +0.000 NA
ATOM     19  C   UNL     1      45.323   4.300  12.803  0.00  0.00    +0.000 A 
ENDBRANCH  12  13
ENDBRANCH  11  12
ENDBRANCH   4  11
TORSDOF 5
ENDMDL
MODEL 2
REMARK VINA RESULT:    -6.914      2.629      5.972
REMARK INTER + INTRA:          -8.984
REMARK INTER:                  -8.594
REMARK INTRA:                  -0.390
REMARK UNBOUND:                -0.251
REMARK  Name = 
REMARK  5 active torsions:
REMARK  status: ('A' for Active; 'I' for Inactive)
REMARK    1  A    between atoms: N_1  and  C_2
REMARK    2  A    between atoms: C_2  and  C_3
REMARK    3  A    between atoms: C_6  and  O_7
REMARK    4  A    between atoms: O_7  and  C_8
REMARK    5  A    between atoms: C_8  and  C_9
REMARK                            x       y       z     vdW  Elec       q    Type
REMARK                         _______ _______ _______ _____ _____    ______ ____
ROOT
ATOM      1  C   UNL     1      46.610   4.802  13.993  0.00  0.00    +0.000 A 
ATOM      2  C   UNL     1      46.945   5.787  13.067  0.00  0.00    +0.000 A 
ATOM      3  N   UNL     1      46.244   5.996  11.924  0.00  0.00    +0.000 NA
ATOM      4  C   UNL     1      45.178   5.192  11.733  0.00  0.00    +0.000 A 
ATOM      5  C   UNL     1      44.811   4.246  12.685  0.00  0.00    +0.000 A 
ATOM      6  N   UNL     1      45.517   4.020  13.819  0.00  0.00    +0.000 NA
ENDROOT
BRANCH   1   7
ATOM      7  C   UNL     1      47.467   4.557  15.208  0.00  0.00    +0.000 C 
BRANCH   7   8
ATOM      8  N   UNL     1      47.795   3.144  15.404  0.00  0.00    +0.000 NA
ATOM      9  H   UNL     1      46.948   2.649  15.680  0.00  0.00    +0.000 HD
ATOM     10  H   UNL     1      48.427   3.074  16.203  0.00  0.00    +0.000 HD
ENDBRANCH   7   8
ENDBRANCH   1   7
BRANCH   4  11
ATOM     11  O   UNL     1      44.529   5.399  10.547  0.00  0.00    +0.000 OA
BRANCH  11  12
ATOM     12  C   UNL     1      44.029   4.209   9.940  0.00  0.00    +0.000 C 
BRANCH  12  13
ATOM     13  C   UNL     1      45.059   3.591   9.033  0.00  0.00    +0.000 A 
ATOM     14  C   UNL     1      45.278   2.211   8.972  0.00  0.00    +0.000 A 
ATOM     15  C   UNL     1      46.186   1.697   8.050  0.00  0.00    +0.000 A 
ATOM     16  C   UNL     1      46.834   2.588   7.213  0.00  0.00    +0.000 A 
ATOM     17 CL   UNL     1      47.952   2.036   6.036  0.00  0.00    +0.000 Cl
ATOM     18  N   UNL     1      46.646   3.922   7.227  0.00  0.00    +0.000 NA
ATOM     19  C   UNL     1      45.762   4.390   8.134  0.00  0.00    +0.000 A 
ENDBRANCH  12  13
ENDBRANCH  11  12
ENDBRANCH   4  11
TORSDOF 5
ENDMDL
MODEL 3
REMARK VINA RESULT:    -6.810      3.017      6.380
REMARK INTER + INTRA:          -8.852
REMARK INTER:                  -8.504
REMARK INTRA:                  -0.348
REMARK UNBOUND:                -0.251
REMARK  Name = 
REMARK  5 active torsions:
REMARK  status: ('A' for Active; 'I' for Inactive)
REMARK    1  A    between atoms: N_1  and  C_2
REMARK    2  A    between atoms: C_2  and  C_3
REMARK    3  A    between atoms: C_6  and  O_7
REMARK    4  A    between atoms: O_7  and  C_8
REMARK    5  A    between atoms: C_8  and  C_9
REMARK                            x       y       z     vdW  Elec       q    Type
REMARK                         _______ _______ _______ _____ _____    ______ ____
ROOT
ATOM      1  C   UNL     1      45.544   7.374  12.463  0.00  0.00    +0.000 A 
ATOM      2  C   UNL     1      46.323   6.298  12.881  0.00  0.00    +0.000 A 
ATOM      3  N   UNL     1      46.070   5.016  12.518  0.00  0.00    +0.000 NA
ATOM      4  C   UNL     1      45.009   4.834  11.704  0.00  0.00    +0.000 A 
ATOM      5  C   UNL     1      44.265   5.915  11.241  0.00  0.00    +0.000 A 
ATOM      6  N   UNL     1      44.501   7.196  11.615  0.00  0.00    +0.000 NA
ENDROOT
BRANCH   1   7
ATOM      7  C   UNL     1      45.819   8.770  12.958  0.00  0.00    +0.000 C 
BRANCH   7   8
ATOM      8  N   UNL     1      44.701   9.689  12.735  0.00  0.00    +0.000 NA
ATOM      9  H   UNL     1      44.958  10.338  11.992  0.00  0.00    +0.000 HD
ATOM     10  H   UNL     1      44.591  10.262  13.573  0.00  0.00    +0.000 HD
ENDBRANCH   7   8
ENDBRANCH   1   7
BRANCH   4  11
ATOM     11  O   UNL     1      44.756   3.525  11.402  0.00  0.00    +0.000 OA
BRANCH  11  12
ATOM     12  C   UNL     1      44.102   3.331  10.149  0.00  0.00    +0.000 C 
BRANCH  12  13
ATOM     13  C   UNL     1      45.098   3.046   9.057  0.00  0.00    +0.000 A 
ATOM     14  C   UNL     1      45.625   1.769   8.832  0.00  0.00    +0.000 A 
ATOM     15  C   UNL     1      46.478   1.556   7.753  0.00  0.00    +0.000 A 
ATOM     16  C   UNL     1      46.763   2.630   6.930  0.00  0.00    +0.000 A 
ATOM     17 CL   UNL     1      47.787   2.448   5.567  0.00  0.00    +0.000 Cl
ATOM     18  N   UNL     1      46.270   3.873   7.100  0.00  0.00    +0.000 NA
ATOM     19  C   UNL     1      45.448   4.049   8.157  0.00  0.00    +0.000 A 
ENDBRANCH  12  13
ENDBRANCH  11  12
ENDBRANCH   4  11
TORSDOF 5
ENDMDL
MODEL 4
REMARK VINA RESULT:    -6.380      2.753      5.978
REMARK INTER + INTRA:          -8.309
REMARK INTER:                  -8.081
REMARK INTRA:                  -0.229
REMARK UNBOUND:                -0.251
REMARK  Name = 
REMARK  5 active torsions:
REMARK  status: ('A' for Active; 'I' for Inactive)
REMARK    1  A    between atoms: N_1  and  C_2
REMARK    2  A    between atoms: C_2  and  C_3
REMARK    3  A    between atoms: C_6  and  O_7
REMARK    4  A    between atoms: O_7  and  C_8
REMARK    5  A    between atoms: C_8  and  C_9
REMARK                            x       y       z     vdW  Elec       q    Type
REMARK                         _______ _______ _______ _____ _____    ______ ____
ROOT
ATOM      1  C   UNL     1      46.560   5.710  12.871  0.00  0.00    +0.000 A 
ATOM      2  C   UNL     1      46.077   4.415  13.043  0.00  0.00    +0.000 A 
ATOM      3  N   UNL     1      45.238   3.816  12.161  0.00  0.00    +0.000 NA
ATOM      4  C   UNL     1      44.897   4.550  11.082  0.00  0.00    +0.000 A 
ATOM      5  C   UNL     1      45.424   5.823  10.883  0.00  0.00    +0.000 A 
ATOM      6  N   UNL     1      46.248   6.433  11.768  0.00  0.00    +0.000 NA
ENDROOT
BRANCH   1   7
ATOM      7  C   UNL     1      47.426   6.360  13.919  0.00  0.00    +0.000 C 
BRANCH   7   8
ATOM      8  N   UNL     1      48.857   6.265  13.621  0.00  0.00    +0.000 NA
ATOM      9  H   UNL     1      48.990   5.566  12.891  0.00  0.00    +0.000 HD
ATOM     10  H   UNL     1      49.327   5.891  14.448  0.00  0.00    +0.000 HD
ENDBRANCH   7   8
ENDBRANCH   1   7
BRANCH   4  11
ATOM     11  O   UNL     1      44.011   3.931  10.245  0.00  0.00    +0.000 OA
BRANCH  11  12
ATOM     12  C   UNL     1      44.367   2.592   9.904  0.00  0.00    +0.000 C 
BRANCH  12  13
ATOM     13  C   UNL     1      45.244   2.560   8.682  0.00  0.00    +0.000 A 
ATOM     14  C   UNL     1      45.458   3.684   7.877  0.00  0.00    +0.000 A 
ATOM     15  C   UNL     1      46.347   3.608   6.809  0.00  0.00    +0.000 A 
ATOM     16  C   UNL     1      47.000   2.407   6.593  0.00  0.00    +0.000 A 
ATOM     17 CL   UNL     1      48.126   2.236   5.312  0.00  0.00    +0.000 Cl
ATOM     18  N   UNL     1      46.834   1.303   7.348  0.00  0.00    +0.000 NA
ATOM     19  C   UNL     1      45.964   1.407   8.374  0.00  0.00    +0.000 A 
ENDBRANCH  12  13
ENDBRANCH  11  12
ENDBRANCH   4  11
TORSDOF 5
ENDMDL
MODEL 5
REMARK VINA RESULT:    -5.849      2.941      6.687
REMARK INTER + INTRA:          -7.640
REMARK INTER:                  -7.320
REMARK INTRA:                  -0.320
REMARK UNBOUND:                -0.251
REMARK  Name = 
REMARK  5 active torsions:
REMARK  status: ('A' for Active; 'I' for Inactive)
REMARK    1  A    between atoms: N_1  and  C_2
REMARK    2  A    between atoms: C_2  and  C_3
REMARK    3  A    between atoms: C_6  and  O_7
REMARK    4  A    between atoms: O_7  and  C_8
REMARK    5  A    between atoms: C_8  and  C_9
REMARK                            x       y       z     vdW  Elec       q    Type
REMARK                         _______ _______ _______ _____ _____    ______ ____
ROOT
ATOM      1  C   UNL     1      47.487   5.079  15.070  0.00  0.00    +0.000 A 
ATOM      2  C   UNL     1      46.486   4.229  14.607  0.00  0.00    +0.000 A 
ATOM      3  N   UNL     1      45.838   4.421  13.430  0.00  0.00    +0.000 NA
ATOM      4  C   UNL     1      46.229   5.493  12.711  0.00  0.00    +0.000 A 
ATOM      5  C   UNL     1      47.267   6.311  13.148  0.00  0.00    +0.000 A 
ATOM      6  N   UNL     1      47.906   6.135  14.330  0.00  0.00    +0.000 NA
ENDROOT
BRANCH   1   7
ATOM      7  C   UNL     1      48.121   4.868  16.420  0.00  0.00    +0.000 C 
BRANCH   7   8
ATOM      8  N   UNL     1      47.194   5.091  17.531  0.00  0.00    +0.000 NA
ATOM      9  H   UNL     1      46.482   4.361  17.511  0.00  0.00    +0.000 HD
ATOM     10  H   UNL     1      46.696   5.965  17.356  0.00  0.00    +0.000 HD
ENDBRANCH   7   8
ENDBRANCH   1   7
BRANCH   4  11
ATOM     11  O   UNL     1      45.519   5.681  11.559  0.00  0.00    +0.000 OA
BRANCH  11  12
ATOM     12  C   UNL     1      44.760   4.545  11.149  0.00  0.00    +0.000 C 
BRANCH  12  13
ATOM     13  C   UNL     1      45.269   3.996   9.844  0.00  0.00    +0.000 A 
ATOM     14  C   UNL     1      45.186   2.640   9.514  0.00  0.00    +0.000 A 
ATOM     15  C   UNL     1      45.600   2.210   8.255  0.00  0.00    +0.000 A 
ATOM     16  C   UNL     1      46.072   3.161   7.369  0.00  0.00    +0.000 A 
ATOM     17 CL   UNL     1      46.581   2.719   5.792  0.00  0.00    +0.000 Cl
ATOM     18  N   UNL     1      46.159   4.479   7.638  0.00  0.00    +0.000 NA
ATOM     19  C   UNL     1      45.753   4.864   8.867  0.00  0.00    +0.000 A 
ENDBRANCH  12  13
ENDBRANCH  11  12
ENDBRANCH   4  11
TORSDOF 5
ENDMDL
MODEL 6
REMARK VINA RESULT:    -5.732      3.131      6.319
REMARK INTER + INTRA:          -7.491
REMARK INTER:                  -7.140
REMARK INTRA:                  -0.351
REMARK UNBOUND:                -0.251
REMARK  Name = 
REMARK  5 active torsions:
REMARK  status: ('A' for Active; 'I' for Inactive)
REMARK    1  A    between atoms: N_1  and  C_2
REMARK    2  A    between atoms: C_2  and  C_3
REMARK    3  A    between atoms: C_6  and  O_7
REMARK    4  A    between atoms: O_7  and  C_8
REMARK    5  A    between atoms: C_8  and  C_9
REMARK                            x       y       z     vdW  Elec       q    Type
REMARK                         _______ _______ _______ _____ _____    ______ ____
ROOT
ATOM      1  C   UNL     1      46.179   8.362  12.419  0.00  0.00    +0.000 A 
ATOM      2  C   UNL     1      46.758   7.154  12.800  0.00  0.00    +0.000 A 
ATOM      3  N   UNL     1      46.202   5.947  12.524  0.00  0.00    +0.000 NA
ATOM      4  C   UNL     1      45.041   5.978  11.838  0.00  0.00    +0.000 A 
ATOM      5  C   UNL     1      44.491   7.182  11.410  0.00  0.00    +0.000 A 
ATOM      6  N   UNL     1      45.032   8.391  11.697  0.00  0.00    +0.000 NA
ENDROOT
BRANCH   1   7
ATOM      7  C   UNL     1      46.795   9.677  12.818  0.00  0.00    +0.000 C 
BRANCH   7   8
ATOM      8  N   UNL     1      46.585  10.734  11.827  0.00  0.00    +0.000 NA
ATOM      9  H   UNL     1      47.419  11.319  11.794  0.00  0.00    +0.000 HD
ATOM     10  H   UNL     1      45.838  11.341  12.166  0.00  0.00    +0.000 HD
ENDBRANCH   7   8
ENDBRANCH   1   7
BRANCH   4  11
ATOM     11  O   UNL     1      44.487   4.747  11.625  0.00  0.00    +0.000 OA
BRANCH  11  12
ATOM     12  C   UNL     1      43.849   4.605  10.357  0.00  0.00    +0.000 C 
BRANCH  12  13
ATOM     13  C   UNL     1      44.694   3.792   9.414  0.00  0.00    +0.000 A 
ATOM     14  C   UNL     1      45.514   4.375   8.443  0.00  0.00    +0.000 A 
ATOM     15  C   UNL     1      46.335   3.569   7.658  0.00  0.00    +0.000 A 
ATOM     16  C   UNL     1      46.311   2.205   7.886  0.00  0.00    +0.000 A 
ATOM     17 CL   UNL     1      47.306   1.144   6.979  0.00  0.00    +0.000 Cl
ATOM     18  N   UNL     1      45.548   1.600   8.817  0.00  0.00    +0.000 NA
ATOM     19  C   UNL     1      44.761   2.408   9.560  0.00  0.00    +0.000 A 
ENDBRANCH  12  13
ENDBRANCH  11  12
ENDBRANCH   4  11
TORSDOF 5
ENDMDL
MODEL 7
REMARK VINA RESULT:    -5.564      3.885      7.344
REMARK INTER + INTRA:          -7.279
REMARK INTER:                  -6.994
REMARK INTRA:                  -0.285
REMARK UNBOUND:                -0.251
REMARK  Name = 
REMARK  5 active torsions:
REMARK  status: ('A' for Active; 'I' for Inactive)
REMARK    1  A    between atoms: N_1  and  C_2
REMARK    2  A    between atoms: C_2  and  C_3
REMARK    3  A    between atoms: C_6  and  O_7
REMARK    4  A    between atoms: O_7  and  C_8
REMARK    5  A    between atoms: C_8  and  C_9
REMARK                            x       y       z     vdW  Elec       q    Type
REMARK                         _______ _______ _______ _____ _____    ______ ____
ROOT
ATOM      1  C   UNL     1      48.664   4.096  17.150  0.00  0.00    +0.000 A 
ATOM      2  C   UNL     1      47.896   3.288  16.313  0.00  0.00    +0.000 A 
ATOM      3  N   UNL     1      47.293   3.750  15.189  0.00  0.00    +0.000 NA
ATOM      4  C   UNL     1      47.486   5.056  14.912  0.00  0.00    +0.000 A 
ATOM      5  C   UNL     1      48.298   5.849  15.717  0.00  0.00    +0.000 A 
ATOM      6  N   UNL     1      48.889   5.398  16.850  0.00  0.00    +0.000 NA
ENDROOT
BRANCH   1   7
ATOM      7  C   UNL     1      49.248   3.555  18.428  0.00  0.00    +0.000 C 
BRANCH   7   8
ATOM      8  N   UNL     1      48.230   3.188  19.415  0.00  0.00    +0.000 NA
ATOM      9  H   UNL     1      48.391   3.729  20.264  0.00  0.00    +0.000 HD
ATOM     10  H   UNL     1      48.382   2.213  19.678  0.00  0.00    +0.000 HD
ENDBRANCH   7   8
ENDBRANCH   1   7
BRANCH   4  11
ATOM     11  O   UNL     1      46.821   5.494  13.801  0.00  0.00    +0.000 OA
BRANCH  11  12
ATOM     12  C   UNL     1      45.569   4.847  13.577  0.00  0.00    +0.000 C 
BRANCH  12  13
ATOM     13  C   UNL     1      45.343   4.600  12.110  0.00  0.00    +0.000 A 
ATOM     14  C   UNL     1      45.639   5.555  11.131  0.00  0.00    +0.000 A 
ATOM     15  C   UNL     1      45.485   5.233   9.785  0.00  0.00    +0.000 A 
ATOM     16  C   UNL     1      45.050   3.958   9.470  0.00  0.00    +0.000 A 
ATOM     17 CL   UNL     1      44.855   3.474   7.837  0.00  0.00    +0.000 Cl
ATOM     18  N   UNL     1      44.765   3.003  10.377  0.00  0.00    +0.000 NA
ATOM     19  C   UNL     1      44.921   3.346  11.673  0.00  0.00    +0.000 A 
ENDBRANCH  12  13
ENDBRANCH  11  12
ENDBRANCH   4  11
TORSDOF 5
ENDMDL
MODEL 8
REMARK VINA RESULT:    -5.551      4.404      6.479
REMARK INTER + INTRA:          -7.263
REMARK INTER:                  -7.046
REMARK INTRA:                  -0.216
REMARK UNBOUND:                -0.251
REMARK  Name = 
REMARK  5 active torsions:
REMARK  status: ('A' for Active; 'I' for Inactive)
REMARK    1  A    between atoms: N_1  and  C_2
REMARK    2  A    between atoms: C_2  and  C_3
REMARK    3  A    between atoms: C_6  and  O_7
REMARK    4  A    between atoms: O_7  and  C_8
REMARK    5  A    between atoms: C_8  and  C_9
REMARK                            x       y       z     vdW  Elec       q    Type
REMARK                         _______ _______ _______ _____ _____    ______ ____
ROOT
ATOM      1  C   UNL     1      44.304   5.042  12.065  0.00  0.00    +0.000 A 
ATOM      2  C   UNL     1      44.570   3.683  12.210  0.00  0.00    +0.000 A 
ATOM      3  N   UNL     1      45.571   3.204  12.991  0.00  0.00    +0.000 NA
ATOM      4  C   UNL     1      46.304   4.131  13.642  0.00  0.00    +0.000 A 
ATOM      5  C   UNL     1      46.003   5.486  13.540  0.00  0.00    +0.000 A 
ATOM      6  N   UNL     1      45.016   5.971  12.748  0.00  0.00    +0.000 NA
ENDROOT
BRANCH   1   7
ATOM      7  C   UNL     1      43.232   5.526  11.124  0.00  0.00    +0.000 C 
BRANCH   7   8
ATOM      8  N   UNL     1      42.118   6.182  11.812  0.00  0.00    +0.000 NA
ATOM      9  H   UNL     1      42.258   7.191  11.767  0.00  0.00    +0.000 HD
ATOM     10  H   UNL     1      42.173   5.942  12.803  0.00  0.00    +0.000 HD
ENDBRANCH   7   8
ENDBRANCH   1   7
BRANCH   4  11
ATOM     11  O   UNL     1      47.334   3.613  14.376  0.00  0.00    +0.000 OA
BRANCH  11  12
ATOM     12  C   UNL     1      47.139   3.687  15.787  0.00  0.00    +0.000 C 
BRANCH  12  13
ATOM     13  C   UNL     1      48.439   3.501  16.522  0.00  0.00    +0.000 A 
ATOM     14  C   UNL     1      49.052   2.252  16.666  0.00  0.00    +0.000 A 
ATOM     15  C   UNL     1      50.296   2.162  17.285  0.00  0.00    +0.000 A 
ATOM     16  C   UNL     1      50.887   3.332  17.727  0.00  0.00    +0.000 A 
ATOM     17 CL   UNL     1      52.427   3.311  18.481  0.00  0.00    +0.000 Cl
ATOM     18  N   UNL     1      50.340   4.557  17.600  0.00  0.00    +0.000 NA
ATOM     19  C   UNL     1      49.133   4.612  16.998  0.00  0.00    +0.000 A 
ENDBRANCH  12  13
ENDBRANCH  11  12
ENDBRANCH   4  11
TORSDOF 5
ENDMDL
MODEL 9
REMARK VINA RESULT:    -5.442      1.836      2.241
REMARK INTER + INTRA:          -7.125
REMARK INTER:                  -6.904
REMARK INTRA:                  -0.221
REMARK UNBOUND:                -0.251
REMARK  Name = 
REMARK  5 active torsions:
REMARK  status: ('A' for Active; 'I' for Inactive)
REMARK    1  A    between atoms: N_1  and  C_2
REMARK    2  A    between atoms: C_2  and  C_3
REMARK    3  A    between atoms: C_6  and  O_7
REMARK    4  A    between atoms: O_7  and  C_8
REMARK    5  A    between atoms: C_8  and  C_9
REMARK                            x       y       z     vdW  Elec       q    Type
REMARK                         _______ _______ _______ _____ _____    ______ ____
ROOT
ATOM      1  C   UNL     1      45.461   3.382   8.289  0.00  0.00    +0.000 A 
ATOM      2  C   UNL     1      45.617   4.682   8.764  0.00  0.00    +0.000 A 
ATOM      3  N   UNL     1      45.065   5.117   9.924  0.00  0.00    +0.000 NA
ATOM      4  C   UNL     1      44.351   4.205  10.615  0.00  0.00    +0.000 A 
ATOM      5  C   UNL     1      44.241   2.891  10.168  0.00  0.00    +0.000 A 
ATOM      6  N   UNL     1      44.775   2.455   9.002  0.00  0.00    +0.000 NA
ENDROOT
BRANCH   1   7
ATOM      7  C   UNL     1      46.027   2.969   6.956  0.00  0.00    +0.000 C 
BRANCH   7   8
ATOM      8  N   UNL     1      46.805   4.027   6.310  0.00  0.00    +0.000 NA
ATOM      9  H   UNL     1      47.750   3.682   6.146  0.00  0.00    +0.000 HD
ATOM     10  H   UNL     1      46.907   4.796   6.975  0.00  0.00    +0.000 HD
ENDBRANCH   7   8
ENDBRANCH   1   7
BRANCH   4  11
ATOM     11  O   UNL     1      43.769   4.695  11.750  0.00  0.00    +0.000 OA
BRANCH  11  12
ATOM     12  C   UNL     1      44.522   4.464  12.939  0.00  0.00    +0.000 C 
BRANCH  12  13
ATOM     13  C   UNL     1      45.542   5.549  13.153  0.00  0.00    +0.000 A 
ATOM     14  C   UNL     1      46.882   5.275  13.448  0.00  0.00    +0.000 A 
ATOM     15  C   UNL     1      47.793   6.323  13.551  0.00  0.00    +0.000 A 
ATOM     16  C   UNL     1      47.328   7.609  13.341  0.00  0.00    +0.000 A 
ATOM     17 CL   UNL     1      48.388   8.954  13.428  0.00  0.00    +0.000 Cl
ATOM     18  N   UNL     1      46.051   7.919  13.043  0.00  0.00    +0.000 NA
ATOM     19  C   UNL     1      45.191   6.882  12.953  0.00  0.00    +0.000 A 
ENDBRANCH  12  13
ENDBRANCH  11  12
ENDBRANCH   4  11
TORSDOF 5
ENDMDL
