MODEL 1
REMARK VINA RESULT:    -8.634      0.000      0.000
REMARK INTER + INTRA:         -12.060
REMARK INTER:                 -11.157
REMARK INTRA:                  -0.903
REMARK UNBOUND:                -0.903
REMARK  Name = 
REMARK  5 active torsions:
REMARK  status: ('A' for Active; 'I' for Inactive)
REMARK    1  A    between atoms: C_2  and  C_4
REMARK    2  A    between atoms: C_7  and  O_8
REMARK    3  A    between atoms: O_8  and  C_9
REMARK    4  A    between atoms: C_9  and  C_10
REMARK    5  A    between atoms: C_12  and  C_13
REMARK                            x       y       z     vdW  Elec       q    Type
REMARK                         _______ _______ _______ _____ _____    ______ ____
ROOT
ATOM      1  C   UNL     1      43.669   4.348  11.166  0.00  0.00    +0.000 C 
ENDROOT
BRANCH   1   2
ATOM      2  C   UNL     1      44.716   5.207  11.832  0.00  0.00    +0.000 A 
ATOM      3  C   UNL     1      44.779   6.601  11.677  0.00  0.00    +0.000 A 
ATOM      4  C   UNL     1      45.767   7.377  12.317  0.00  0.00    +0.000 A 
ATOM      5  C   UNL     1      46.712   6.701  13.113  0.00  0.00    +0.000 A 
ATOM      6  C   UNL     1      46.666   5.316  13.276  0.00  0.00    +0.000 A 
ATOM      7  C   UNL     1      45.672   4.586  12.639  0.00  0.00    +0.000 A 
ATOM      8  F   UNL     1      45.640   3.256  12.805  0.00  0.00    +0.000 F 
BRANCH   4   9
ATOM      9  C   UNL     1      45.826   8.842  12.152  0.00  0.00    +0.000 A 
ATOM     10  C   UNL     1      44.693   9.649  12.034  0.00  0.00    +0.000 A 
ATOM     11  N   UNL     1      44.740  10.993  11.850  0.00  0.00    +0.000 NA
ATOM     12  C   UNL     1      45.982  11.516  11.796  0.00  0.00    +0.000 A 
ATOM     13  C   UNL     1      47.118  10.738  11.926  0.00  0.00    +0.000 A 
ATOM     14  N   UNL     1      47.066   9.398  12.110  0.00  0.00    +0.000 NA
ENDBRANCH   4   9
ENDBRANCH   1   2
BRANCH   1  15
ATOM     15  O   UNL     1      43.596   4.585   9.753  0.00  0.00    +0.000 OA
BRANCH  15  19
ATOM     16  C   UNL     1      46.537   2.523   7.739  0.00  0.00    +0.000 A 
ATOM     17  C   UNL     1      45.650   1.826   8.562  0.00  0.00    +0.000 A 
ATOM     18  C   UNL     1      44.655   2.536   9.242  0.00  0.00    +0.000 A 
ATOM     19  C   UNL     1      44.585   3.910   9.067  0.00  0.00    +0.000 A 
ATOM     20  N   UNL     1      45.432   4.604   8.280  0.00  0.00    +0.000 NA
ATOM     21  C   UNL     1      46.396   3.899   7.642  0.00  0.00    +0.000 A 
BRANCH  16  23
ATOM     22  N   UNL     1      48.512   2.701   6.334  0.00  0.00    +0.000 N 
ATOM     23  C   UNL     1      47.636   1.884   6.989  0.00  0.00    +0.000 C 
ATOM     24  O   UNL     1      47.783   0.669   6.986  0.00  0.00    +0.000 OA
ATOM     25  H   UNL     1      49.322   2.245   5.931  0.00  0.00    +0.000 HD
ATOM     26  H   UNL     1      48.582   3.691   6.522  0.00  0.00    +0.000 HD
ENDBRANCH  16  23
ENDBRANCH  15  19
ENDBRANCH   1  15
TORSDOF 5
ENDMDL
MODEL 2
REMARK VINA RESULT:    -8.432      0.933      1.447
REMARK INTER + INTRA:         -11.799
REMARK INTER:                 -10.947
REMARK INTRA:                  -0.852
REMARK UNBOUND:                -0.903
REMARK  Name = 
REMARK  5 active torsions:
REMARK  status: ('A' for Active; 'I' for Inactive)
REMARK    1  A    between atoms: C_2  and  C_4
REMARK    2  A    between atoms: C_7  and  O_8
REMARK    3  A    between atoms: O_8  and  C_9
REMARK    4  A    between atoms: C_9  and  C_10
REMARK    5  A    between atoms: C_12  and  C_13
REMARK                            x       y       z     vdW  Elec       q    Type
REMARK                         _______ _______ _______ _____ _____    ______ ____
ROOT
ATOM      1  C   UNL     1      43.589   4.533  11.072  0.00  0.00    +0.000 C 
ENDROOT
BRANCH   1   2
ATOM      2  C   UNL     1      44.842   5.000  11.772  0.00  0.00    +0.000 A 
ATOM      3  C   UNL     1      45.373   6.290  11.619  0.00  0.00    +0.000 A 
ATOM      4  C   UNL     1      46.544   6.697  12.293  0.00  0.00    +0.000 A 
ATOM      5  C   UNL     1      47.181   5.753  13.121  0.00  0.00    +0.000 A 
ATOM      6  C   UNL     1      46.667   4.465  13.282  0.00  0.00    +0.000 A 
ATOM      7  C   UNL     1      45.507   4.103  12.612  0.00  0.00    +0.000 A 
ATOM      8  F   UNL     1      45.026   2.863  12.777  0.00  0.00    +0.000 F 
BRANCH   4   9
ATOM      9  C   UNL     1      47.096   8.056  12.131  0.00  0.00    +0.000 A 
ATOM     10  C   UNL     1      48.455   8.315  11.942  0.00  0.00    +0.000 A 
ATOM     11  N   UNL     1      48.975   9.563  11.824  0.00  0.00    +0.000 NA
ATOM     12  C   UNL     1      48.072  10.564  11.894  0.00  0.00    +0.000 A 
ATOM     13  C   UNL     1      46.721  10.329  12.064  0.00  0.00    +0.000 A 
ATOM     14  N   UNL     1      46.207   9.083  12.182  0.00  0.00    +0.000 NA
ENDBRANCH   4   9
ENDBRANCH   1   2
BRANCH   1  15
ATOM     15  O   UNL     1      43.636   4.786   9.660  0.00  0.00    +0.000 OA
BRANCH  15  19
ATOM     16  C   UNL     1      46.338   2.302   7.791  0.00  0.00    +0.000 A 
ATOM     17  C   UNL     1      45.392   1.758   8.664  0.00  0.00    +0.000 A 
ATOM     18  C   UNL     1      44.479   2.610   9.294  0.00  0.00    +0.000 A 
ATOM     19  C   UNL     1      44.546   3.968   9.022  0.00  0.00    +0.000 A 
ATOM     20  N   UNL     1      45.452   4.516   8.185  0.00  0.00    +0.000 NA
ATOM     21  C   UNL     1      46.334   3.675   7.597  0.00  0.00    +0.000 A 
BRANCH  16  23
ATOM     22  N   UNL     1      48.440   2.169   6.579  0.00  0.00    +0.000 N 
ATOM     23  C   UNL     1      47.360   1.505   7.087  0.00  0.00    +0.000 C 
ATOM     24  O   UNL     1      47.267   0.288   6.995  0.00  0.00    +0.000 OA
ATOM     25  H   UNL     1      49.181   1.586   6.209  0.00  0.00    +0.000 HD
ATOM     26  H   UNL     1      48.681   3.110   6.854  0.00  0.00    +0.000 HD
ENDBRANCH  16  23
ENDBRANCH  15  19
ENDBRANCH   1  15
TORSDOF 5
ENDMDL
MODEL 3
REMARK VINA RESULT:    -8.163      2.121      2.937
REMARK INTER + INTRA:         -11.451
REMARK INTER:                 -10.781
REMARK INTRA:                  -0.670
REMARK UNBOUND:                -0.903
REMARK  Name = 
REMARK  5 active torsions:
REMARK  status: ('A' for Active; 'I' for Inactive)
REMARK    1  A    between atoms: C_2  and  C_4
REMARK    2  A    between atoms: C_7  and  O_8
REMARK    3  A    between atoms: O_8  and  C_9
REMARK    4  A    between atoms: C_9  and  C_10
REMARK    5  A    between atoms: C_12  and  C_13
REMARK                            x       y       z     vdW  Elec       q    Type
REMARK                         _______ _______ _______ _____ _____    ______ ____
ROOT
ATOM      1  C   UNL     1      44.230   3.336  11.482  0.00  0.00    +0.000 C 
ENDROOT
BRANCH   1   2
ATOM      2  C   UNL     1      44.646   4.779  11.636  0.00  0.00    +0.000 A 
ATOM      3  C   UNL     1      45.942   5.169  12.010  0.00  0.00    +0.000 A 
ATOM      4  C   UNL     1      46.300   6.527  12.141  0.00  0.00    +0.000 A 
ATOM      5  C   UNL     1      45.303   7.491  11.898  0.00  0.00    +0.000 A 
ATOM      6  C   UNL     1      44.010   7.120  11.528  0.00  0.00    +0.000 A 
ATOM      7  C   UNL     1      43.695   5.775  11.399  0.00  0.00    +0.000 A 
ATOM      8  F   UNL     1      42.449   5.434  11.042  0.00  0.00    +0.000 F 
BRANCH   4   9
ATOM      9  C   UNL     1      47.665   6.932  12.532  0.00  0.00    +0.000 A 
ATOM     10  C   UNL     1      48.255   6.572  13.745  0.00  0.00    +0.000 A 
ATOM     11  N   UNL     1      49.496   6.967  14.125  0.00  0.00    +0.000 NA
ATOM     12  C   UNL     1      50.145   7.742  13.232  0.00  0.00    +0.000 A 
ATOM     13  C   UNL     1      49.586   8.097  12.018  0.00  0.00    +0.000 A 
ATOM     14  N   UNL     1      48.348   7.701  11.643  0.00  0.00    +0.000 NA
ENDBRANCH   4   9
ENDBRANCH   1   2
BRANCH   1  15
ATOM     15  O   UNL     1      43.670   3.073  10.187  0.00  0.00    +0.000 OA
BRANCH  15  19
ATOM     16  C   UNL     1      46.578   2.572   7.313  0.00  0.00    +0.000 A 
ATOM     17  C   UNL     1      45.927   3.803   7.426  0.00  0.00    +0.000 A 
ATOM     18  C   UNL     1      44.941   3.963   8.405  0.00  0.00    +0.000 A 
ATOM     19  C   UNL     1      44.649   2.889   9.232  0.00  0.00    +0.000 A 
ATOM     20  N   UNL     1      45.262   1.691   9.140  0.00  0.00    +0.000 NA
ATOM     21  C   UNL     1      46.204   1.554   8.177  0.00  0.00    +0.000 A 
BRANCH  16  23
ATOM     22  N   UNL     1      47.681   3.093   5.211  0.00  0.00    +0.000 N 
ATOM     23  C   UNL     1      47.618   2.282   6.308  0.00  0.00    +0.000 C 
ATOM     24  O   UNL     1      48.424   1.374   6.469  0.00  0.00    +0.000 OA
ATOM     25  H   UNL     1      48.477   2.947   4.601  0.00  0.00    +0.000 HD
ATOM     26  H   UNL     1      47.219   3.990   5.168  0.00  0.00    +0.000 HD
ENDBRANCH  16  23
ENDBRANCH  15  19
ENDBRANCH   1  15
TORSDOF 5
ENDMDL
MODEL 4
REMARK VINA RESULT:    -7.890      3.217      4.618
REMARK INTER + INTRA:         -11.098
REMARK INTER:                 -10.593
REMARK INTRA:                  -0.506
REMARK UNBOUND:                -0.903
REMARK  Name = 
REMARK  5 active torsions:
REMARK  status: ('A' for Active; 'I' for Inactive)
REMARK    1  A    between atoms: C_2  and  C_4
REMARK    2  A    between atoms: C_7  and  O_8
REMARK    3  A    between atoms: O_8  and  C_9
REMARK    4  A    between atoms: C_9  and  C_10
REMARK    5  A    between atoms: C_12  and  C_13
REMARK                            x       y       z     vdW  Elec       q    Type
REMARK                         _______ _______ _______ _____ _____    ______ ____
ROOT
ATOM      1  C   UNL     1      44.078   4.577  11.337  0.00  0.00    +0.000 C 
ENDROOT
BRANCH   1   2
ATOM      2  C   UNL     1      45.267   5.035  12.147  0.00  0.00    +0.000 A 
ATOM      3  C   UNL     1      45.697   4.386  13.315  0.00  0.00    +0.000 A 
ATOM      4  C   UNL     1      46.815   4.836  14.047  0.00  0.00    +0.000 A 
ATOM      5  C   UNL     1      47.486   5.981  13.575  0.00  0.00    +0.000 A 
ATOM      6  C   UNL     1      47.070   6.639  12.417  0.00  0.00    +0.000 A 
ATOM      7  C   UNL     1      45.971   6.162  11.716  0.00  0.00    +0.000 A 
ATOM      8  F   UNL     1      45.584   6.805  10.605  0.00  0.00    +0.000 F 
BRANCH   4   9
ATOM      9  C   UNL     1      47.264   4.149  15.273  0.00  0.00    +0.000 A 
ATOM     10  C   UNL     1      47.099   4.677  16.555  0.00  0.00    +0.000 A 
ATOM     11  N   UNL     1      47.539   4.065  17.684  0.00  0.00    +0.000 NA
ATOM     12  C   UNL     1      48.153   2.880  17.487  0.00  0.00    +0.000 A 
ATOM     13  C   UNL     1      48.313   2.332  16.229  0.00  0.00    +0.000 A 
ATOM     14  N   UNL     1      47.874   2.945  15.105  0.00  0.00    +0.000 NA
ENDBRANCH   4   9
ENDBRANCH   1   2
BRANCH   1  15
ATOM     15  O   UNL     1      44.194   3.202  10.942  0.00  0.00    +0.000 OA
BRANCH  15  19
ATOM     16  C   UNL     1      46.370   2.836   7.464  0.00  0.00    +0.000 A 
ATOM     17  C   UNL     1      45.828   4.077   7.809  0.00  0.00    +0.000 A 
ATOM     18  C   UNL     1      45.091   4.191   8.992  0.00  0.00    +0.000 A 
ATOM     19  C   UNL     1      44.929   3.062   9.782  0.00  0.00    +0.000 A 
ATOM     20  N   UNL     1      45.440   1.854   9.467  0.00  0.00    +0.000 NA
ATOM     21  C   UNL     1      46.139   1.764   8.311  0.00  0.00    +0.000 A 
BRANCH  16  23
ATOM     22  N   UNL     1      48.389   2.041   6.370  0.00  0.00    +0.000 N 
ATOM     23  C   UNL     1      47.148   2.593   6.233  0.00  0.00    +0.000 C 
ATOM     24  O   UNL     1      46.683   2.838   5.128  0.00  0.00    +0.000 OA
ATOM     25  H   UNL     1      48.849   1.774   5.507  0.00  0.00    +0.000 HD
ATOM     26  H   UNL     1      48.697   1.591   7.220  0.00  0.00    +0.000 HD
ENDBRANCH  16  23
ENDBRANCH  15  19
ENDBRANCH   1  15
TORSDOF 5
ENDMDL
MODEL 5
REMARK VINA RESULT:    -7.360      2.839      6.833
REMARK INTER + INTRA:         -10.414
REMARK INTER:                  -9.596
REMARK INTRA:                  -0.818
REMARK UNBOUND:                -0.903
REMARK  Name = 
REMARK  5 active torsions:
REMARK  status: ('A' for Active; 'I' for Inactive)
REMARK    1  A    between atoms: C_2  and  C_4
REMARK    2  A    between atoms: C_7  and  O_8
REMARK    3  A    between atoms: O_8  and  C_9
REMARK    4  A    between atoms: C_9  and  C_10
REMARK    5  A    between atoms: C_12  and  C_13
REMARK                            x       y       z     vdW  Elec       q    Type
REMARK                         _______ _______ _______ _____ _____    ______ ____
ROOT
ATOM      1  C   UNL     1      44.281   6.615  11.644  0.00  0.00    +0.000 C 
ENDROOT
BRANCH   1   2
ATOM      2  C   UNL     1      44.250   5.190  11.146  0.00  0.00    +0.000 A 
ATOM      3  C   UNL     1      44.979   4.750  10.029  0.00  0.00    +0.000 A 
ATOM      4  C   UNL     1      44.933   3.410   9.592  0.00  0.00    +0.000 A 
ATOM      5  C   UNL     1      44.111   2.518  10.308  0.00  0.00    +0.000 A 
ATOM      6  C   UNL     1      43.378   2.940  11.418  0.00  0.00    +0.000 A 
ATOM      7  C   UNL     1      43.456   4.264  11.826  0.00  0.00    +0.000 A 
ATOM      8  F   UNL     1      42.746   4.654  12.895  0.00  0.00    +0.000 F 
BRANCH   4   9
ATOM      9  C   UNL     1      45.704   2.952   8.420  0.00  0.00    +0.000 A 
ATOM     10  C   UNL     1      46.167   1.644   8.267  0.00  0.00    +0.000 A 
ATOM     11  N   UNL     1      46.903   1.224   7.207  0.00  0.00    +0.000 NA
ATOM     12  C   UNL     1      47.160   2.172   6.282  0.00  0.00    +0.000 A 
ATOM     13  C   UNL     1      46.698   3.469   6.405  0.00  0.00    +0.000 A 
ATOM     14  N   UNL     1      45.964   3.884   7.464  0.00  0.00    +0.000 NA
ENDBRANCH   4   9
ENDBRANCH   1   2
BRANCH   1  15
ATOM     15  O   UNL     1      44.978   6.733  12.893  0.00  0.00    +0.000 OA
BRANCH  15  19
ATOM     16  C   UNL     1      48.915   7.796  12.317  0.00  0.00    +0.000 A 
ATOM     17  C   UNL     1      47.902   8.681  11.941  0.00  0.00    +0.000 A 
ATOM     18  C   UNL     1      46.568   8.311  12.140  0.00  0.00    +0.000 A 
ATOM     19  C   UNL     1      46.303   7.075  12.711  0.00  0.00    +0.000 A 
ATOM     20  N   UNL     1      47.264   6.203  13.079  0.00  0.00    +0.000 NA
ATOM     21  C   UNL     1      48.547   6.577  12.865  0.00  0.00    +0.000 A 
BRANCH  16  23
ATOM     22  N   UNL     1      51.028   7.326  11.213  0.00  0.00    +0.000 N 
ATOM     23  C   UNL     1      50.354   8.070  12.138  0.00  0.00    +0.000 C 
ATOM     24  O   UNL     1      50.915   8.960  12.764  0.00  0.00    +0.000 OA
ATOM     25  H   UNL     1      51.981   7.616  11.025  0.00  0.00    +0.000 HD
ATOM     26  H   UNL     1      50.560   6.778  10.506  0.00  0.00    +0.000 HD
ENDBRANCH  16  23
ENDBRANCH  15  19
ENDBRANCH   1  15
TORSDOF 5
ENDMDL
MODEL 6
REMARK VINA RESULT:    -6.667      5.631      7.955
REMARK INTER + INTRA:          -9.519
REMARK INTER:                  -8.824
REMARK INTRA:                  -0.695
REMARK UNBOUND:                -0.903
REMARK  Name = 
REMARK  5 active torsions:
REMARK  status: ('A' for Active; 'I' for Inactive)
REMARK    1  A    between atoms: C_2  and  C_4
REMARK    2  A    between atoms: C_7  and  O_8
REMARK    3  A    between atoms: O_8  and  C_9
REMARK    4  A    between atoms: C_9  and  C_10
REMARK    5  A    between atoms: C_12  and  C_13
REMARK                            x       y       z     vdW  Elec       q    Type
REMARK                         _______ _______ _______ _____ _____    ______ ____
ROOT
ATOM      1  C   UNL     1      48.712   6.376  15.856  0.00  0.00    +0.000 C 
ENDROOT
BRANCH   1   2
ATOM      2  C   UNL     1      48.189   6.443  14.442  0.00  0.00    +0.000 A 
ATOM      3  C   UNL     1      47.099   5.683  13.989  0.00  0.00    +0.000 A 
ATOM      4  C   UNL     1      46.629   5.773  12.662  0.00  0.00    +0.000 A 
ATOM      5  C   UNL     1      47.306   6.646  11.789  0.00  0.00    +0.000 A 
ATOM      6  C   UNL     1      48.392   7.407  12.222  0.00  0.00    +0.000 A 
ATOM      7  C   UNL     1      48.820   7.301  13.538  0.00  0.00    +0.000 A 
ATOM      8  F   UNL     1      49.865   8.039  13.940  0.00  0.00    +0.000 F 
BRANCH   4   9
ATOM      9  C   UNL     1      45.481   4.972  12.193  0.00  0.00    +0.000 A 
ATOM     10  C   UNL     1      44.919   5.108  10.922  0.00  0.00    +0.000 A 
ATOM     11  N   UNL     1      43.844   4.398  10.495  0.00  0.00    +0.000 NA
ATOM     12  C   UNL     1      43.344   3.526  11.394  0.00  0.00    +0.000 A 
ATOM     13  C   UNL     1      43.894   3.365  12.652  0.00  0.00    +0.000 A 
ATOM     14  N   UNL     1      44.967   4.074  13.074  0.00  0.00    +0.000 NA
ENDBRANCH   4   9
ENDBRANCH   1   2
BRANCH   1  15
ATOM     15  O   UNL     1      48.178   5.255  16.575  0.00  0.00    +0.000 OA
BRANCH  15  19
ATOM     16  C   UNL     1      51.124   2.514  17.454  0.00  0.00    +0.000 A 
ATOM     17  C   UNL     1      51.357   3.872  17.684  0.00  0.00    +0.000 A 
ATOM     18  C   UNL     1      50.351   4.795  17.382  0.00  0.00    +0.000 A 
ATOM     19  C   UNL     1      49.153   4.322  16.868  0.00  0.00    +0.000 A 
ATOM     20  N   UNL     1      48.905   3.017  16.636  0.00  0.00    +0.000 NA
ATOM     21  C   UNL     1      49.898   2.143  16.923  0.00  0.00    +0.000 A 
BRANCH  16  23
ATOM     22  N   UNL     1      51.647   0.230  18.101  0.00  0.00    +0.000 N 
ATOM     23  C   UNL     1      52.116   1.453  17.716  0.00  0.00    +0.000 C 
ATOM     24  O   UNL     1      53.314   1.648  17.556  0.00  0.00    +0.000 OA
ATOM     25  H   UNL     1      52.338  -0.509  18.156  0.00  0.00    +0.000 HD
ATOM     26  H   UNL     1      50.681  -0.043  17.993  0.00  0.00    +0.000 HD
ENDBRANCH  16  23
ENDBRANCH  15  19
ENDBRANCH   1  15
TORSDOF 5
ENDMDL
MODEL 7
REMARK VINA RESULT:    -6.599      4.225      7.918
REMARK INTER + INTRA:          -9.431
REMARK INTER:                  -8.948
REMARK INTRA:                  -0.483
REMARK UNBOUND:                -0.903
REMARK  Name = 
REMARK  5 active torsions:
REMARK  status: ('A' for Active; 'I' for Inactive)
REMARK    1  A    between atoms: C_2  and  C_4
REMARK    2  A    between atoms: C_7  and  O_8
REMARK    3  A    between atoms: O_8  and  C_9
REMARK    4  A    between atoms: C_9  and  C_10
REMARK    5  A    between atoms: C_12  and  C_13
REMARK                            x       y       z     vdW  Elec       q    Type
REMARK                         _______ _______ _______ _____ _____    ______ ____
ROOT
ATOM      1  C   UNL     1      45.491   4.343  13.642  0.00  0.00    +0.000 C 
ENDROOT
BRANCH   1   2
ATOM      2  C   UNL     1      44.912   4.382  12.248  0.00  0.00    +0.000 A 
ATOM      3  C   UNL     1      45.537   3.790  11.139  0.00  0.00    +0.000 A 
ATOM      4  C   UNL     1      44.966   3.839   9.851  0.00  0.00    +0.000 A 
ATOM      5  C   UNL     1      43.744   4.523   9.704  0.00  0.00    +0.000 A 
ATOM      6  C   UNL     1      43.111   5.119  10.796  0.00  0.00    +0.000 A 
ATOM      7  C   UNL     1      43.696   5.042  12.051  0.00  0.00    +0.000 A 
ATOM      8  F   UNL     1      43.076   5.619  13.091  0.00  0.00    +0.000 F 
BRANCH   4   9
ATOM      9  C   UNL     1      45.627   3.213   8.689  0.00  0.00    +0.000 A 
ATOM     10  C   UNL     1      45.904   1.847   8.606  0.00  0.00    +0.000 A 
ATOM     11  N   UNL     1      46.539   1.269   7.555  0.00  0.00    +0.000 NA
ATOM     12  C   UNL     1      46.889   2.117   6.566  0.00  0.00    +0.000 A 
ATOM     13  C   UNL     1      46.611   3.470   6.620  0.00  0.00    +0.000 A 
ATOM     14  N   UNL     1      45.977   4.042   7.670  0.00  0.00    +0.000 NA
ENDBRANCH   4   9
ENDBRANCH   1   2
BRANCH   1  15
ATOM     15  O   UNL     1      46.770   4.992  13.712  0.00  0.00    +0.000 OA
BRANCH  15  19
ATOM     16  C   UNL     1      48.729   4.233  17.254  0.00  0.00    +0.000 A 
ATOM     17  C   UNL     1      48.723   5.530  16.736  0.00  0.00    +0.000 A 
ATOM     18  C   UNL     1      48.055   5.777  15.532  0.00  0.00    +0.000 A 
ATOM     19  C   UNL     1      47.418   4.720  14.900  0.00  0.00    +0.000 A 
ATOM     20  N   UNL     1      47.413   3.460  15.380  0.00  0.00    +0.000 NA
ATOM     21  C   UNL     1      48.076   3.241  16.540  0.00  0.00    +0.000 A 
BRANCH  16  23
ATOM     22  N   UNL     1      48.638   3.535  19.580  0.00  0.00    +0.000 N 
ATOM     23  C   UNL     1      49.416   3.851  18.504  0.00  0.00    +0.000 C 
ATOM     24  O   UNL     1      50.636   3.780  18.564  0.00  0.00    +0.000 OA
ATOM     25  H   UNL     1      49.130   3.160  20.384  0.00  0.00    +0.000 HD
ATOM     26  H   UNL     1      47.652   3.329  19.501  0.00  0.00    +0.000 HD
ENDBRANCH  16  23
ENDBRANCH  15  19
ENDBRANCH   1  15
TORSDOF 5
ENDMDL
MODEL 8
REMARK VINA RESULT:    -6.362      3.891      6.046
REMARK INTER + INTRA:          -9.124
REMARK INTER:                  -8.440
REMARK INTRA:                  -0.683
REMARK UNBOUND:                -0.903
REMARK  Name = 
REMARK  5 active torsions:
REMARK  status: ('A' for Active; 'I' for Inactive)
REMARK    1  A    between atoms: C_2  and  C_4
REMARK    2  A    between atoms: C_7  and  O_8
REMARK    3  A    between atoms: O_8  and  C_9
REMARK    4  A    between atoms: C_9  and  C_10
REMARK    5  A    between atoms: C_12  and  C_13
REMARK                            x       y       z     vdW  Elec       q    Type
REMARK                         _______ _______ _______ _____ _____    ______ ____
ROOT
ATOM      1  C   UNL     1      47.338   7.891  12.133  0.00  0.00    +0.000 C 
ENDROOT
BRANCH   1   2
ATOM      2  C   UNL     1      48.140   7.576  13.372  0.00  0.00    +0.000 A 
ATOM      3  C   UNL     1      47.874   6.473  14.200  0.00  0.00    +0.000 A 
ATOM      4  C   UNL     1      48.647   6.203  15.349  0.00  0.00    +0.000 A 
ATOM      5  C   UNL     1      49.695   7.092  15.654  0.00  0.00    +0.000 A 
ATOM      6  C   UNL     1      49.971   8.194  14.843  0.00  0.00    +0.000 A 
ATOM      7  C   UNL     1      49.197   8.423  13.714  0.00  0.00    +0.000 A 
ATOM      8  F   UNL     1      49.475   9.485  12.945  0.00  0.00    +0.000 F 
BRANCH   4   9
ATOM      9  C   UNL     1      48.364   5.041  16.214  0.00  0.00    +0.000 A 
ATOM     10  C   UNL     1      47.121   4.407  16.267  0.00  0.00    +0.000 A 
ATOM     11  N   UNL     1      46.845   3.359  17.084  0.00  0.00    +0.000 NA
ATOM     12  C   UNL     1      47.874   2.952  17.856  0.00  0.00    +0.000 A 
ATOM     13  C   UNL     1      49.117   3.555  17.808  0.00  0.00    +0.000 A 
ATOM     14  N   UNL     1      49.388   4.600  16.992  0.00  0.00    +0.000 NA
ENDBRANCH   4   9
ENDBRANCH   1   2
BRANCH   1  15
ATOM     15  O   UNL     1      45.925   7.826  12.375  0.00  0.00    +0.000 OA
BRANCH  15  19
ATOM     16  C   UNL     1      44.347   4.142  11.426  0.00  0.00    +0.000 A 
ATOM     17  C   UNL     1      43.988   4.755  12.629  0.00  0.00    +0.000 A 
ATOM     18  C   UNL     1      44.529   6.006  12.942  0.00  0.00    +0.000 A 
ATOM     19  C   UNL     1      45.403   6.593  12.039  0.00  0.00    +0.000 A 
ATOM     20  N   UNL     1      45.766   6.020  10.874  0.00  0.00    +0.000 NA
ATOM     21  C   UNL     1      45.240   4.803  10.597  0.00  0.00    +0.000 A 
BRANCH  16  23
ATOM     22  N   UNL     1      44.476   2.224   9.939  0.00  0.00    +0.000 N 
ATOM     23  C   UNL     1      43.855   2.818  11.000  0.00  0.00    +0.000 C 
ATOM     24  O   UNL     1      42.949   2.252  11.599  0.00  0.00    +0.000 OA
ATOM     25  H   UNL     1      44.200   1.269   9.746  0.00  0.00    +0.000 HD
ATOM     26  H   UNL     1      45.374   2.529   9.592  0.00  0.00    +0.000 HD
ENDBRANCH  16  23
ENDBRANCH  15  19
ENDBRANCH   1  15
TORSDOF 5
ENDMDL
MODEL 9
REMARK VINA RESULT:    -6.335      4.694      8.234
REMARK INTER + INTRA:          -9.089
REMARK INTER:                  -8.479
REMARK INTRA:                  -0.610
REMARK UNBOUND:                -0.903
REMARK  Name = 
REMARK  5 active torsions:
REMARK  status: ('A' for Active; 'I' for Inactive)
REMARK    1  A    between atoms: C_2  and  C_4
REMARK    2  A    between atoms: C_7  and  O_8
REMARK    3  A    between atoms: O_8  and  C_9
REMARK    4  A    between atoms: C_9  and  C_10
REMARK    5  A    between atoms: C_12  and  C_13
REMARK                            x       y       z     vdW  Elec       q    Type
REMARK                         _______ _______ _______ _____ _____    ______ ____
ROOT
ATOM      1  C   UNL     1      48.163   6.883  14.043  0.00  0.00    +0.000 C 
ENDROOT
BRANCH   1   2
ATOM      2  C   UNL     1      47.009   6.997  13.076  0.00  0.00    +0.000 A 
ATOM      3  C   UNL     1      46.641   5.969  12.194  0.00  0.00    +0.000 A 
ATOM      4  C   UNL     1      45.553   6.105  11.307  0.00  0.00    +0.000 A 
ATOM      5  C   UNL     1      44.849   7.324  11.320  0.00  0.00    +0.000 A 
ATOM      6  C   UNL     1      45.203   8.357  12.190  0.00  0.00    +0.000 A 
ATOM      7  C   UNL     1      46.272   8.184  13.057  0.00  0.00    +0.000 A 
ATOM      8  F   UNL     1      46.600   9.185  13.886  0.00  0.00    +0.000 F 
BRANCH   4   9
ATOM      9  C   UNL     1      45.169   5.020  10.382  0.00  0.00    +0.000 A 
ATOM     10  C   UNL     1      44.370   3.938  10.757  0.00  0.00    +0.000 A 
ATOM     11  N   UNL     1      44.040   2.921   9.922  0.00  0.00    +0.000 NA
ATOM     12  C   UNL     1      44.538   3.026   8.672  0.00  0.00    +0.000 A 
ATOM     13  C   UNL     1      45.319   4.095   8.276  0.00  0.00    +0.000 A 
ATOM     14  N   UNL     1      45.646   5.108   9.112  0.00  0.00    +0.000 NA
ENDBRANCH   4   9
ENDBRANCH   1   2
BRANCH   1  15
ATOM     15  O   UNL     1      48.342   5.538  14.511  0.00  0.00    +0.000 OA
BRANCH  15  19
ATOM     16  C   UNL     1      48.052   5.258  18.610  0.00  0.00    +0.000 A 
ATOM     17  C   UNL     1      47.431   4.296  17.809  0.00  0.00    +0.000 A 
ATOM     18  C   UNL     1      47.536   4.400  16.418  0.00  0.00    +0.000 A 
ATOM     19  C   UNL     1      48.259   5.458  15.886  0.00  0.00    +0.000 A 
ATOM     20  N   UNL     1      48.864   6.399  16.639  0.00  0.00    +0.000 NA
ATOM     21  C   UNL     1      48.739   6.286  17.982  0.00  0.00    +0.000 A 
BRANCH  16  23
ATOM     22  N   UNL     1      48.490   4.170  20.738  0.00  0.00    +0.000 N 
ATOM     23  C   UNL     1      47.994   5.261  20.084  0.00  0.00    +0.000 C 
ATOM     24  O   UNL     1      47.556   6.223  20.702  0.00  0.00    +0.000 OA
ATOM     25  H   UNL     1      48.549   4.251  21.747  0.00  0.00    +0.000 HD
ATOM     26  H   UNL     1      49.085   3.489  20.290  0.00  0.00    +0.000 HD
ENDBRANCH  16  23
ENDBRANCH  15  19
ENDBRANCH   1  15
TORSDOF 5
ENDMDL
