MODEL 1
REMARK VINA RESULT:    -7.936      0.000      0.000
REMARK INTER + INTRA:         -11.813
REMARK INTER:                 -10.720
REMARK INTRA:                  -1.093
REMARK UNBOUND:                -1.093
REMARK  Name = 
REMARK  8 active torsions:
REMARK  status: ('A' for Active; 'I' for Inactive)
REMARK    1  A    between atoms: C_1  and  O_2
REMARK    2  A    between atoms: O_2  and  C_3
REMARK    3  A    between atoms: C_5  and  N_6
REMARK    4  A    between atoms: N_6  and  C_7
REMARK    5  A    between atoms: C_7  and  C_8
REMARK    6  A    between atoms: C_8  and  C_9
REMARK    7  A    between atoms: C_8  and  C_10
REMARK    8  A    between atoms: C_13  and  C_14
REMARK                            x       y       z     vdW  Elec       q    Type
REMARK                         _______ _______ _______ _____ _____    ______ ____
ROOT
ATOM      1  C   UNL     1      43.964   3.278  12.368  0.00  0.00    +0.000 C 
ENDROOT
BRANCH   1   2
ATOM      2  N   UNL     1      45.414   3.021  12.325  0.00  0.00    +0.000 N 
ATOM      3  H   UNL     1      45.642   2.078  12.627  0.00  0.00    +0.000 HD
BRANCH   2   6
ATOM      4  C   UNL     1      47.217   6.014  13.292  0.00  0.00    +0.000 A 
ATOM      5  C   UNL     1      46.476   5.151  12.522  0.00  0.00    +0.000 A 
ATOM      6  C   UNL     1      46.200   3.920  13.079  0.00  0.00    +0.000 A 
ATOM      7  N   UNL     1      46.622   3.602  14.313  0.00  0.00    +0.000 NA
ATOM      8  C   UNL     1      47.320   4.523  14.987  0.00  0.00    +0.000 A 
ATOM      9  N   UNL     1      47.779   4.192  16.247  0.00  0.00    +0.000 N 
ATOM     10  N   UNL     1      47.660   5.719  14.521  0.00  0.00    +0.000 NA
ATOM     11  H   UNL     1      47.871   3.189  16.322  0.00  0.00    +0.000 HD
ATOM     12  H   UNL     1      48.592   4.753  16.464  0.00  0.00    +0.000 HD
BRANCH   4  14
ATOM     13  C   UNL     1      46.759   8.306  13.284  0.00  0.00    +0.000 C 
ATOM     14  O   UNL     1      47.521   7.237  12.728  0.00  0.00    +0.000 OA
ENDBRANCH   4  14
ENDBRANCH   2   6
ENDBRANCH   1   2
BRANCH   1  15
ATOM     15  C   UNL     1      43.450   3.750  10.986  0.00  0.00    +0.000 C 
ATOM     16  C   UNL     1      43.184   5.261  10.955  0.00  0.00    +0.000 C 
BRANCH  15  17
ATOM     17  C   UNL     1      44.423   3.386   9.873  0.00  0.00    +0.000 A 
ATOM     18  C   UNL     1      45.037   4.387   9.123  0.00  0.00    +0.000 A 
ATOM     19  C   UNL     1      45.934   4.029   8.115  0.00  0.00    +0.000 A 
ATOM     20  C   UNL     1      46.206   2.683   7.868  0.00  0.00    +0.000 A 
ATOM     21  C   UNL     1      45.566   1.755   8.674  0.00  0.00    +0.000 A 
ATOM     22  N   UNL     1      44.698   2.074   9.670  0.00  0.00    +0.000 NA
BRANCH  20  23
ATOM     23  C   UNL     1      47.150   2.322   6.779  0.00  0.00    +0.000 C 
ATOM     24  N   UNL     1      47.191   3.090   5.649  0.00  0.00    +0.000 N 
ATOM     25  O   UNL     1      47.892   1.352   6.883  0.00  0.00    +0.000 OA
ATOM     26  H   UNL     1      46.651   3.923   5.471  0.00  0.00    +0.000 HD
ATOM     27  H   UNL     1      47.863   2.813   4.943  0.00  0.00    +0.000 HD
ENDBRANCH  20  23
ENDBRANCH  15  17
ENDBRANCH   1  15
TORSDOF 6
ENDMDL
MODEL 2
REMARK VINA RESULT:    -7.643      1.307      2.108
REMARK INTER + INTRA:         -11.417
REMARK INTER:                 -10.470
REMARK INTRA:                  -0.948
REMARK UNBOUND:                -1.093
REMARK  Name = 
REMARK  8 active torsions:
REMARK  status: ('A' for Active; 'I' for Inactive)
REMARK    1  A    between atoms: C_1  and  O_2
REMARK    2  A    between atoms: O_2  and  C_3
REMARK    3  A    between atoms: C_5  and  N_6
REMARK    4  A    between atoms: N_6  and  C_7
REMARK    5  A    between atoms: C_7  and  C_8
REMARK    6  A    between atoms: C_8  and  C_9
REMARK    7  A    between atoms: C_8  and  C_10
REMARK    8  A    between atoms: C_13  and  C_14
REMARK                            x       y       z     vdW  Elec       q    Type
REMARK                         _______ _______ _______ _____ _____    ______ ____
ROOT
ATOM      1  C   UNL     1      43.954   3.311  12.385  0.00  0.00    +0.000 C 
ENDROOT
BRANCH   1   2
ATOM      2  N   UNL     1      45.417   3.143  12.355  0.00  0.00    +0.000 N 
ATOM      3  H   UNL     1      45.709   2.271  12.785  0.00  0.00    +0.000 HD
BRANCH   2   6
ATOM      4  C   UNL     1      47.488   4.959  14.713  0.00  0.00    +0.000 A 
ATOM      5  C   UNL     1      46.758   3.931  14.167  0.00  0.00    +0.000 A 
ATOM      6  C   UNL     1      46.149   4.190  12.958  0.00  0.00    +0.000 A 
ATOM      7  N   UNL     1      46.284   5.379  12.348  0.00  0.00    +0.000 NA
ATOM      8  C   UNL     1      47.033   6.306  12.956  0.00  0.00    +0.000 A 
ATOM      9  N   UNL     1      47.154   7.539  12.347  0.00  0.00    +0.000 N 
ATOM     10  N   UNL     1      47.630   6.158  14.132  0.00  0.00    +0.000 NA
ATOM     11  H   UNL     1      46.356   7.703  11.750  0.00  0.00    +0.000 HD
ATOM     12  H   UNL     1      47.364   8.238  13.047  0.00  0.00    +0.000 HD
BRANCH   4  14
ATOM     13  C   UNL     1      47.231   3.976  16.818  0.00  0.00    +0.000 C 
ATOM     14  O   UNL     1      48.075   4.715  15.938  0.00  0.00    +0.000 OA
ENDBRANCH   4  14
ENDBRANCH   2   6
ENDBRANCH   1   2
BRANCH   1  15
ATOM     15  C   UNL     1      43.423   3.754  10.999  0.00  0.00    +0.000 C 
ATOM     16  C   UNL     1      43.134   5.259  10.946  0.00  0.00    +0.000 C 
BRANCH  15  17
ATOM     17  C   UNL     1      44.396   3.387   9.886  0.00  0.00    +0.000 A 
ATOM     18  C   UNL     1      44.984   4.386   9.113  0.00  0.00    +0.000 A 
ATOM     19  C   UNL     1      45.881   4.027   8.104  0.00  0.00    +0.000 A 
ATOM     20  C   UNL     1      46.178   2.682   7.880  0.00  0.00    +0.000 A 
ATOM     21  C   UNL     1      45.562   1.757   8.709  0.00  0.00    +0.000 A 
ATOM     22  N   UNL     1      44.695   2.078   9.705  0.00  0.00    +0.000 NA
BRANCH  20  23
ATOM     23  C   UNL     1      47.120   2.319   6.792  0.00  0.00    +0.000 C 
ATOM     24  N   UNL     1      47.205   3.120   5.687  0.00  0.00    +0.000 N 
ATOM     25  O   UNL     1      47.823   1.318   6.872  0.00  0.00    +0.000 OA
ATOM     26  H   UNL     1      46.700   3.978   5.530  0.00  0.00    +0.000 HD
ATOM     27  H   UNL     1      47.874   2.839   4.980  0.00  0.00    +0.000 HD
ENDBRANCH  20  23
ENDBRANCH  15  17
ENDBRANCH   1  15
TORSDOF 6
ENDMDL
MODEL 3
REMARK VINA RESULT:    -7.461      1.279      1.591
REMARK INTER + INTRA:         -11.171
REMARK INTER:                 -10.446
REMARK INTRA:                  -0.726
REMARK UNBOUND:                -1.093
REMARK  Name = 
REMARK  8 active torsions:
REMARK  status: ('A' for Active; 'I' for Inactive)
REMARK    1  A    between atoms: C_1  and  O_2
REMARK    2  A    between atoms: O_2  and  C_3
REMARK    3  A    between atoms: C_5  and  N_6
REMARK    4  A    between atoms: N_6  and  C_7
REMARK    5  A    between atoms: C_7  and  C_8
REMARK    6  A    between atoms: C_8  and  C_9
REMARK    7  A    between atoms: C_8  and  C_10
REMARK    8  A    between atoms: C_13  and  C_14
REMARK                            x       y       z     vdW  Elec       q    Type
REMARK                         _______ _______ _______ _____ _____    ______ ____
ROOT
ATOM      1  C   UNL     1      44.781   3.803  12.255  0.00  0.00    +0.000 C 
ENDROOT
BRANCH   1   2
ATOM      2  N   UNL     1      45.684   4.965  12.323  0.00  0.00    +0.000 N 
ATOM      3  H   UNL     1      46.261   5.047  11.491  0.00  0.00    +0.000 HD
BRANCH   2   6
ATOM      4  C   UNL     1      48.354   5.937  14.574  0.00  0.00    +0.000 A 
ATOM      5  C   UNL     1      47.560   5.915  13.454  0.00  0.00    +0.000 A 
ATOM      6  C   UNL     1      46.537   4.991  13.448  0.00  0.00    +0.000 A 
ATOM      7  N   UNL     1      46.326   4.176  14.494  0.00  0.00    +0.000 NA
ATOM      8  C   UNL     1      47.146   4.292  15.545  0.00  0.00    +0.000 A 
ATOM      9  N   UNL     1      46.951   3.438  16.613  0.00  0.00    +0.000 N 
ATOM     10  N   UNL     1      48.174   5.127  15.627  0.00  0.00    +0.000 NA
ATOM     11  H   UNL     1      46.489   2.598  16.295  0.00  0.00    +0.000 HD
ATOM     12  H   UNL     1      47.820   3.330  17.118  0.00  0.00    +0.000 HD
BRANCH   4  14
ATOM     13  C   UNL     1      49.518   7.543  13.339  0.00  0.00    +0.000 C 
ATOM     14  O   UNL     1      49.398   6.839  14.573  0.00  0.00    +0.000 OA
ENDBRANCH   4  14
ENDBRANCH   2   6
ENDBRANCH   1   2
BRANCH   1  15
ATOM     15  C   UNL     1      43.971   3.814  10.936  0.00  0.00    +0.000 C 
ATOM     16  C   UNL     1      43.328   5.179  10.665  0.00  0.00    +0.000 C 
BRANCH  15  17
ATOM     17  C   UNL     1      44.835   3.417   9.747  0.00  0.00    +0.000 A 
ATOM     18  C   UNL     1      45.066   2.072   9.465  0.00  0.00    +0.000 A 
ATOM     19  C   UNL     1      45.854   1.732   8.364  0.00  0.00    +0.000 A 
ATOM     20  C   UNL     1      46.398   2.734   7.559  0.00  0.00    +0.000 A 
ATOM     21  C   UNL     1      46.101   4.044   7.900  0.00  0.00    +0.000 A 
ATOM     22  N   UNL     1      45.329   4.404   8.959  0.00  0.00    +0.000 NA
BRANCH  20  23
ATOM     23  C   UNL     1      47.247   2.353   6.402  0.00  0.00    +0.000 C 
ATOM     24  N   UNL     1      47.390   3.226   5.360  0.00  0.00    +0.000 N 
ATOM     25  O   UNL     1      47.823   1.270   6.372  0.00  0.00    +0.000 OA
ATOM     26  H   UNL     1      46.990   4.149   5.295  0.00  0.00    +0.000 HD
ATOM     27  H   UNL     1      47.993   2.926   4.603  0.00  0.00    +0.000 HD
ENDBRANCH  20  23
ENDBRANCH  15  17
ENDBRANCH   1  15
TORSDOF 6
ENDMDL
MODEL 4
REMARK VINA RESULT:    -6.588      2.246      2.947
REMARK INTER + INTRA:          -9.992
REMARK INTER:                  -9.083
REMARK INTRA:                  -0.909
REMARK UNBOUND:                -1.093
REMARK  Name = 
REMARK  8 active torsions:
REMARK  status: ('A' for Active; 'I' for Inactive)
REMARK    1  A    between atoms: C_1  and  O_2
REMARK    2  A    between atoms: O_2  and  C_3
REMARK    3  A    between atoms: C_5  and  N_6
REMARK    4  A    between atoms: N_6  and  C_7
REMARK    5  A    between atoms: C_7  and  C_8
REMARK    6  A    between atoms: C_8  and  C_9
REMARK    7  A    between atoms: C_8  and  C_10
REMARK    8  A    between atoms: C_13  and  C_14
REMARK                            x       y       z     vdW  Elec       q    Type
REMARK                         _______ _______ _______ _____ _____    ______ ____
ROOT
ATOM      1  C   UNL     1      44.754   4.886  12.766  0.00  0.00    +0.000 C 
ENDROOT
BRANCH   1   2
ATOM      2  N   UNL     1      44.440   6.301  13.026  0.00  0.00    +0.000 N 
ATOM      3  H   UNL     1      43.624   6.611  12.508  0.00  0.00    +0.000 HD
BRANCH   2   6
ATOM      4  C   UNL     1      47.747   7.576  12.260  0.00  0.00    +0.000 A 
ATOM      5  C   UNL     1      46.750   6.676  12.549  0.00  0.00    +0.000 A 
ATOM      6  C   UNL     1      45.493   7.203  12.757  0.00  0.00    +0.000 A 
ATOM      7  N   UNL     1      45.265   8.522  12.660  0.00  0.00    +0.000 NA
ATOM      8  C   UNL     1      46.302   9.310  12.354  0.00  0.00    +0.000 A 
ATOM      9  N   UNL     1      46.078  10.672  12.279  0.00  0.00    +0.000 N 
ATOM     10  N   UNL     1      47.549   8.898  12.168  0.00  0.00    +0.000 NA
ATOM     11  H   UNL     1      45.280  10.916  12.846  0.00  0.00    +0.000 HD
ATOM     12  H   UNL     1      46.944  11.162  12.456  0.00  0.00    +0.000 HD
BRANCH   4  14
ATOM     13  C   UNL     1      49.948   8.028  11.616  0.00  0.00    +0.000 C 
ATOM     14  O   UNL     1      49.013   7.056  12.080  0.00  0.00    +0.000 OA
ENDBRANCH   4  14
ENDBRANCH   2   6
ENDBRANCH   1   2
BRANCH   1  15
ATOM     15  C   UNL     1      43.787   4.294  11.712  0.00  0.00    +0.000 C 
ATOM     16  C   UNL     1      42.655   5.266  11.357  0.00  0.00    +0.000 C 
BRANCH  15  17
ATOM     17  C   UNL     1      44.524   3.891  10.441  0.00  0.00    +0.000 A 
ATOM     18  C   UNL     1      45.159   4.858   9.664  0.00  0.00    +0.000 A 
ATOM     19  C   UNL     1      45.837   4.464   8.508  0.00  0.00    +0.000 A 
ATOM     20  C   UNL     1      45.874   3.117   8.144  0.00  0.00    +0.000 A 
ATOM     21  C   UNL     1      45.232   2.222   8.986  0.00  0.00    +0.000 A 
ATOM     22  N   UNL     1      44.574   2.575  10.122  0.00  0.00    +0.000 NA
BRANCH  20  23
ATOM     23  C   UNL     1      46.585   2.721   6.903  0.00  0.00    +0.000 C 
ATOM     24  N   UNL     1      46.919   3.681   5.988  0.00  0.00    +0.000 N 
ATOM     25  O   UNL     1      46.880   1.550   6.691  0.00  0.00    +0.000 OA
ATOM     26  H   UNL     1      46.753   4.672   6.074  0.00  0.00    +0.000 HD
ATOM     27  H   UNL     1      47.417   3.363   5.166  0.00  0.00    +0.000 HD
ENDBRANCH  20  23
ENDBRANCH  15  17
ENDBRANCH   1  15
TORSDOF 6
ENDMDL
MODEL 5
REMARK VINA RESULT:    -6.567      2.256      6.969
REMARK INTER + INTRA:          -9.963
REMARK INTER:                  -9.162
REMARK INTRA:                  -0.801
REMARK UNBOUND:                -1.093
REMARK  Name = 
REMARK  8 active torsions:
REMARK  status: ('A' for Active; 'I' for Inactive)
REMARK    1  A    between atoms: C_1  and  O_2
REMARK    2  A    between atoms: O_2  and  C_3
REMARK    3  A    between atoms: C_5  and  N_6
REMARK    4  A    between atoms: N_6  and  C_7
REMARK    5  A    between atoms: C_7  and  C_8
REMARK    6  A    between atoms: C_8  and  C_9
REMARK    7  A    between atoms: C_8  and  C_10
REMARK    8  A    between atoms: C_13  and  C_14
REMARK                            x       y       z     vdW  Elec       q    Type
REMARK                         _______ _______ _______ _____ _____    ______ ____
ROOT
ATOM      1  C   UNL     1      45.476   6.816  11.996  0.00  0.00    +0.000 C 
ENDROOT
BRANCH   1   2
ATOM      2  N   UNL     1      44.999   6.531  10.632  0.00  0.00    +0.000 N 
ATOM      3  H   UNL     1      44.143   7.032  10.416  0.00  0.00    +0.000 HD
BRANCH   2   6
ATOM      4  C   UNL     1      45.107   3.326   8.941  0.00  0.00    +0.000 A 
ATOM      5  C   UNL     1      45.305   4.665   9.173  0.00  0.00    +0.000 A 
ATOM      6  C   UNL     1      44.786   5.164  10.349  0.00  0.00    +0.000 A 
ATOM      7  N   UNL     1      44.141   4.371  11.219  0.00  0.00    +0.000 NA
ATOM      8  C   UNL     1      44.019   3.077  10.906  0.00  0.00    +0.000 A 
ATOM      9  N   UNL     1      43.333   2.261  11.785  0.00  0.00    +0.000 N 
ATOM     10  N   UNL     1      44.457   2.515   9.787  0.00  0.00    +0.000 NA
ATOM     11  H   UNL     1      42.686   2.815  12.328  0.00  0.00    +0.000 HD
ATOM     12  H   UNL     1      42.960   1.468  11.282  0.00  0.00    +0.000 HD
BRANCH   4  14
ATOM     13  C   UNL     1      46.433   1.684   7.936  0.00  0.00    +0.000 C 
ATOM     14  O   UNL     1      45.600   2.827   7.752  0.00  0.00    +0.000 OA
ENDBRANCH   4  14
ENDBRANCH   2   6
ENDBRANCH   1   2
BRANCH   1  15
ATOM     15  C   UNL     1      46.953   6.382  12.163  0.00  0.00    +0.000 C 
ATOM     16  C   UNL     1      47.921   7.562  12.010  0.00  0.00    +0.000 C 
BRANCH  15  17
ATOM     17  C   UNL     1      47.188   5.707  13.508  0.00  0.00    +0.000 A 
ATOM     18  C   UNL     1      46.531   4.518  13.820  0.00  0.00    +0.000 A 
ATOM     19  C   UNL     1      46.770   3.912  15.055  0.00  0.00    +0.000 A 
ATOM     20  C   UNL     1      47.658   4.496  15.960  0.00  0.00    +0.000 A 
ATOM     21  C   UNL     1      48.282   5.668  15.559  0.00  0.00    +0.000 A 
ATOM     22  N   UNL     1      48.077   6.273  14.360  0.00  0.00    +0.000 NA
BRANCH  20  23
ATOM     23  C   UNL     1      47.885   3.846  17.275  0.00  0.00    +0.000 C 
ATOM     24  N   UNL     1      47.027   2.867  17.694  0.00  0.00    +0.000 N 
ATOM     25  O   UNL     1      48.830   4.170  17.984  0.00  0.00    +0.000 OA
ATOM     26  H   UNL     1      46.239   2.503  17.181  0.00  0.00    +0.000 HD
ATOM     27  H   UNL     1      47.234   2.443  18.590  0.00  0.00    +0.000 HD
ENDBRANCH  20  23
ENDBRANCH  15  17
ENDBRANCH   1  15
TORSDOF 6
ENDMDL
MODEL 6
REMARK VINA RESULT:    -6.532      1.893      2.437
REMARK INTER + INTRA:          -9.916
REMARK INTER:                  -9.062
REMARK INTRA:                  -0.854
REMARK UNBOUND:                -1.093
REMARK  Name = 
REMARK  8 active torsions:
REMARK  status: ('A' for Active; 'I' for Inactive)
REMARK    1  A    between atoms: C_1  and  O_2
REMARK    2  A    between atoms: O_2  and  C_3
REMARK    3  A    between atoms: C_5  and  N_6
REMARK    4  A    between atoms: N_6  and  C_7
REMARK    5  A    between atoms: C_7  and  C_8
REMARK    6  A    between atoms: C_8  and  C_9
REMARK    7  A    between atoms: C_8  and  C_10
REMARK    8  A    between atoms: C_13  and  C_14
REMARK                            x       y       z     vdW  Elec       q    Type
REMARK                         _______ _______ _______ _____ _____    ______ ____
ROOT
ATOM      1  C   UNL     1      44.617   4.743  12.881  0.00  0.00    +0.000 C 
ENDROOT
BRANCH   1   2
ATOM      2  N   UNL     1      44.503   6.181  13.180  0.00  0.00    +0.000 N 
ATOM      3  H   UNL     1      43.708   6.605  12.711  0.00  0.00    +0.000 HD
BRANCH   2   6
ATOM      4  C   UNL     1      46.601   9.005  12.303  0.00  0.00    +0.000 A 
ATOM      5  C   UNL     1      45.466   8.281  12.573  0.00  0.00    +0.000 A 
ATOM      6  C   UNL     1      45.648   6.946  12.868  0.00  0.00    +0.000 A 
ATOM      7  N   UNL     1      46.875   6.401  12.907  0.00  0.00    +0.000 NA
ATOM      8  C   UNL     1      47.916   7.199  12.648  0.00  0.00    +0.000 A 
ATOM      9  N   UNL     1      49.179   6.639  12.660  0.00  0.00    +0.000 N 
ATOM     10  N   UNL     1      47.835   8.484  12.324  0.00  0.00    +0.000 NA
ATOM     11  H   UNL     1      49.112   5.650  12.468  0.00  0.00    +0.000 HD
ATOM     12  H   UNL     1      49.794   7.188  12.075  0.00  0.00    +0.000 HD
BRANCH   4  14
ATOM     13  C   UNL     1      45.072  10.641  11.635  0.00  0.00    +0.000 C 
ATOM     14  O   UNL     1      46.422  10.334  11.978  0.00  0.00    +0.000 OA
ENDBRANCH   4  14
ENDBRANCH   2   6
ENDBRANCH   1   2
BRANCH   1  15
ATOM     15  C   UNL     1      43.654   4.342  11.737  0.00  0.00    +0.000 C 
ATOM     16  C   UNL     1      42.678   5.470  11.383  0.00  0.00    +0.000 C 
BRANCH  15  17
ATOM     17  C   UNL     1      44.416   3.922  10.488  0.00  0.00    +0.000 A 
ATOM     18  C   UNL     1      45.088   4.875   9.723  0.00  0.00    +0.000 A 
ATOM     19  C   UNL     1      45.788   4.465   8.587  0.00  0.00    +0.000 A 
ATOM     20  C   UNL     1      45.811   3.116   8.229  0.00  0.00    +0.000 A 
ATOM     21  C   UNL     1      45.132   2.236   9.056  0.00  0.00    +0.000 A 
ATOM     22  N   UNL     1      44.452   2.604  10.174  0.00  0.00    +0.000 NA
BRANCH  20  23
ATOM     23  C   UNL     1      46.547   2.704   7.007  0.00  0.00    +0.000 C 
ATOM     24  N   UNL     1      46.939   3.656   6.109  0.00  0.00    +0.000 N 
ATOM     25  O   UNL     1      46.811   1.525   6.797  0.00  0.00    +0.000 OA
ATOM     26  H   UNL     1      46.802   4.651   6.194  0.00  0.00    +0.000 HD
ATOM     27  H   UNL     1      47.452   3.326   5.300  0.00  0.00    +0.000 HD
ENDBRANCH  20  23
ENDBRANCH  15  17
ENDBRANCH   1  15
TORSDOF 6
ENDMDL
MODEL 7
REMARK VINA RESULT:    -6.381      2.913      7.217
REMARK INTER + INTRA:          -9.713
REMARK INTER:                  -8.990
REMARK INTRA:                  -0.723
REMARK UNBOUND:                -1.093
REMARK  Name = 
REMARK  8 active torsions:
REMARK  status: ('A' for Active; 'I' for Inactive)
REMARK    1  A    between atoms: C_1  and  O_2
REMARK    2  A    between atoms: O_2  and  C_3
REMARK    3  A    between atoms: C_5  and  N_6
REMARK    4  A    between atoms: N_6  and  C_7
REMARK    5  A    between atoms: C_7  and  C_8
REMARK    6  A    between atoms: C_8  and  C_9
REMARK    7  A    between atoms: C_8  and  C_10
REMARK    8  A    between atoms: C_13  and  C_14
REMARK                            x       y       z     vdW  Elec       q    Type
REMARK                         _______ _______ _______ _____ _____    ______ ____
ROOT
ATOM      1  C   UNL     1      46.875   7.356  12.094  0.00  0.00    +0.000 C 
ENDROOT
BRANCH   1   2
ATOM      2  N   UNL     1      46.565   6.538  10.909  0.00  0.00    +0.000 N 
ATOM      3  H   UNL     1      46.574   7.087  10.055  0.00  0.00    +0.000 HD
BRANCH   2   6
ATOM      4  C   UNL     1      44.132   3.854  10.755  0.00  0.00    +0.000 A 
ATOM      5  C   UNL     1      45.338   4.504  10.659  0.00  0.00    +0.000 A 
ATOM      6  C   UNL     1      45.334   5.848  10.968  0.00  0.00    +0.000 A 
ATOM      7  N   UNL     1      44.211   6.471  11.358  0.00  0.00    +0.000 NA
ATOM      8  C   UNL     1      43.093   5.742  11.437  0.00  0.00    +0.000 A 
ATOM      9  N   UNL     1      41.928   6.383  11.812  0.00  0.00    +0.000 N 
ATOM     10  N   UNL     1      42.994   4.454  11.130  0.00  0.00    +0.000 NA
ATOM     11  H   UNL     1      41.995   7.365  11.588  0.00  0.00    +0.000 HD
ATOM     12  H   UNL     1      41.134   5.874  11.448  0.00  0.00    +0.000 HD
BRANCH   4  14
ATOM     13  C   UNL     1      44.666   2.269   9.123  0.00  0.00    +0.000 C 
ATOM     14  O   UNL     1      44.125   2.516  10.419  0.00  0.00    +0.000 OA
ENDBRANCH   4  14
ENDBRANCH   2   6
ENDBRANCH   1   2
BRANCH   1  15
ATOM     15  C   UNL     1      48.207   6.902  12.741  0.00  0.00    +0.000 C 
ATOM     16  C   UNL     1      49.115   8.089  13.084  0.00  0.00    +0.000 C 
BRANCH  15  17
ATOM     17  C   UNL     1      47.964   6.073  13.995  0.00  0.00    +0.000 A 
ATOM     18  C   UNL     1      47.039   5.031  13.979  0.00  0.00    +0.000 A 
ATOM     19  C   UNL     1      46.840   4.278  15.138  0.00  0.00    +0.000 A 
ATOM     20  C   UNL     1      47.565   4.572  16.294  0.00  0.00    +0.000 A 
ATOM     21  C   UNL     1      48.477   5.612  16.216  0.00  0.00    +0.000 A 
ATOM     22  N   UNL     1      48.700   6.354  15.098  0.00  0.00    +0.000 NA
BRANCH  20  23
ATOM     23  C   UNL     1      47.326   3.771  17.521  0.00  0.00    +0.000 C 
ATOM     24  N   UNL     1      47.968   4.113  18.678  0.00  0.00    +0.000 N 
ATOM     25  O   UNL     1      46.561   2.813  17.510  0.00  0.00    +0.000 OA
ATOM     26  H   UNL     1      48.591   4.894  18.808  0.00  0.00    +0.000 HD
ATOM     27  H   UNL     1      47.760   3.545  19.491  0.00  0.00    +0.000 HD
ENDBRANCH  20  23
ENDBRANCH  15  17
ENDBRANCH   1  15
TORSDOF 6
ENDMDL
MODEL 8
REMARK VINA RESULT:    -6.193      3.047      5.164
REMARK INTER + INTRA:          -9.457
REMARK INTER:                  -8.574
REMARK INTRA:                  -0.883
REMARK UNBOUND:                -1.093
REMARK  Name = 
REMARK  8 active torsions:
REMARK  status: ('A' for Active; 'I' for Inactive)
REMARK    1  A    between atoms: C_1  and  O_2
REMARK    2  A    between atoms: O_2  and  C_3
REMARK    3  A    between atoms: C_5  and  N_6
REMARK    4  A    between atoms: N_6  and  C_7
REMARK    5  A    between atoms: C_7  and  C_8
REMARK    6  A    between atoms: C_8  and  C_9
REMARK    7  A    between atoms: C_8  and  C_10
REMARK    8  A    between atoms: C_13  and  C_14
REMARK                            x       y       z     vdW  Elec       q    Type
REMARK                         _______ _______ _______ _____ _____    ______ ____
ROOT
ATOM      1  C   UNL     1      48.613   6.660  14.258  0.00  0.00    +0.000 C 
ENDROOT
BRANCH   1   2
ATOM      2  N   UNL     1      48.092   6.662  15.636  0.00  0.00    +0.000 N 
ATOM      3  H   UNL     1      48.416   7.466  16.164  0.00  0.00    +0.000 HD
BRANCH   2   6
ATOM      4  C   UNL     1      49.930   4.223  17.590  0.00  0.00    +0.000 A 
ATOM      5  C   UNL     1      49.681   5.345  16.838  0.00  0.00    +0.000 A 
ATOM      6  C   UNL     1      48.388   5.502  16.386  0.00  0.00    +0.000 A 
ATOM      7  N   UNL     1      47.430   4.611  16.686  0.00  0.00    +0.000 NA
ATOM      8  C   UNL     1      47.774   3.562  17.442  0.00  0.00    +0.000 A 
ATOM      9  N   UNL     1      46.799   2.628  17.732  0.00  0.00    +0.000 N 
ATOM     10  N   UNL     1      48.996   3.312  17.895  0.00  0.00    +0.000 NA
ATOM     11  H   UNL     1      46.084   2.651  17.020  0.00  0.00    +0.000 HD
ATOM     12  H   UNL     1      47.237   1.737  17.925  0.00  0.00    +0.000 HD
BRANCH   4  14
ATOM     13  C   UNL     1      51.728   2.738  17.748  0.00  0.00    +0.000 C 
ATOM     14  O   UNL     1      51.229   4.046  18.020  0.00  0.00    +0.000 OA
ENDBRANCH   4  14
ENDBRANCH   2   6
ENDBRANCH   1   2
BRANCH   1  15
ATOM     15  C   UNL     1      47.582   7.275  13.280  0.00  0.00    +0.000 C 
ATOM     16  C   UNL     1      48.257   8.081  12.163  0.00  0.00    +0.000 C 
BRANCH  15  17
ATOM     17  C   UNL     1      46.691   6.206  12.663  0.00  0.00    +0.000 A 
ATOM     18  C   UNL     1      46.211   6.357  11.363  0.00  0.00    +0.000 A 
ATOM     19  C   UNL     1      45.403   5.359  10.815  0.00  0.00    +0.000 A 
ATOM     20  C   UNL     1      45.086   4.227  11.566  0.00  0.00    +0.000 A 
ATOM     21  C   UNL     1      45.621   4.149  12.842  0.00  0.00    +0.000 A 
ATOM     22  N   UNL     1      46.419   5.100  13.397  0.00  0.00    +0.000 NA
BRANCH  20  23
ATOM     23  C   UNL     1      44.211   3.185  10.971  0.00  0.00    +0.000 C 
ATOM     24  N   UNL     1      44.733   2.319  10.051  0.00  0.00    +0.000 N 
ATOM     25  O   UNL     1      43.033   3.089  11.296  0.00  0.00    +0.000 OA
ATOM     26  H   UNL     1      45.690   2.288   9.734  0.00  0.00    +0.000 HD
ATOM     27  H   UNL     1      44.101   1.617   9.686  0.00  0.00    +0.000 HD
ENDBRANCH  20  23
ENDBRANCH  15  17
ENDBRANCH   1  15
TORSDOF 6
ENDMDL
MODEL 9
REMARK VINA RESULT:    -5.892      2.748      7.508
REMARK INTER + INTRA:          -9.051
REMARK INTER:                  -8.196
REMARK INTRA:                  -0.855
REMARK UNBOUND:                -1.093
REMARK  Name = 
REMARK  8 active torsions:
REMARK  status: ('A' for Active; 'I' for Inactive)
REMARK    1  A    between atoms: C_1  and  O_2
REMARK    2  A    between atoms: O_2  and  C_3
REMARK    3  A    between atoms: C_5  and  N_6
REMARK    4  A    between atoms: N_6  and  C_7
REMARK    5  A    between atoms: C_7  and  C_8
REMARK    6  A    between atoms: C_8  and  C_9
REMARK    7  A    between atoms: C_8  and  C_10
REMARK    8  A    between atoms: C_13  and  C_14
REMARK                            x       y       z     vdW  Elec       q    Type
REMARK                         _______ _______ _______ _____ _____    ______ ____
ROOT
ATOM      1  C   UNL     1      46.613   7.085  12.729  0.00  0.00    +0.000 C 
ENDROOT
BRANCH   1   2
ATOM      2  N   UNL     1      45.588   6.132  13.187  0.00  0.00    +0.000 N 
ATOM      3  H   UNL     1      45.900   5.594  13.990  0.00  0.00    +0.000 HD
BRANCH   2   6
ATOM      4  C   UNL     1      45.053   4.563   9.962  0.00  0.00    +0.000 A 
ATOM      5  C   UNL     1      45.477   5.481  10.892  0.00  0.00    +0.000 A 
ATOM      6  C   UNL     1      45.139   5.223  12.203  0.00  0.00    +0.000 A 
ATOM      7  N   UNL     1      44.450   4.122  12.543  0.00  0.00    +0.000 NA
ATOM      8  C   UNL     1      44.101   3.282  11.562  0.00  0.00    +0.000 A 
ATOM      9  N   UNL     1      43.369   2.161  11.902  0.00  0.00    +0.000 N 
ATOM     10  N   UNL     1      44.354   3.463  10.272  0.00  0.00    +0.000 NA
ATOM     11  H   UNL     1      42.864   2.332  12.759  0.00  0.00    +0.000 HD
ATOM     12  H   UNL     1      42.836   1.854  11.100  0.00  0.00    +0.000 HD
BRANCH   4  14
ATOM     13  C   UNL     1      45.531   3.650   7.865  0.00  0.00    +0.000 C 
ATOM     14  O   UNL     1      45.362   4.832   8.644  0.00  0.00    +0.000 OA
ENDBRANCH   4  14
ENDBRANCH   2   6
ENDBRANCH   1   2
BRANCH   1  15
ATOM     15  C   UNL     1      48.034   6.551  13.035  0.00  0.00    +0.000 C 
ATOM     16  C   UNL     1      49.125   7.556  12.643  0.00  0.00    +0.000 C 
BRANCH  15  17
ATOM     17  C   UNL     1      48.189   6.186  14.505  0.00  0.00    +0.000 A 
ATOM     18  C   UNL     1      48.792   7.079  15.390  0.00  0.00    +0.000 A 
ATOM     19  C   UNL     1      48.914   6.727  16.735  0.00  0.00    +0.000 A 
ATOM     20  C   UNL     1      48.435   5.494  17.181  0.00  0.00    +0.000 A 
ATOM     21  C   UNL     1      47.833   4.676  16.237  0.00  0.00    +0.000 A 
ATOM     22  N   UNL     1      47.690   4.998  14.924  0.00  0.00    +0.000 NA
BRANCH  20  23
ATOM     23  C   UNL     1      48.590   5.131  18.612  0.00  0.00    +0.000 C 
ATOM     24  N   UNL     1      48.939   6.098  19.513  0.00  0.00    +0.000 N 
ATOM     25  O   UNL     1      48.406   3.981  18.995  0.00  0.00    +0.000 OA
ATOM     26  H   UNL     1      49.085   7.075  19.315  0.00  0.00    +0.000 HD
ATOM     27  H   UNL     1      49.017   5.803  20.479  0.00  0.00    +0.000 HD
ENDBRANCH  20  23
ENDBRANCH  15  17
ENDBRANCH   1  15
TORSDOF 6
ENDMDL
