MODEL 1
REMARK VINA RESULT:    -8.921      0.000      0.000
REMARK INTER + INTRA:         -12.759
REMARK INTER:                 -12.050
REMARK INTRA:                  -0.710
REMARK UNBOUND:                -0.710
REMARK  Name = 
REMARK  7 active torsions:
REMARK  status: ('A' for Active; 'I' for Inactive)
REMARK    1  A    between atoms: C_1  and  C_2
REMARK    2  A    between atoms: C_5  and  O_6
REMARK    3  A    between atoms: O_6  and  C_7
REMARK    4  A    between atoms: C_11  and  C_12
REMARK    5  A    between atoms: C_12  and  C_13
REMARK    6  A    between atoms: C_13  and  N_14
REMARK    7  A    between atoms: C_18  and  C_19
REMARK                            x       y       z     vdW  Elec       q    Type
REMARK                         _______ _______ _______ _____ _____    ______ ____
ROOT
ATOM      1  C   UNL     1      43.195   4.163  11.221  0.00  0.00    +0.000 C 
ENDROOT
BRANCH   1   2
ATOM      2  N   UNL     1      43.843   4.776  10.058  0.00  0.00    +0.000 N 
ATOM      3  C   UNL     1      44.659   3.847   9.370  0.00  0.00    +0.000 A 
ATOM      4  C   UNL     1      45.362   4.274   8.250  0.00  0.00    +0.000 A 
ATOM      5  C   UNL     1      46.165   3.370   7.557  0.00  0.00    +0.000 A 
ATOM      6  C   UNL     1      46.229   2.068   8.019  0.00  0.00    +0.000 A 
ATOM      7  N   UNL     1      45.535   1.656   9.101  0.00  0.00    +0.000 NA
ATOM      8  N   UNL     1      44.740   2.554   9.763  0.00  0.00    +0.000 NA
ATOM      9  H   UNL     1      44.413   5.579  10.313  0.00  0.00    +0.000 HD
BRANCH   6  10
ATOM     10  C   UNL     1      47.082   1.042   7.353  0.00  0.00    +0.000 C 
ATOM     11  N   UNL     1      46.774  -0.261   7.619  0.00  0.00    +0.000 N 
ATOM     12  O   UNL     1      48.012   1.349   6.616  0.00  0.00    +0.000 OA
ATOM     13  H   UNL     1      46.008  -0.501   8.240  0.00  0.00    +0.000 HD
ATOM     14  H   UNL     1      47.328  -0.998   7.204  0.00  0.00    +0.000 HD
ENDBRANCH   6  10
ENDBRANCH   1   2
BRANCH   1  15
ATOM     15  C   UNL     1      43.071   5.144  12.392  0.00  0.00    +0.000 C 
BRANCH  15  20
ATOM     16  C   UNL     1      46.624   4.972  13.736  0.00  0.00    +0.000 A 
ATOM     17  C   UNL     1      47.148   6.178  13.275  0.00  0.00    +0.000 A 
ATOM     18  C   UNL     1      46.322   7.104  12.642  0.00  0.00    +0.000 A 
ATOM     19  C   UNL     1      44.978   6.803  12.426  0.00  0.00    +0.000 A 
ATOM     20  C   UNL     1      44.461   5.560  12.819  0.00  0.00    +0.000 A 
ATOM     21  C   UNL     1      45.291   4.648  13.490  0.00  0.00    +0.000 A 
BRANCH  16  22
ATOM     22  O   UNL     1      47.503   4.169  14.411  0.00  0.00    +0.000 OA
BRANCH  22  27
ATOM     23  C   UNL     1      49.041   6.085  16.385  0.00  0.00    +0.000 C 
ATOM     24  C   UNL     1      48.297   4.834  16.805  0.00  0.00    +0.000 C 
ATOM     25  O   UNL     1      49.196   3.692  16.909  0.00  0.00    +0.000 OA
ATOM     26  C   UNL     1      48.130   2.829  16.428  0.00  0.00    +0.000 C 
ATOM     27  C   UNL     1      47.369   4.038  15.847  0.00  0.00    +0.000 C 
ENDBRANCH  22  27
ENDBRANCH  16  22
ENDBRANCH  15  20
ENDBRANCH   1  15
TORSDOF 6
ENDMDL
MODEL 2
REMARK VINA RESULT:    -7.822      2.738      3.824
REMARK INTER + INTRA:         -11.275
REMARK INTER:                 -10.396
REMARK INTRA:                  -0.879
REMARK UNBOUND:                -0.710
REMARK  Name = 
REMARK  7 active torsions:
REMARK  status: ('A' for Active; 'I' for Inactive)
REMARK    1  A    between atoms: C_1  and  C_2
REMARK    2  A    between atoms: C_5  and  O_6
REMARK    3  A    between atoms: O_6  and  C_7
REMARK    4  A    between atoms: C_11  and  C_12
REMARK    5  A    between atoms: C_12  and  C_13
REMARK    6  A    between atoms: C_13  and  N_14
REMARK    7  A    between atoms: C_18  and  C_19
REMARK                            x       y       z     vdW  Elec       q    Type
REMARK                         _______ _______ _______ _____ _____    ______ ____
ROOT
ATOM      1  C   UNL     1      43.423   5.185  10.619  0.00  0.00    +0.000 C 
ENDROOT
BRANCH   1   2
ATOM      2  N   UNL     1      43.719   3.750  10.577  0.00  0.00    +0.000 N 
ATOM      3  C   UNL     1      44.646   3.442   9.553  0.00  0.00    +0.000 A 
ATOM      4  C   UNL     1      45.020   2.117   9.365  0.00  0.00    +0.000 A 
ATOM      5  C   UNL     1      45.938   1.797   8.365  0.00  0.00    +0.000 A 
ATOM      6  C   UNL     1      46.444   2.827   7.593  0.00  0.00    +0.000 A 
ATOM      7  N   UNL     1      46.086   4.114   7.788  0.00  0.00    +0.000 NA
ATOM      8  N   UNL     1      45.192   4.412   8.783  0.00  0.00    +0.000 NA
ATOM      9  H   UNL     1      42.883   3.188  10.434  0.00  0.00    +0.000 HD
BRANCH   6  10
ATOM     10  C   UNL     1      47.412   2.572   6.487  0.00  0.00    +0.000 C 
ATOM     11  N   UNL     1      47.242   3.317   5.356  0.00  0.00    +0.000 N 
ATOM     12  O   UNL     1      48.302   1.736   6.583  0.00  0.00    +0.000 OA
ATOM     13  H   UNL     1      46.493   3.998   5.285  0.00  0.00    +0.000 HD
ATOM     14  H   UNL     1      47.861   3.176   4.569  0.00  0.00    +0.000 HD
ENDBRANCH   6  10
ENDBRANCH   1   2
BRANCH   1  15
ATOM     15  C   UNL     1      43.650   5.776  12.015  0.00  0.00    +0.000 C 
BRANCH  15  20
ATOM     16  C   UNL     1      47.321   6.762  12.035  0.00  0.00    +0.000 A 
ATOM     17  C   UNL     1      47.800   6.008  13.105  0.00  0.00    +0.000 A 
ATOM     18  C   UNL     1      46.970   5.087  13.739  0.00  0.00    +0.000 A 
ATOM     19  C   UNL     1      45.643   4.952  13.332  0.00  0.00    +0.000 A 
ATOM     20  C   UNL     1      45.133   5.761  12.307  0.00  0.00    +0.000 A 
ATOM     21  C   UNL     1      45.987   6.661  11.649  0.00  0.00    +0.000 A 
BRANCH  16  22
ATOM     22  O   UNL     1      48.240   7.581  11.435  0.00  0.00    +0.000 OA
BRANCH  22  27
ATOM     23  C   UNL     1      48.606  10.693  11.100  0.00  0.00    +0.000 C 
ATOM     24  C   UNL     1      49.497   9.809  11.947  0.00  0.00    +0.000 C 
ATOM     25  O   UNL     1      50.688   9.397  11.214  0.00  0.00    +0.000 OA
ATOM     26  C   UNL     1      50.641   8.113  11.891  0.00  0.00    +0.000 C 
ATOM     27  C   UNL     1      49.161   8.327  12.268  0.00  0.00    +0.000 C 
ENDBRANCH  22  27
ENDBRANCH  16  22
ENDBRANCH  15  20
ENDBRANCH   1  15
TORSDOF 6
ENDMDL
MODEL 3
REMARK VINA RESULT:    -7.447      1.854      2.287
REMARK INTER + INTRA:         -10.769
REMARK INTER:                 -10.040
REMARK INTRA:                  -0.729
REMARK UNBOUND:                -0.710
REMARK  Name = 
REMARK  7 active torsions:
REMARK  status: ('A' for Active; 'I' for Inactive)
REMARK    1  A    between atoms: C_1  and  C_2
REMARK    2  A    between atoms: C_5  and  O_6
REMARK    3  A    between atoms: O_6  and  C_7
REMARK    4  A    between atoms: C_11  and  C_12
REMARK    5  A    between atoms: C_12  and  C_13
REMARK    6  A    between atoms: C_13  and  N_14
REMARK    7  A    between atoms: C_18  and  C_19
REMARK                            x       y       z     vdW  Elec       q    Type
REMARK                         _______ _______ _______ _____ _____    ______ ____
ROOT
ATOM      1  C   UNL     1      43.840   5.379  10.775  0.00  0.00    +0.000 C 
ENDROOT
BRANCH   1   2
ATOM      2  N   UNL     1      43.981   3.934  10.575  0.00  0.00    +0.000 N 
ATOM      3  C   UNL     1      44.822   3.643   9.475  0.00  0.00    +0.000 A 
ATOM      4  C   UNL     1      45.046   2.314   9.135  0.00  0.00    +0.000 A 
ATOM      5  C   UNL     1      45.877   2.010   8.058  0.00  0.00    +0.000 A 
ATOM      6  C   UNL     1      46.453   3.059   7.364  0.00  0.00    +0.000 A 
ATOM      7  N   UNL     1      46.241   4.348   7.705  0.00  0.00    +0.000 NA
ATOM      8  N   UNL     1      45.431   4.629   8.773  0.00  0.00    +0.000 NA
ATOM      9  H   UNL     1      43.085   3.476  10.424  0.00  0.00    +0.000 HD
BRANCH   6  10
ATOM     10  C   UNL     1      47.336   2.825   6.185  0.00  0.00    +0.000 C 
ATOM     11  N   UNL     1      48.639   2.530   6.459  0.00  0.00    +0.000 N 
ATOM     12  O   UNL     1      46.918   2.903   5.035  0.00  0.00    +0.000 OA
ATOM     13  H   UNL     1      48.975   2.480   7.416  0.00  0.00    +0.000 HD
ATOM     14  H   UNL     1      49.286   2.375   5.697  0.00  0.00    +0.000 HD
ENDBRANCH   6  10
ENDBRANCH   1   2
BRANCH   1  15
ATOM     15  C   UNL     1      44.015   5.774  12.246  0.00  0.00    +0.000 C 
BRANCH  15  20
ATOM     16  C   UNL     1      47.488   6.049  13.767  0.00  0.00    +0.000 A 
ATOM     17  C   UNL     1      48.202   6.619  12.714  0.00  0.00    +0.000 A 
ATOM     18  C   UNL     1      47.539   7.032  11.561  0.00  0.00    +0.000 A 
ATOM     19  C   UNL     1      46.165   6.832  11.441  0.00  0.00    +0.000 A 
ATOM     20  C   UNL     1      45.452   6.190  12.463  0.00  0.00    +0.000 A 
ATOM     21  C   UNL     1      46.122   5.811  13.638  0.00  0.00    +0.000 A 
BRANCH  16  22
ATOM     22  O   UNL     1      48.224   5.750  14.882  0.00  0.00    +0.000 OA
BRANCH  22  27
ATOM     23  C   UNL     1      50.164   5.062  17.269  0.00  0.00    +0.000 C 
ATOM     24  C   UNL     1      50.044   6.427  16.624  0.00  0.00    +0.000 C 
ATOM     25  O   UNL     1      49.128   7.286  17.364  0.00  0.00    +0.000 OA
ATOM     26  C   UNL     1      48.694   7.878  16.110  0.00  0.00    +0.000 C 
ATOM     27  C   UNL     1      49.248   6.678  15.314  0.00  0.00    +0.000 C 
ENDBRANCH  22  27
ENDBRANCH  16  22
ENDBRANCH  15  20
ENDBRANCH   1  15
TORSDOF 6
ENDMDL
MODEL 4
REMARK VINA RESULT:    -7.431      2.834      7.488
REMARK INTER + INTRA:         -10.747
REMARK INTER:                 -10.024
REMARK INTRA:                  -0.722
REMARK UNBOUND:                -0.710
REMARK  Name = 
REMARK  7 active torsions:
REMARK  status: ('A' for Active; 'I' for Inactive)
REMARK    1  A    between atoms: C_1  and  C_2
REMARK    2  A    between atoms: C_5  and  O_6
REMARK    3  A    between atoms: O_6  and  C_7
REMARK    4  A    between atoms: C_11  and  C_12
REMARK    5  A    between atoms: C_12  and  C_13
REMARK    6  A    between atoms: C_13  and  N_14
REMARK    7  A    between atoms: C_18  and  C_19
REMARK                            x       y       z     vdW  Elec       q    Type
REMARK                         _______ _______ _______ _____ _____    ______ ____
ROOT
ATOM      1  C   UNL     1      45.271   6.721  12.488  0.00  0.00    +0.000 C 
ENDROOT
BRANCH   1   2
ATOM      2  N   UNL     1      46.491   7.093  13.211  0.00  0.00    +0.000 N 
ATOM      3  C   UNL     1      46.890   6.077  14.112  0.00  0.00    +0.000 A 
ATOM      4  C   UNL     1      48.022   6.280  14.893  0.00  0.00    +0.000 A 
ATOM      5  C   UNL     1      48.432   5.287  15.780  0.00  0.00    +0.000 A 
ATOM      6  C   UNL     1      47.685   4.125  15.847  0.00  0.00    +0.000 A 
ATOM      7  N   UNL     1      46.593   3.928  15.078  0.00  0.00    +0.000 NA
ATOM      8  N   UNL     1      46.211   4.909  14.202  0.00  0.00    +0.000 NA
ATOM      9  H   UNL     1      46.381   7.961  13.731  0.00  0.00    +0.000 HD
BRANCH   6  10
ATOM     10  C   UNL     1      48.038   3.021  16.785  0.00  0.00    +0.000 C 
ATOM     11  N   UNL     1      47.087   2.685  17.704  0.00  0.00    +0.000 N 
ATOM     12  O   UNL     1      49.124   2.454  16.742  0.00  0.00    +0.000 OA
ATOM     13  H   UNL     1      46.196   3.171  17.737  0.00  0.00    +0.000 HD
ATOM     14  H   UNL     1      47.278   1.953  18.374  0.00  0.00    +0.000 HD
ENDBRANCH   6  10
ENDBRANCH   1   2
BRANCH   1  15
ATOM     15  C   UNL     1      45.522   6.556  10.985  0.00  0.00    +0.000 C 
BRANCH  15  20
ATOM     16  C   UNL     1      45.038   3.312   9.063  0.00  0.00    +0.000 A 
ATOM     17  C   UNL     1      44.208   2.603   9.930  0.00  0.00    +0.000 A 
ATOM     18  C   UNL     1      43.702   3.217  11.073  0.00  0.00    +0.000 A 
ATOM     19  C   UNL     1      44.064   4.529  11.375  0.00  0.00    +0.000 A 
ATOM     20  C   UNL     1      44.958   5.223  10.548  0.00  0.00    +0.000 A 
ATOM     21  C   UNL     1      45.434   4.610   9.378  0.00  0.00    +0.000 A 
BRANCH  16  22
ATOM     22  O   UNL     1      45.417   2.641   7.932  0.00  0.00    +0.000 OA
BRANCH  22  27
ATOM     23  C   UNL     1      47.137   2.905   5.304  0.00  0.00    +0.000 C 
ATOM     24  C   UNL     1      47.510   2.045   6.493  0.00  0.00    +0.000 C 
ATOM     25  O   UNL     1      47.084   0.664   6.303  0.00  0.00    +0.000 OA
ATOM     26  C   UNL     1      46.806   0.571   7.727  0.00  0.00    +0.000 C 
ATOM     27  C   UNL     1      46.761   2.108   7.852  0.00  0.00    +0.000 C 
ENDBRANCH  22  27
ENDBRANCH  16  22
ENDBRANCH  15  20
ENDBRANCH   1  15
TORSDOF 6
ENDMDL
MODEL 5
REMARK VINA RESULT:    -6.947      3.925      7.467
REMARK INTER + INTRA:         -10.093
REMARK INTER:                  -9.154
REMARK INTRA:                  -0.938
REMARK UNBOUND:                -0.710
REMARK  Name = 
REMARK  7 active torsions:
REMARK  status: ('A' for Active; 'I' for Inactive)
REMARK    1  A    between atoms: C_1  and  C_2
REMARK    2  A    between atoms: C_5  and  O_6
REMARK    3  A    between atoms: O_6  and  C_7
REMARK    4  A    between atoms: C_11  and  C_12
REMARK    5  A    between atoms: C_12  and  C_13
REMARK    6  A    between atoms: C_13  and  N_14
REMARK    7  A    between atoms: C_18  and  C_19
REMARK                            x       y       z     vdW  Elec       q    Type
REMARK                         _______ _______ _______ _____ _____    ______ ____
ROOT
ATOM      1  C   UNL     1      49.397   7.601  13.146  0.00  0.00    +0.000 C 
ENDROOT
BRANCH   1   2
ATOM      2  N   UNL     1      49.778   7.719  14.557  0.00  0.00    +0.000 N 
ATOM      3  C   UNL     1      49.195   6.693  15.338  0.00  0.00    +0.000 A 
ATOM      4  C   UNL     1      49.440   6.671  16.706  0.00  0.00    +0.000 A 
ATOM      5  C   UNL     1      48.879   5.664  17.489  0.00  0.00    +0.000 A 
ATOM      6  C   UNL     1      48.091   4.715  16.863  0.00  0.00    +0.000 A 
ATOM      7  N   UNL     1      47.865   4.735  15.532  0.00  0.00    +0.000 NA
ATOM      8  N   UNL     1      48.434   5.724  14.775  0.00  0.00    +0.000 NA
ATOM      9  H   UNL     1      49.512   8.617  14.954  0.00  0.00    +0.000 HD
BRANCH   6  10
ATOM     10  C   UNL     1      47.433   3.617  17.628  0.00  0.00    +0.000 C 
ATOM     11  N   UNL     1      48.087   3.187  18.745  0.00  0.00    +0.000 N 
ATOM     12  O   UNL     1      46.371   3.122  17.269  0.00  0.00    +0.000 OA
ATOM     13  H   UNL     1      48.972   3.598  19.025  0.00  0.00    +0.000 HD
ATOM     14  H   UNL     1      47.693   2.435  19.295  0.00  0.00    +0.000 HD
ENDBRANCH   6  10
ENDBRANCH   1   2
BRANCH   1  15
ATOM     15  C   UNL     1      48.606   8.821  12.661  0.00  0.00    +0.000 C 
BRANCH  15  20
ATOM     16  C   UNL     1      45.816   6.525  11.477  0.00  0.00    +0.000 A 
ATOM     17  C   UNL     1      44.722   7.389  11.505  0.00  0.00    +0.000 A 
ATOM     18  C   UNL     1      44.906   8.741  11.783  0.00  0.00    +0.000 A 
ATOM     19  C   UNL     1      46.179   9.223  12.079  0.00  0.00    +0.000 A 
ATOM     20  C   UNL     1      47.273   8.347  12.127  0.00  0.00    +0.000 A 
ATOM     21  C   UNL     1      47.086   6.993  11.810  0.00  0.00    +0.000 A 
BRANCH  16  22
ATOM     22  O   UNL     1      45.537   5.234  11.119  0.00  0.00    +0.000 OA
BRANCH  22  27
ATOM     23  C   UNL     1      43.304   4.108  13.037  0.00  0.00    +0.000 C 
ATOM     24  C   UNL     1      43.196   4.156  11.527  0.00  0.00    +0.000 C 
ATOM     25  O   UNL     1      43.588   2.888  10.926  0.00  0.00    +0.000 OA
ATOM     26  C   UNL     1      44.158   3.614   9.803  0.00  0.00    +0.000 C 
ATOM     27  C   UNL     1      44.212   4.916  10.629  0.00  0.00    +0.000 C 
ENDBRANCH  22  27
ENDBRANCH  16  22
ENDBRANCH  15  20
ENDBRANCH   1  15
TORSDOF 6
ENDMDL
MODEL 6
REMARK VINA RESULT:    -6.806      2.710      4.023
REMARK INTER + INTRA:          -9.903
REMARK INTER:                  -8.877
REMARK INTRA:                  -1.026
REMARK UNBOUND:                -0.710
REMARK  Name = 
REMARK  7 active torsions:
REMARK  status: ('A' for Active; 'I' for Inactive)
REMARK    1  A    between atoms: C_1  and  C_2
REMARK    2  A    between atoms: C_5  and  O_6
REMARK    3  A    between atoms: O_6  and  C_7
REMARK    4  A    between atoms: C_11  and  C_12
REMARK    5  A    between atoms: C_12  and  C_13
REMARK    6  A    between atoms: C_13  and  N_14
REMARK    7  A    between atoms: C_18  and  C_19
REMARK                            x       y       z     vdW  Elec       q    Type
REMARK                         _______ _______ _______ _____ _____    ______ ____
ROOT
ATOM      1  C   UNL     1      45.091   8.883  10.983  0.00  0.00    +0.000 C 
ENDROOT
BRANCH   1   2
ATOM      2  N   UNL     1      43.800   8.327  11.399  0.00  0.00    +0.000 N 
ATOM      3  C   UNL     1      43.785   6.916  11.294  0.00  0.00    +0.000 A 
ATOM      4  C   UNL     1      42.624   6.231  11.632  0.00  0.00    +0.000 A 
ATOM      5  C   UNL     1      42.594   4.841  11.540  0.00  0.00    +0.000 A 
ATOM      6  C   UNL     1      43.738   4.192  11.110  0.00  0.00    +0.000 A 
ATOM      7  N   UNL     1      44.866   4.862  10.793  0.00  0.00    +0.000 NA
ATOM      8  N   UNL     1      44.883   6.227  10.901  0.00  0.00    +0.000 NA
ATOM      9  H   UNL     1      43.026   8.700  10.853  0.00  0.00    +0.000 HD
BRANCH   6  10
ATOM     10  C   UNL     1      43.786   2.709  10.959  0.00  0.00    +0.000 C 
ATOM     11  N   UNL     1      44.751   2.221  10.128  0.00  0.00    +0.000 N 
ATOM     12  O   UNL     1      42.998   1.972  11.540  0.00  0.00    +0.000 OA
ATOM     13  H   UNL     1      45.390   2.844   9.643  0.00  0.00    +0.000 HD
ATOM     14  H   UNL     1      44.821   1.223   9.978  0.00  0.00    +0.000 HD
ENDBRANCH   6  10
ENDBRANCH   1   2
BRANCH   1  15
ATOM     15  C   UNL     1      45.772   9.661  12.114  0.00  0.00    +0.000 C 
BRANCH  15  20
ATOM     16  C   UNL     1      48.288   7.027  13.204  0.00  0.00    +0.000 A 
ATOM     17  C   UNL     1      49.474   7.559  12.702  0.00  0.00    +0.000 A 
ATOM     18  C   UNL     1      49.484   8.826  12.124  0.00  0.00    +0.000 A 
ATOM     19  C   UNL     1      48.295   9.545  12.006  0.00  0.00    +0.000 A 
ATOM     20  C   UNL     1      47.085   8.985  12.440  0.00  0.00    +0.000 A 
ATOM     21  C   UNL     1      47.090   7.723  13.054  0.00  0.00    +0.000 A 
BRANCH  16  22
ATOM     22  O   UNL     1      48.403   5.810  13.819  0.00  0.00    +0.000 OA
BRANCH  22  27
ATOM     23  C   UNL     1      48.284   4.384  16.628  0.00  0.00    +0.000 C 
ATOM     24  C   UNL     1      47.225   4.256  15.553  0.00  0.00    +0.000 C 
ATOM     25  O   UNL     1      47.434   3.063  14.742  0.00  0.00    +0.000 OA
ATOM     26  C   UNL     1      46.951   3.788  13.579  0.00  0.00    +0.000 C 
ATOM     27  C   UNL     1      47.203   5.141  14.276  0.00  0.00    +0.000 C 
ENDBRANCH  22  27
ENDBRANCH  16  22
ENDBRANCH  15  20
ENDBRANCH   1  15
TORSDOF 6
ENDMDL
MODEL 7
REMARK VINA RESULT:    -6.688      2.972      3.718
REMARK INTER + INTRA:          -9.744
REMARK INTER:                  -8.982
REMARK INTRA:                  -0.762
REMARK UNBOUND:                -0.710
REMARK  Name = 
REMARK  7 active torsions:
REMARK  status: ('A' for Active; 'I' for Inactive)
REMARK    1  A    between atoms: C_1  and  C_2
REMARK    2  A    between atoms: C_5  and  O_6
REMARK    3  A    between atoms: O_6  and  C_7
REMARK    4  A    between atoms: C_11  and  C_12
REMARK    5  A    between atoms: C_12  and  C_13
REMARK    6  A    between atoms: C_13  and  N_14
REMARK    7  A    between atoms: C_18  and  C_19
REMARK                            x       y       z     vdW  Elec       q    Type
REMARK                         _______ _______ _______ _____ _____    ______ ____
ROOT
ATOM      1  C   UNL     1      43.441   4.331  10.794  0.00  0.00    +0.000 C 
ENDROOT
BRANCH   1   2
ATOM      2  N   UNL     1      43.903   2.964  10.538  0.00  0.00    +0.000 N 
ATOM      3  C   UNL     1      44.778   2.912   9.426  0.00  0.00    +0.000 A 
ATOM      4  C   UNL     1      45.294   1.682   9.035  0.00  0.00    +0.000 A 
ATOM      5  C   UNL     1      46.161   1.616   7.947  0.00  0.00    +0.000 A 
ATOM      6  C   UNL     1      46.478   2.792   7.293  0.00  0.00    +0.000 A 
ATOM      7  N   UNL     1      45.983   3.986   7.684  0.00  0.00    +0.000 NA
ATOM      8  N   UNL     1      45.141   4.036   8.763  0.00  0.00    +0.000 NA
ATOM      9  H   UNL     1      43.133   2.321  10.371  0.00  0.00    +0.000 HD
BRANCH   6  10
ATOM     10  C   UNL     1      47.379   2.809   6.105  0.00  0.00    +0.000 C 
ATOM     11  N   UNL     1      48.689   2.507   6.339  0.00  0.00    +0.000 N 
ATOM     12  O   UNL     1      46.970   3.088   4.984  0.00  0.00    +0.000 OA
ATOM     13  H   UNL     1      49.016   2.289   7.275  0.00  0.00    +0.000 HD
ATOM     14  H   UNL     1      49.347   2.516   5.572  0.00  0.00    +0.000 HD
ENDBRANCH   6  10
ENDBRANCH   1   2
BRANCH   1  15
ATOM     15  C   UNL     1      43.910   4.850  12.157  0.00  0.00    +0.000 C 
BRANCH  15  20
ATOM     16  C   UNL     1      45.584   8.254  12.410  0.00  0.00    +0.000 A 
ATOM     17  C   UNL     1      44.797   9.009  11.543  0.00  0.00    +0.000 A 
ATOM     18  C   UNL     1      43.652   8.456  10.976  0.00  0.00    +0.000 A 
ATOM     19  C   UNL     1      43.318   7.129  11.239  0.00  0.00    +0.000 A 
ATOM     20  C   UNL     1      44.146   6.339  12.049  0.00  0.00    +0.000 A 
ATOM     21  C   UNL     1      45.278   6.916  12.647  0.00  0.00    +0.000 A 
BRANCH  16  22
ATOM     22  O   UNL     1      46.643   8.916  12.971  0.00  0.00    +0.000 OA
BRANCH  22  27
ATOM     23  C   UNL     1      49.005   6.848  12.699  0.00  0.00    +0.000 C 
ATOM     24  C   UNL     1      49.053   8.278  12.204  0.00  0.00    +0.000 C 
ATOM     25  O   UNL     1      49.682   9.157  13.182  0.00  0.00    +0.000 OA
ATOM     26  C   UNL     1      48.770  10.219  12.791  0.00  0.00    +0.000 C 
ATOM     27  C   UNL     1      47.804   9.199  12.153  0.00  0.00    +0.000 C 
ENDBRANCH  22  27
ENDBRANCH  16  22
ENDBRANCH  15  20
ENDBRANCH   1  15
TORSDOF 6
ENDMDL
MODEL 8
REMARK VINA RESULT:    -6.228      3.223      5.235
REMARK INTER + INTRA:          -9.122
REMARK INTER:                  -8.113
REMARK INTRA:                  -1.009
REMARK UNBOUND:                -0.710
REMARK  Name = 
REMARK  7 active torsions:
REMARK  status: ('A' for Active; 'I' for Inactive)
REMARK    1  A    between atoms: C_1  and  C_2
REMARK    2  A    between atoms: C_5  and  O_6
REMARK    3  A    between atoms: O_6  and  C_7
REMARK    4  A    between atoms: C_11  and  C_12
REMARK    5  A    between atoms: C_12  and  C_13
REMARK    6  A    between atoms: C_13  and  N_14
REMARK    7  A    between atoms: C_18  and  C_19
REMARK                            x       y       z     vdW  Elec       q    Type
REMARK                         _______ _______ _______ _____ _____    ______ ____
ROOT
ATOM      1  C   UNL     1      48.564   8.327  13.139  0.00  0.00    +0.000 C 
ENDROOT
BRANCH   1   2
ATOM      2  N   UNL     1      47.143   8.518  12.836  0.00  0.00    +0.000 N 
ATOM      3  C   UNL     1      46.465   7.281  12.724  0.00  0.00    +0.000 A 
ATOM      4  C   UNL     1      45.109   7.284  12.419  0.00  0.00    +0.000 A 
ATOM      5  C   UNL     1      44.426   6.074  12.311  0.00  0.00    +0.000 A 
ATOM      6  C   UNL     1      45.136   4.905  12.515  0.00  0.00    +0.000 A 
ATOM      7  N   UNL     1      46.451   4.908  12.822  0.00  0.00    +0.000 NA
ATOM      8  N   UNL     1      47.105   6.106  12.937  0.00  0.00    +0.000 NA
ATOM      9  H   UNL     1      46.999   9.043  11.976  0.00  0.00    +0.000 HD
BRANCH   6  10
ATOM     10  C   UNL     1      44.490   3.566  12.396  0.00  0.00    +0.000 C 
ATOM     11  N   UNL     1      44.836   2.826  11.303  0.00  0.00    +0.000 N 
ATOM     12  O   UNL     1      43.686   3.157  13.226  0.00  0.00    +0.000 OA
ATOM     13  H   UNL     1      45.494   3.182  10.617  0.00  0.00    +0.000 HD
ATOM     14  H   UNL     1      44.418   1.917  11.164  0.00  0.00    +0.000 HD
ENDBRANCH   6  10
ENDBRANCH   1   2
BRANCH   1  15
ATOM     15  C   UNL     1      49.010   9.156  14.349  0.00  0.00    +0.000 C 
BRANCH  15  20
ATOM     16  C   UNL     1      49.338   6.268  16.800  0.00  0.00    +0.000 A 
ATOM     17  C   UNL     1      48.917   6.868  17.986  0.00  0.00    +0.000 A 
ATOM     18  C   UNL     1      48.408   8.164  17.972  0.00  0.00    +0.000 A 
ATOM     19  C   UNL     1      48.362   8.880  16.777  0.00  0.00    +0.000 A 
ATOM     20  C   UNL     1      48.853   8.311  15.593  0.00  0.00    +0.000 A 
ATOM     21  C   UNL     1      49.331   6.990  15.609  0.00  0.00    +0.000 A 
BRANCH  16  22
ATOM     22  O   UNL     1      49.748   4.967  16.913  0.00  0.00    +0.000 OA
BRANCH  22  27
ATOM     23  C   UNL     1      50.540   1.921  17.090  0.00  0.00    +0.000 C 
ATOM     24  C   UNL     1      49.118   2.442  17.094  0.00  0.00    +0.000 C 
ATOM     25  O   UNL     1      48.537   2.410  15.758  0.00  0.00    +0.000 OA
ATOM     26  C   UNL     1      47.812   3.632  16.061  0.00  0.00    +0.000 C 
ATOM     27  C   UNL     1      48.768   3.949  17.229  0.00  0.00    +0.000 C 
ENDBRANCH  22  27
ENDBRANCH  16  22
ENDBRANCH  15  20
ENDBRANCH   1  15
TORSDOF 6
ENDMDL
MODEL 9
REMARK VINA RESULT:    -6.180      3.747      6.002
REMARK INTER + INTRA:          -9.058
REMARK INTER:                  -8.476
REMARK INTRA:                  -0.582
REMARK UNBOUND:                -0.710
REMARK  Name = 
REMARK  7 active torsions:
REMARK  status: ('A' for Active; 'I' for Inactive)
REMARK    1  A    between atoms: C_1  and  C_2
REMARK    2  A    between atoms: C_5  and  O_6
REMARK    3  A    between atoms: O_6  and  C_7
REMARK    4  A    between atoms: C_11  and  C_12
REMARK    5  A    between atoms: C_12  and  C_13
REMARK    6  A    between atoms: C_13  and  N_14
REMARK    7  A    between atoms: C_18  and  C_19
REMARK                            x       y       z     vdW  Elec       q    Type
REMARK                         _______ _______ _______ _____ _____    ______ ____
ROOT
ATOM      1  C   UNL     1      47.410   4.013  15.852  0.00  0.00    +0.000 C 
ENDROOT
BRANCH   1   2
ATOM      2  N   UNL     1      47.128   5.202  15.042  0.00  0.00    +0.000 N 
ATOM      3  C   UNL     1      46.394   4.874  13.877  0.00  0.00    +0.000 A 
ATOM      4  C   UNL     1      46.060   5.888  12.988  0.00  0.00    +0.000 A 
ATOM      5  C   UNL     1      45.333   5.583  11.839  0.00  0.00    +0.000 A 
ATOM      6  C   UNL     1      44.968   4.265  11.630  0.00  0.00    +0.000 A 
ATOM      7  N   UNL     1      45.286   3.285  12.503  0.00  0.00    +0.000 NA
ATOM      8  N   UNL     1      45.991   3.604  13.633  0.00  0.00    +0.000 NA
ATOM      9  H   UNL     1      47.976   5.688  14.762  0.00  0.00    +0.000 HD
BRANCH   6  10
ATOM     10  C   UNL     1      44.210   3.846  10.416  0.00  0.00    +0.000 C 
ATOM     11  N   UNL     1      44.084   4.784   9.432  0.00  0.00    +0.000 N 
ATOM     12  O   UNL     1      43.719   2.728  10.310  0.00  0.00    +0.000 OA
ATOM     13  H   UNL     1      44.486   5.710   9.538  0.00  0.00    +0.000 HD
ATOM     14  H   UNL     1      43.568   4.559   8.593  0.00  0.00    +0.000 HD
ENDBRANCH   6  10
ENDBRANCH   1   2
BRANCH   1  15
ATOM     15  C   UNL     1      47.160   4.261  17.343  0.00  0.00    +0.000 C 
BRANCH  15  20
ATOM     16  C   UNL     1      50.880   3.857  18.012  0.00  0.00    +0.000 A 
ATOM     17  C   UNL     1      51.013   4.527  19.227  0.00  0.00    +0.000 A 
ATOM     18  C   UNL     1      49.885   4.998  19.893  0.00  0.00    +0.000 A 
ATOM     19  C   UNL     1      48.624   4.841  19.321  0.00  0.00    +0.000 A 
ATOM     20  C   UNL     1      48.489   4.235  18.064  0.00  0.00    +0.000 A 
ATOM     21  C   UNL     1      49.628   3.730  17.416  0.00  0.00    +0.000 A 
BRANCH  16  22
ATOM     22  O   UNL     1      52.043   3.367  17.481  0.00  0.00    +0.000 OA
BRANCH  22  27
ATOM     23  C   UNL     1      55.148   3.882  17.309  0.00  0.00    +0.000 C 
ATOM     24  C   UNL     1      54.504   2.767  18.106  0.00  0.00    +0.000 C 
ATOM     25  O   UNL     1      54.475   1.522  17.351  0.00  0.00    +0.000 OA
ATOM     26  C   UNL     1      53.196   1.200  17.960  0.00  0.00    +0.000 C 
ATOM     27  C   UNL     1      52.972   2.676  18.350  0.00  0.00    +0.000 C 
ENDBRANCH  22  27
ENDBRANCH  16  22
ENDBRANCH  15  20
ENDBRANCH   1  15
TORSDOF 6
ENDMDL
