MODEL 1
REMARK VINA RESULT:    -7.987      0.000      0.000
REMARK INTER + INTRA:         -10.007
REMARK INTER:                  -9.854
REMARK INTRA:                  -0.152
REMARK UNBOUND:                -0.152
REMARK  Name = 
REMARK  6 active torsions:
REMARK  status: ('A' for Active; 'I' for Inactive)
REMARK    1  A    between atoms: C_1  and  C_2
REMARK    2  A    between atoms: C_2  and  C_3
REMARK    3  A    between atoms: C_2  and  N_4
REMARK    4  A    between atoms: C_2  and  C_14
REMARK    5  A    between atoms: N_4  and  C_5
REMARK    6  A    between atoms: C_9  and  C_10
REMARK                            x       y       z     vdW  Elec       q    Type
REMARK                         _______ _______ _______ _____ _____    ______ ____
ROOT
ATOM      1  N   UNL     1      43.953   4.730   9.584  0.00  0.00    +0.000 N 
ATOM      2  H   UNL     1      43.124   4.997   9.062  0.00  0.00    +0.000 HD
ENDROOT
BRANCH   1   3
ATOM      3  C   UNL     1      44.611   3.640   9.009  0.00  0.00    +0.000 A 
ATOM      4  C   UNL     1      44.466   2.318   9.448  0.00  0.00    +0.000 A 
ATOM      5  C   UNL     1      45.223   1.275   8.915  0.00  0.00    +0.000 A 
ATOM      6  C   UNL     1      46.147   1.531   7.912  0.00  0.00    +0.000 A 
ATOM      7  C   UNL     1      46.319   2.833   7.432  0.00  0.00    +0.000 A 
ATOM      8  C   UNL     1      45.571   3.881   8.004  0.00  0.00    +0.000 A 
BRANCH   7   9
ATOM      9  C   UNL     1      47.300   3.013   6.320  0.00  0.00    +0.000 C 
ATOM     10  N   UNL     1      48.598   2.635   6.511  0.00  0.00    +0.000 N 
ATOM     11  O   UNL     1      46.972   3.515   5.254  0.00  0.00    +0.000 OA
ATOM     12  H   UNL     1      48.977   2.271   7.368  0.00  0.00    +0.000 HD
ATOM     13  H   UNL     1      49.234   2.831   5.749  0.00  0.00    +0.000 HD
ENDBRANCH   7   9
ENDBRANCH   1   3
BRANCH   1  15
ATOM     14  C   UNL     1      42.704   6.025  11.307  0.00  0.00    +0.000 C 
ATOM     15  C   UNL     1      43.826   4.988  11.046  0.00  0.00    +0.000 C 
ATOM     16  C   UNL     1      43.336   3.678  11.710  0.00  0.00    +0.000 C 
BRANCH  15  17
ATOM     17  C   UNL     1      45.174   5.375  11.690  0.00  0.00    +0.000 A 
ATOM     18  C   UNL     1      46.007   6.339  11.104  0.00  0.00    +0.000 A 
ATOM     19  C   UNL     1      47.208   6.673  11.727  0.00  0.00    +0.000 A 
ATOM     20  C   UNL     1      47.557   6.047  12.915  0.00  0.00    +0.000 A 
ATOM     21  C   UNL     1      46.683   5.108  13.428  0.00  0.00    +0.000 A 
ATOM     22 CL   UNL     1      47.014   4.300  14.902  0.00  0.00    +0.000 Cl
ATOM     23  N   UNL     1      45.520   4.753  12.847  0.00  0.00    +0.000 NA
ENDBRANCH  15  17
ENDBRANCH   1  15
TORSDOF 4
ENDMDL
MODEL 2
REMARK VINA RESULT:    -7.719      1.811      2.347
REMARK INTER + INTRA:          -9.676
REMARK INTER:                  -9.296
REMARK INTRA:                  -0.380
REMARK UNBOUND:                -0.152
REMARK  Name = 
REMARK  6 active torsions:
REMARK  status: ('A' for Active; 'I' for Inactive)
REMARK    1  A    between atoms: C_1  and  C_2
REMARK    2  A    between atoms: C_2  and  C_3
REMARK    3  A    between atoms: C_2  and  N_4
REMARK    4  A    between atoms: C_2  and  C_14
REMARK    5  A    between atoms: N_4  and  C_5
REMARK    6  A    between atoms: C_9  and  C_10
REMARK                            x       y       z     vdW  Elec       q    Type
REMARK                         _______ _______ _______ _____ _____    ______ ____
ROOT
ATOM      1  N   UNL     1      44.263   3.151  10.794  0.00  0.00    +0.000 N 
ATOM      2  H   UNL     1      44.325   2.228  11.212  0.00  0.00    +0.000 HD
ENDROOT
BRANCH   1   3
ATOM      3  C   UNL     1      45.083   3.276   9.670  0.00  0.00    +0.000 A 
ATOM      4  C   UNL     1      45.316   4.485   9.001  0.00  0.00    +0.000 A 
ATOM      5  C   UNL     1      46.055   4.546   7.820  0.00  0.00    +0.000 A 
ATOM      6  C   UNL     1      46.592   3.388   7.277  0.00  0.00    +0.000 A 
ATOM      7  C   UNL     1      46.396   2.158   7.914  0.00  0.00    +0.000 A 
ATOM      8  C   UNL     1      45.620   2.109   9.089  0.00  0.00    +0.000 A 
BRANCH   7   9
ATOM      9  C   UNL     1      47.048   0.969   7.289  0.00  0.00    +0.000 C 
ATOM     10  N   UNL     1      46.695  -0.281   7.709  0.00  0.00    +0.000 N 
ATOM     11  O   UNL     1      47.911   1.091   6.429  0.00  0.00    +0.000 OA
ATOM     12  H   UNL     1      46.044  -0.483   8.448  0.00  0.00    +0.000 HD
ATOM     13  H   UNL     1      47.206  -1.050   7.295  0.00  0.00    +0.000 HD
ENDBRANCH   7   9
ENDBRANCH   1   3
BRANCH   1  15
ATOM     14  C   UNL     1      43.040   5.283  11.195  0.00  0.00    +0.000 C 
ATOM     15  C   UNL     1      43.999   4.224  11.793  0.00  0.00    +0.000 C 
ATOM     16  C   UNL     1      43.222   3.584  12.971  0.00  0.00    +0.000 C 
BRANCH  15  17
ATOM     17  C   UNL     1      45.302   4.831  12.356  0.00  0.00    +0.000 A 
ATOM     18  C   UNL     1      46.171   4.070  13.152  0.00  0.00    +0.000 A 
ATOM     19  C   UNL     1      47.347   4.649  13.626  0.00  0.00    +0.000 A 
ATOM     20  C   UNL     1      47.637   5.967  13.300  0.00  0.00    +0.000 A 
ATOM     21  C   UNL     1      46.730   6.648  12.511  0.00  0.00    +0.000 A 
ATOM     22 CL   UNL     1      47.013   8.269  12.035  0.00  0.00    +0.000 Cl
ATOM     23  N   UNL     1      45.580   6.124  12.046  0.00  0.00    +0.000 NA
ENDBRANCH  15  17
ENDBRANCH   1  15
TORSDOF 4
ENDMDL
MODEL 3
REMARK VINA RESULT:    -7.681      2.225      2.429
REMARK INTER + INTRA:          -9.629
REMARK INTER:                  -9.574
REMARK INTRA:                  -0.056
REMARK UNBOUND:                -0.152
REMARK  Name = 
REMARK  6 active torsions:
REMARK  status: ('A' for Active; 'I' for Inactive)
REMARK    1  A    between atoms: C_1  and  C_2
REMARK    2  A    between atoms: C_2  and  C_3
REMARK    3  A    between atoms: C_2  and  N_4
REMARK    4  A    between atoms: C_2  and  C_14
REMARK    5  A    between atoms: N_4  and  C_5
REMARK    6  A    between atoms: C_9  and  C_10
REMARK                            x       y       z     vdW  Elec       q    Type
REMARK                         _______ _______ _______ _____ _____    ______ ____
ROOT
ATOM      1  N   UNL     1      44.585   5.155   9.601  0.00  0.00    +0.000 N 
ATOM      2  H   UNL     1      43.912   5.642   9.017  0.00  0.00    +0.000 HD
ENDROOT
BRANCH   1   3
ATOM      3  C   UNL     1      44.944   3.914   9.070  0.00  0.00    +0.000 A 
ATOM      4  C   UNL     1      44.406   2.694   9.497  0.00  0.00    +0.000 A 
ATOM      5  C   UNL     1      44.871   1.471   9.014  0.00  0.00    +0.000 A 
ATOM      6  C   UNL     1      45.891   1.439   8.074  0.00  0.00    +0.000 A 
ATOM      7  C   UNL     1      46.453   2.632   7.608  0.00  0.00    +0.000 A 
ATOM      8  C   UNL     1      45.994   3.858   8.130  0.00  0.00    +0.000 A 
BRANCH   7   9
ATOM      9  C   UNL     1      47.513   2.510   6.563  0.00  0.00    +0.000 C 
ATOM     10  N   UNL     1      47.444   3.297   5.450  0.00  0.00    +0.000 N 
ATOM     11  O   UNL     1      48.426   1.701   6.670  0.00  0.00    +0.000 OA
ATOM     12  H   UNL     1      46.704   3.946   5.242  0.00  0.00    +0.000 HD
ATOM     13  H   UNL     1      48.153   3.135   4.746  0.00  0.00    +0.000 HD
ENDBRANCH   7   9
ENDBRANCH   1   3
BRANCH   1  15
ATOM     14  C   UNL     1      42.915   5.524  11.412  0.00  0.00    +0.000 C 
ATOM     15  C   UNL     1      44.420   5.458  11.051  0.00  0.00    +0.000 C 
ATOM     16  C   UNL     1      44.982   4.254  11.846  0.00  0.00    +0.000 C 
BRANCH  15  17
ATOM     17  C   UNL     1      45.205   6.718  11.476  0.00  0.00    +0.000 A 
ATOM     18  C   UNL     1      46.563   6.644  11.819  0.00  0.00    +0.000 A 
ATOM     19  C   UNL     1      47.240   7.807  12.179  0.00  0.00    +0.000 A 
ATOM     20  C   UNL     1      46.559   9.017  12.191  0.00  0.00    +0.000 A 
ATOM     21  C   UNL     1      45.223   9.005  11.841  0.00  0.00    +0.000 A 
ATOM     22 CL   UNL     1      44.305  10.451  11.801  0.00  0.00    +0.000 Cl
ATOM     23  N   UNL     1      44.534   7.899  11.498  0.00  0.00    +0.000 NA
ENDBRANCH  15  17
ENDBRANCH   1  15
TORSDOF 4
ENDMDL
MODEL 4
REMARK VINA RESULT:    -6.750      3.159      6.000
REMARK INTER + INTRA:          -8.481
REMARK INTER:                  -7.785
REMARK INTRA:                  -0.696
REMARK UNBOUND:                -0.152
REMARK  Name = 
REMARK  6 active torsions:
REMARK  status: ('A' for Active; 'I' for Inactive)
REMARK    1  A    between atoms: C_1  and  C_2
REMARK    2  A    between atoms: C_2  and  C_3
REMARK    3  A    between atoms: C_2  and  N_4
REMARK    4  A    between atoms: C_2  and  C_14
REMARK    5  A    between atoms: N_4  and  C_5
REMARK    6  A    between atoms: C_9  and  C_10
REMARK                            x       y       z     vdW  Elec       q    Type
REMARK                         _______ _______ _______ _____ _____    ______ ____
ROOT
ATOM      1  N   UNL     1      44.785   6.599  10.962  0.00  0.00    +0.000 N 
ATOM      2  H   UNL     1      44.949   6.694   9.965  0.00  0.00    +0.000 HD
ENDROOT
BRANCH   1   3
ATOM      3  C   UNL     1      45.694   7.341  11.720  0.00  0.00    +0.000 A 
ATOM      4  C   UNL     1      45.337   8.434  12.520  0.00  0.00    +0.000 A 
ATOM      5  C   UNL     1      46.291   9.213  13.175  0.00  0.00    +0.000 A 
ATOM      6  C   UNL     1      47.639   8.907  13.052  0.00  0.00    +0.000 A 
ATOM      7  C   UNL     1      48.044   7.818  12.273  0.00  0.00    +0.000 A 
ATOM      8  C   UNL     1      47.070   7.062  11.592  0.00  0.00    +0.000 A 
BRANCH   7   9
ATOM      9  C   UNL     1      49.509   7.531  12.233  0.00  0.00    +0.000 C 
ATOM     10  N   UNL     1      50.185   7.356  13.405  0.00  0.00    +0.000 N 
ATOM     11  O   UNL     1      50.121   7.478  11.174  0.00  0.00    +0.000 OA
ATOM     12  H   UNL     1      49.786   7.440  14.325  0.00  0.00    +0.000 HD
ATOM     13  H   UNL     1      51.185   7.221  13.326  0.00  0.00    +0.000 HD
ENDBRANCH   7   9
ENDBRANCH   1   3
BRANCH   1  15
ATOM     14  C   UNL     1      44.662   4.899  12.778  0.00  0.00    +0.000 C 
ATOM     15  C   UNL     1      44.238   5.264  11.334  0.00  0.00    +0.000 C 
ATOM     16  C   UNL     1      42.694   5.387  11.378  0.00  0.00    +0.000 C 
BRANCH  15  17
ATOM     17  C   UNL     1      44.600   4.176  10.300  0.00  0.00    +0.000 A 
ATOM     18  C   UNL     1      44.082   2.877  10.403  0.00  0.00    +0.000 A 
ATOM     19  C   UNL     1      44.418   1.929   9.439  0.00  0.00    +0.000 A 
ATOM     20  C   UNL     1      45.258   2.288   8.394  0.00  0.00    +0.000 A 
ATOM     21  C   UNL     1      45.726   3.587   8.363  0.00  0.00    +0.000 A 
ATOM     22 CL   UNL     1      46.746   4.132   7.099  0.00  0.00    +0.000 Cl
ATOM     23  N   UNL     1      45.431   4.526   9.283  0.00  0.00    +0.000 NA
ENDBRANCH  15  17
ENDBRANCH   1  15
TORSDOF 4
ENDMDL
MODEL 5
REMARK VINA RESULT:    -6.676      3.104      5.843
REMARK INTER + INTRA:          -8.389
REMARK INTER:                  -7.873
REMARK INTRA:                  -0.516
REMARK UNBOUND:                -0.152
REMARK  Name = 
REMARK  6 active torsions:
REMARK  status: ('A' for Active; 'I' for Inactive)
REMARK    1  A    between atoms: C_1  and  C_2
REMARK    2  A    between atoms: C_2  and  C_3
REMARK    3  A    between atoms: C_2  and  N_4
REMARK    4  A    between atoms: C_2  and  C_14
REMARK    5  A    between atoms: N_4  and  C_5
REMARK    6  A    between atoms: C_9  and  C_10
REMARK                            x       y       z     vdW  Elec       q    Type
REMARK                         _______ _______ _______ _____ _____    ______ ____
ROOT
ATOM      1  N   UNL     1      44.763   5.800  10.612  0.00  0.00    +0.000 N 
ATOM      2  H   UNL     1      44.646   6.194   9.684  0.00  0.00    +0.000 HD
ENDROOT
BRANCH   1   3
ATOM      3  C   UNL     1      45.495   6.640  11.454  0.00  0.00    +0.000 A 
ATOM      4  C   UNL     1      44.920   7.604  12.292  0.00  0.00    +0.000 A 
ATOM      5  C   UNL     1      45.695   8.494  13.035  0.00  0.00    +0.000 A 
ATOM      6  C   UNL     1      47.080   8.433  12.966  0.00  0.00    +0.000 A 
ATOM      7  C   UNL     1      47.700   7.480  12.153  0.00  0.00    +0.000 A 
ATOM      8  C   UNL     1      46.904   6.610  11.383  0.00  0.00    +0.000 A 
BRANCH   7   9
ATOM      9  C   UNL     1      49.194   7.453  12.173  0.00  0.00    +0.000 C 
ATOM     10  N   UNL     1      49.839   7.213  13.351  0.00  0.00    +0.000 N 
ATOM     11  O   UNL     1      49.850   7.670  11.163  0.00  0.00    +0.000 OA
ATOM     12  H   UNL     1      49.392   7.084  14.243  0.00  0.00    +0.000 HD
ATOM     13  H   UNL     1      50.849   7.262  13.323  0.00  0.00    +0.000 HD
ENDBRANCH   7   9
ENDBRANCH   1   3
BRANCH   1  15
ATOM     14  C   UNL     1      45.515   3.804  11.899  0.00  0.00    +0.000 C 
ATOM     15  C   UNL     1      44.832   4.311  10.605  0.00  0.00    +0.000 C 
ATOM     16  C   UNL     1      43.380   3.776  10.670  0.00  0.00    +0.000 C 
BRANCH  15  17
ATOM     17  C   UNL     1      45.484   3.764   9.317  0.00  0.00    +0.000 A 
ATOM     18  C   UNL     1      45.954   4.630   8.319  0.00  0.00    +0.000 A 
ATOM     19  C   UNL     1      46.553   4.098   7.179  0.00  0.00    +0.000 A 
ATOM     20  C   UNL     1      46.676   2.720   7.054  0.00  0.00    +0.000 A 
ATOM     21  C   UNL     1      46.189   1.936   8.081  0.00  0.00    +0.000 A 
ATOM     22 CL   UNL     1      46.318   0.229   8.030  0.00  0.00    +0.000 Cl
ATOM     23  N   UNL     1      45.594   2.416   9.191  0.00  0.00    +0.000 NA
ENDBRANCH  15  17
ENDBRANCH   1  15
TORSDOF 4
ENDMDL
MODEL 6
REMARK VINA RESULT:    -6.565      4.025      7.273
REMARK INTER + INTRA:          -8.252
REMARK INTER:                  -7.459
REMARK INTRA:                  -0.793
REMARK UNBOUND:                -0.152
REMARK  Name = 
REMARK  6 active torsions:
REMARK  status: ('A' for Active; 'I' for Inactive)
REMARK    1  A    between atoms: C_1  and  C_2
REMARK    2  A    between atoms: C_2  and  C_3
REMARK    3  A    between atoms: C_2  and  N_4
REMARK    4  A    between atoms: C_2  and  C_14
REMARK    5  A    between atoms: N_4  and  C_5
REMARK    6  A    between atoms: C_9  and  C_10
REMARK                            x       y       z     vdW  Elec       q    Type
REMARK                         _______ _______ _______ _____ _____    ______ ____
ROOT
ATOM      1  N   UNL     1      47.508   5.762  12.797  0.00  0.00    +0.000 N 
ATOM      2  H   UNL     1      47.875   4.901  12.404  0.00  0.00    +0.000 HD
ENDROOT
BRANCH   1   3
ATOM      3  C   UNL     1      47.830   5.904  14.148  0.00  0.00    +0.000 A 
ATOM      4  C   UNL     1      48.646   6.924  14.656  0.00  0.00    +0.000 A 
ATOM      5  C   UNL     1      49.029   6.966  15.996  0.00  0.00    +0.000 A 
ATOM      6  C   UNL     1      48.594   5.983  16.873  0.00  0.00    +0.000 A 
ATOM      7  C   UNL     1      47.769   4.950  16.416  0.00  0.00    +0.000 A 
ATOM      8  C   UNL     1      47.417   4.904  15.053  0.00  0.00    +0.000 A 
BRANCH   7   9
ATOM      9  C   UNL     1      47.309   3.961  17.435  0.00  0.00    +0.000 C 
ATOM     10  N   UNL     1      47.886   3.962  18.672  0.00  0.00    +0.000 N 
ATOM     11  O   UNL     1      46.446   3.131  17.177  0.00  0.00    +0.000 OA
ATOM     12  H   UNL     1      48.641   4.561  18.961  0.00  0.00    +0.000 HD
ATOM     13  H   UNL     1      47.580   3.236  19.307  0.00  0.00    +0.000 HD
ENDBRANCH   7   9
ENDBRANCH   1   3
BRANCH   1  15
ATOM     14  C   UNL     1      45.654   7.422  12.905  0.00  0.00    +0.000 C 
ATOM     15  C   UNL     1      46.227   6.188  12.166  0.00  0.00    +0.000 C 
ATOM     16  C   UNL     1      46.554   6.681  10.734  0.00  0.00    +0.000 C 
BRANCH  15  17
ATOM     17  C   UNL     1      45.218   5.024  12.050  0.00  0.00    +0.000 A 
ATOM     18  C   UNL     1      44.267   4.789  13.053  0.00  0.00    +0.000 A 
ATOM     19  C   UNL     1      43.362   3.740  12.903  0.00  0.00    +0.000 A 
ATOM     20  C   UNL     1      43.418   2.949  11.764  0.00  0.00    +0.000 A 
ATOM     21  C   UNL     1      44.384   3.246  10.822  0.00  0.00    +0.000 A 
ATOM     22 CL   UNL     1      44.516   2.344   9.372  0.00  0.00    +0.000 Cl
ATOM     23  N   UNL     1      45.282   4.244  10.940  0.00  0.00    +0.000 NA
ENDBRANCH  15  17
ENDBRANCH   1  15
TORSDOF 4
ENDMDL
MODEL 7
REMARK VINA RESULT:    -6.297      3.807      6.802
REMARK INTER + INTRA:          -7.921
REMARK INTER:                  -7.125
REMARK INTRA:                  -0.796
REMARK UNBOUND:                -0.152
REMARK  Name = 
REMARK  6 active torsions:
REMARK  status: ('A' for Active; 'I' for Inactive)
REMARK    1  A    between atoms: C_1  and  C_2
REMARK    2  A    between atoms: C_2  and  C_3
REMARK    3  A    between atoms: C_2  and  N_4
REMARK    4  A    between atoms: C_2  and  C_14
REMARK    5  A    between atoms: N_4  and  C_5
REMARK    6  A    between atoms: C_9  and  C_10
REMARK                            x       y       z     vdW  Elec       q    Type
REMARK                         _______ _______ _______ _____ _____    ______ ____
ROOT
ATOM      1  N   UNL     1      46.028   7.721  13.184  0.00  0.00    +0.000 N 
ATOM      2  H   UNL     1      45.410   7.597  13.980  0.00  0.00    +0.000 HD
ENDROOT
BRANCH   1   3
ATOM      3  C   UNL     1      45.699   8.850  12.431  0.00  0.00    +0.000 A 
ATOM      4  C   UNL     1      46.491  10.003  12.363  0.00  0.00    +0.000 A 
ATOM      5  C   UNL     1      46.072  11.149  11.685  0.00  0.00    +0.000 A 
ATOM      6  C   UNL     1      44.842  11.165  11.045  0.00  0.00    +0.000 A 
ATOM      7  C   UNL     1      44.020  10.034  11.076  0.00  0.00    +0.000 A 
ATOM      8  C   UNL     1      44.442   8.897  11.792  0.00  0.00    +0.000 A 
BRANCH   7   9
ATOM      9  C   UNL     1      42.733  10.121  10.323  0.00  0.00    +0.000 C 
ATOM     10  N   UNL     1      41.588   9.661  10.907  0.00  0.00    +0.000 N 
ATOM     11  O   UNL     1      42.687  10.569   9.185  0.00  0.00    +0.000 OA
ATOM     12  H   UNL     1      41.532   9.222  11.810  0.00  0.00    +0.000 HD
ATOM     13  H   UNL     1      40.754   9.690  10.334  0.00  0.00    +0.000 HD
ENDBRANCH   7   9
ENDBRANCH   1   3
BRANCH   1  15
ATOM     14  C   UNL     1      47.572   6.696  11.520  0.00  0.00    +0.000 C 
ATOM     15  C   UNL     1      46.525   6.430  12.630  0.00  0.00    +0.000 C 
ATOM     16  C   UNL     1      47.300   5.706  13.760  0.00  0.00    +0.000 C 
BRANCH  15  17
ATOM     17  C   UNL     1      45.374   5.508  12.174  0.00  0.00    +0.000 A 
ATOM     18  C   UNL     1      44.345   5.144  13.055  0.00  0.00    +0.000 A 
ATOM     19  C   UNL     1      43.314   4.324  12.600  0.00  0.00    +0.000 A 
ATOM     20  C   UNL     1      43.324   3.885  11.283  0.00  0.00    +0.000 A 
ATOM     21  C   UNL     1      44.372   4.288  10.479  0.00  0.00    +0.000 A 
ATOM     22 CL   UNL     1      44.457   3.819   8.834  0.00  0.00    +0.000 Cl
ATOM     23  N   UNL     1      45.390   5.069  10.889  0.00  0.00    +0.000 NA
ENDBRANCH  15  17
ENDBRANCH   1  15
TORSDOF 4
ENDMDL
MODEL 8
REMARK VINA RESULT:    -6.228      2.746      4.947
REMARK INTER + INTRA:          -7.836
REMARK INTER:                  -7.414
REMARK INTRA:                  -0.422
REMARK UNBOUND:                -0.152
REMARK  Name = 
REMARK  6 active torsions:
REMARK  status: ('A' for Active; 'I' for Inactive)
REMARK    1  A    between atoms: C_1  and  C_2
REMARK    2  A    between atoms: C_2  and  C_3
REMARK    3  A    between atoms: C_2  and  N_4
REMARK    4  A    between atoms: C_2  and  C_14
REMARK    5  A    between atoms: N_4  and  C_5
REMARK    6  A    between atoms: C_9  and  C_10
REMARK                            x       y       z     vdW  Elec       q    Type
REMARK                         _______ _______ _______ _____ _____    ______ ____
ROOT
ATOM      1  N   UNL     1      46.655   7.311  13.319  0.00  0.00    +0.000 N 
ATOM      2  H   UNL     1      46.056   7.790  13.984  0.00  0.00    +0.000 HD
ENDROOT
BRANCH   1   3
ATOM      3  C   UNL     1      46.025   6.207  12.741  0.00  0.00    +0.000 A 
ATOM      4  C   UNL     1      45.533   5.116  13.469  0.00  0.00    +0.000 A 
ATOM      5  C   UNL     1      45.008   3.986  12.843  0.00  0.00    +0.000 A 
ATOM      6  C   UNL     1      44.953   3.922  11.458  0.00  0.00    +0.000 A 
ATOM      7  C   UNL     1      45.422   4.991  10.688  0.00  0.00    +0.000 A 
ATOM      8  C   UNL     1      45.979   6.112  11.334  0.00  0.00    +0.000 A 
BRANCH   7   9
ATOM      9  C   UNL     1      45.283   4.860   9.206  0.00  0.00    +0.000 C 
ATOM     10  N   UNL     1      44.141   4.319   8.691  0.00  0.00    +0.000 N 
ATOM     11  O   UNL     1      46.181   5.202   8.447  0.00  0.00    +0.000 OA
ATOM     12  H   UNL     1      43.375   3.955   9.231  0.00  0.00    +0.000 HD
ATOM     13  H   UNL     1      44.120   4.200   7.686  0.00  0.00    +0.000 HD
ENDBRANCH   7   9
ENDBRANCH   1   3
BRANCH   1  15
ATOM     14  C   UNL     1      48.955   6.677  12.601  0.00  0.00    +0.000 C 
ATOM     15  C   UNL     1      48.099   7.392  13.677  0.00  0.00    +0.000 C 
ATOM     16  C   UNL     1      48.515   8.882  13.609  0.00  0.00    +0.000 C 
BRANCH  15  17
ATOM     17  C   UNL     1      48.374   6.885  15.110  0.00  0.00    +0.000 A 
ATOM     18  C   UNL     1      48.714   7.774  16.139  0.00  0.00    +0.000 A 
ATOM     19  C   UNL     1      48.937   7.280  17.423  0.00  0.00    +0.000 A 
ATOM     20  C   UNL     1      48.816   5.917  17.659  0.00  0.00    +0.000 A 
ATOM     21  C   UNL     1      48.477   5.108  16.592  0.00  0.00    +0.000 A 
ATOM     22 CL   UNL     1      48.279   3.418  16.789  0.00  0.00    +0.000 Cl
ATOM     23  N   UNL     1      48.266   5.550  15.337  0.00  0.00    +0.000 NA
ENDBRANCH  15  17
ENDBRANCH   1  15
TORSDOF 4
ENDMDL
MODEL 9
REMARK VINA RESULT:    -6.024      3.508      5.752
REMARK INTER + INTRA:          -7.585
REMARK INTER:                  -6.959
REMARK INTRA:                  -0.626
REMARK UNBOUND:                -0.152
REMARK  Name = 
REMARK  6 active torsions:
REMARK  status: ('A' for Active; 'I' for Inactive)
REMARK    1  A    between atoms: C_1  and  C_2
REMARK    2  A    between atoms: C_2  and  C_3
REMARK    3  A    between atoms: C_2  and  N_4
REMARK    4  A    between atoms: C_2  and  C_14
REMARK    5  A    between atoms: N_4  and  C_5
REMARK    6  A    between atoms: C_9  and  C_10
REMARK                            x       y       z     vdW  Elec       q    Type
REMARK                         _______ _______ _______ _____ _____    ______ ____
ROOT
ATOM      1  N   UNL     1      46.988   6.770  14.095  0.00  0.00    +0.000 N 
ATOM      2  H   UNL     1      46.954   6.108  14.864  0.00  0.00    +0.000 HD
ENDROOT
BRANCH   1   3
ATOM      3  C   UNL     1      46.087   6.446  13.078  0.00  0.00    +0.000 A 
ATOM      4  C   UNL     1      45.343   7.391  12.361  0.00  0.00    +0.000 A 
ATOM      5  C   UNL     1      44.376   7.017  11.428  0.00  0.00    +0.000 A 
ATOM      6  C   UNL     1      44.134   5.673  11.181  0.00  0.00    +0.000 A 
ATOM      7  C   UNL     1      44.860   4.693  11.864  0.00  0.00    +0.000 A 
ATOM      8  C   UNL     1      45.810   5.086  12.827  0.00  0.00    +0.000 A 
BRANCH   7   9
ATOM      9  C   UNL     1      44.570   3.272  11.504  0.00  0.00    +0.000 C 
ATOM     10  N   UNL     1      43.961   2.465  12.421  0.00  0.00    +0.000 N 
ATOM     11  O   UNL     1      44.890   2.810  10.417  0.00  0.00    +0.000 OA
ATOM     12  H   UNL     1      43.715   2.733  13.359  0.00  0.00    +0.000 HD
ATOM     13  H   UNL     1      43.839   1.498  12.150  0.00  0.00    +0.000 HD
ENDBRANCH   7   9
ENDBRANCH   1   3
BRANCH   1  15
ATOM     14  C   UNL     1      48.837   7.068  12.453  0.00  0.00    +0.000 C 
ATOM     15  C   UNL     1      48.344   7.355  13.894  0.00  0.00    +0.000 C 
ATOM     16  C   UNL     1      48.207   8.895  13.982  0.00  0.00    +0.000 C 
BRANCH  15  17
ATOM     17  C   UNL     1      49.342   6.902  14.981  0.00  0.00    +0.000 A 
ATOM     18  C   UNL     1      50.616   7.480  15.081  0.00  0.00    +0.000 A 
ATOM     19  C   UNL     1      51.481   7.057  16.088  0.00  0.00    +0.000 A 
ATOM     20  C   UNL     1      51.066   6.072  16.974  0.00  0.00    +0.000 A 
ATOM     21  C   UNL     1      49.797   5.553  16.809  0.00  0.00    +0.000 A 
ATOM     22 CL   UNL     1      49.185   4.353  17.867  0.00  0.00    +0.000 Cl
ATOM     23  N   UNL     1      48.939   5.930  15.840  0.00  0.00    +0.000 NA
ENDBRANCH  15  17
ENDBRANCH   1  15
TORSDOF 4
ENDMDL
