MODEL 1
REMARK VINA RESULT:    -7.725      0.000      0.000
REMARK INTER + INTRA:         -13.472
REMARK INTER:                 -12.240
REMARK INTRA:                  -1.232
REMARK UNBOUND:                -1.232
REMARK  Name = 
REMARK  11 active torsions:
REMARK  status: ('A' for Active; 'I' for Inactive)
REMARK    1  A    between atoms: N_1  and  C_2
REMARK    2  A    between atoms: C_2  and  C_3
REMARK    3  A    between atoms: C_3  and  C_4
REMARK    4  A    between atoms: C_4  and  N_5
REMARK    5  A    between atoms: C_8  and  C_9
REMARK    6  A    between atoms: C_9  and  C_10
REMARK    7  A    between atoms: C_10  and  N_11
REMARK    8  A    between atoms: C_10  and  C_12
REMARK    9  A    between atoms: C_15  and  C_16
REMARK   10  A    between atoms: C_16  and  N_17
REMARK   11  A    between atoms: C_18  and  C_20
REMARK                            x       y       z     vdW  Elec       q    Type
REMARK                         _______ _______ _______ _____ _____    ______ ____
ROOT
ATOM      1  C   UNL     1      47.128   4.587  14.431  0.00  0.00    +0.000 A 
ATOM      2  C   UNL     1      47.311   5.316  15.600  0.00  0.00    +0.000 A 
ATOM      3  C   UNL     1      47.821   4.667  16.716  0.00  0.00    +0.000 A 
ATOM      4  C   UNL     1      48.107   3.315  16.632  0.00  0.00    +0.000 A 
ATOM      5  N   UNL     1      47.903   2.626  15.488  0.00  0.00    +0.000 NA
ATOM      6  N   UNL     1      47.405   3.264  14.383  0.00  0.00    +0.000 NA
ENDROOT
BRANCH   1   7
ATOM      7  C   UNL     1      46.665   5.273  13.149  0.00  0.00    +0.000 C 
BRANCH   7   8
ATOM      8  N   UNL     1      46.105   6.600  13.420  0.00  0.00    +0.000 NA
ATOM      9  H   UNL     1      45.285   6.731  12.825  0.00  0.00    +0.000 HD
ATOM     10  H   UNL     1      46.771   7.322  13.153  0.00  0.00    +0.000 HD
ENDBRANCH   7   8
BRANCH   7  11
ATOM     11  C   UNL     1      45.666   4.348  12.416  0.00  0.00    +0.000 C 
BRANCH  11  15
ATOM     12  N   UNL     1      44.796   3.927   8.846  0.00  0.00    +0.000 NA
ATOM     13  C   UNL     1      44.227   3.130   9.945  0.00  0.00    +0.000 C 
ATOM     14  C   UNL     1      43.577   3.999  11.026  0.00  0.00    +0.000 C 
ATOM     15  C   UNL     1      44.552   5.040  11.596  0.00  0.00    +0.000 C 
ATOM     16  C   UNL     1      45.067   5.867  10.413  0.00  0.00    +0.000 C 
ATOM     17  C   UNL     1      45.696   4.992   9.324  0.00  0.00    +0.000 C 
BRANCH  12  18
ATOM     18  C   UNL     1      45.513   3.073   7.872  0.00  0.00    +0.000 C 
BRANCH  18  19
ATOM     19  C   UNL     1      45.915   1.704   8.438  0.00  0.00    +0.000 C 
BRANCH  19  20
ATOM     20  C   UNL     1      46.913   0.993   7.526  0.00  0.00    +0.000 C 
BRANCH  20  21
ATOM     21  N   UNL     1      46.831  -0.451   7.725  0.00  0.00    +0.000 NA
ATOM     22  H   UNL     1      47.752  -0.819   7.957  0.00  0.00    +0.000 HD
ATOM     23  H   UNL     1      46.554  -0.901   6.853  0.00  0.00    +0.000 HD
ENDBRANCH  20  21
ENDBRANCH  19  20
ENDBRANCH  18  19
ENDBRANCH  12  18
ENDBRANCH  11  15
ENDBRANCH   7  11
ENDBRANCH   1   7
BRANCH   4  24
ATOM     24  C   UNL     1      48.707   2.567  17.793  0.00  0.00    +0.000 C 
BRANCH  24  25
ATOM     25  N   UNL     1      50.067   2.980  18.063  0.00  0.00    +0.000 N 
ATOM     26  C   UNL     1      51.154   2.318  17.558  0.00  0.00    +0.000 C 
ATOM     27  O   UNL     1      51.035   1.338  16.825  0.00  0.00    +0.000 OA
ATOM     28  H   UNL     1      50.189   3.633  18.832  0.00  0.00    +0.000 HD
BRANCH  26  29
ATOM     29  C   UNL     1      52.475   2.873  17.885  0.00  0.00    +0.000 A 
ATOM     30  C   UNL     1      53.444   2.052  18.447  0.00  0.00    +0.000 A 
ATOM     31  S   UNL     1      54.927   2.840  18.736  0.00  0.00    +0.000 S 
ATOM     32  C   UNL     1      54.316   4.320  18.163  0.00  0.00    +0.000 A 
ATOM     33  N   UNL     1      55.087   5.441  18.166  0.00  0.00    +0.000 NA
ATOM     34  C   UNL     1      54.489   6.501  17.731  0.00  0.00    +0.000 A 
ATOM     35  N   UNL     1      53.193   6.536  17.286  0.00  0.00    +0.000 N 
ATOM     36  C   UNL     1      52.395   5.419  17.217  0.00  0.00    +0.000 A 
ATOM     37  O   UNL     1      51.270   5.467  16.727  0.00  0.00    +0.000 OA
ATOM     38  C   UNL     1      53.008   4.208  17.728  0.00  0.00    +0.000 A 
ATOM     39  H   UNL     1      52.791   7.394  16.935  0.00  0.00    +0.000 HD
ENDBRANCH  26  29
ENDBRANCH  24  25
ENDBRANCH   4  24
TORSDOF 11
ENDMDL
MODEL 2
REMARK VINA RESULT:    -7.554      1.525      2.468
REMARK INTER + INTRA:         -13.201
REMARK INTER:                 -12.386
REMARK INTRA:                  -0.816
REMARK UNBOUND:                -1.232
REMARK  Name = 
REMARK  11 active torsions:
REMARK  status: ('A' for Active; 'I' for Inactive)
REMARK    1  A    between atoms: N_1  and  C_2
REMARK    2  A    between atoms: C_2  and  C_3
REMARK    3  A    between atoms: C_3  and  C_4
REMARK    4  A    between atoms: C_4  and  N_5
REMARK    5  A    between atoms: C_8  and  C_9
REMARK    6  A    between atoms: C_9  and  C_10
REMARK    7  A    between atoms: C_10  and  N_11
REMARK    8  A    between atoms: C_10  and  C_12
REMARK    9  A    between atoms: C_15  and  C_16
REMARK   10  A    between atoms: C_16  and  N_17
REMARK   11  A    between atoms: C_18  and  C_20
REMARK                            x       y       z     vdW  Elec       q    Type
REMARK                         _______ _______ _______ _____ _____    ______ ____
ROOT
ATOM      1  C   UNL     1      47.137   4.601  14.409  0.00  0.00    +0.000 A 
ATOM      2  C   UNL     1      47.457   5.432  15.477  0.00  0.00    +0.000 A 
ATOM      3  C   UNL     1      48.054   4.873  16.599  0.00  0.00    +0.000 A 
ATOM      4  C   UNL     1      48.287   3.507  16.623  0.00  0.00    +0.000 A 
ATOM      5  N   UNL     1      47.950   2.721  15.577  0.00  0.00    +0.000 NA
ATOM      6  N   UNL     1      47.366   3.270  14.467  0.00  0.00    +0.000 NA
ENDROOT
BRANCH   1   7
ATOM      7  C   UNL     1      46.573   5.180  13.114  0.00  0.00    +0.000 C 
BRANCH   7   8
ATOM      8  N   UNL     1      46.069   6.543  13.308  0.00  0.00    +0.000 NA
ATOM      9  H   UNL     1      45.972   6.983  12.391  0.00  0.00    +0.000 HD
ATOM     10  H   UNL     1      46.750   7.097  13.822  0.00  0.00    +0.000 HD
ENDBRANCH   7   8
BRANCH   7  11
ATOM     11  C   UNL     1      45.491   4.221  12.565  0.00  0.00    +0.000 C 
BRANCH  11  15
ATOM     12  N   UNL     1      44.891   3.859   8.933  0.00  0.00    +0.000 NA
ATOM     13  C   UNL     1      44.316   2.983   9.968  0.00  0.00    +0.000 C 
ATOM     14  C   UNL     1      43.531   3.762  11.027  0.00  0.00    +0.000 C 
ATOM     15  C   UNL     1      44.381   4.854  11.693  0.00  0.00    +0.000 C 
ATOM     16  C   UNL     1      44.905   5.758  10.572  0.00  0.00    +0.000 C 
ATOM     17  C   UNL     1      45.671   4.972   9.503  0.00  0.00    +0.000 C 
BRANCH  12  18
ATOM     18  C   UNL     1      45.735   3.097   7.986  0.00  0.00    +0.000 C 
BRANCH  18  19
ATOM     19  C   UNL     1      45.996   1.649   8.426  0.00  0.00    +0.000 C 
BRANCH  19  20
ATOM     20  C   UNL     1      46.875   0.908   7.420  0.00  0.00    +0.000 C 
BRANCH  20  21
ATOM     21  N   UNL     1      46.866  -0.523   7.708  0.00  0.00    +0.000 NA
ATOM     22  H   UNL     1      45.906  -0.864   7.725  0.00  0.00    +0.000 HD
ATOM     23  H   UNL     1      47.244  -0.687   8.641  0.00  0.00    +0.000 HD
ENDBRANCH  20  21
ENDBRANCH  19  20
ENDBRANCH  18  19
ENDBRANCH  12  18
ENDBRANCH  11  15
ENDBRANCH   7  11
ENDBRANCH   1   7
BRANCH   4  24
ATOM     24  C   UNL     1      48.974   2.850  17.790  0.00  0.00    +0.000 C 
BRANCH  24  25
ATOM     25  N   UNL     1      50.397   2.703  17.574  0.00  0.00    +0.000 N 
ATOM     26  C   UNL     1      51.324   3.504  18.185  0.00  0.00    +0.000 C 
ATOM     27  O   UNL     1      50.998   4.388  18.975  0.00  0.00    +0.000 OA
ATOM     28  H   UNL     1      50.669   2.142  16.771  0.00  0.00    +0.000 HD
BRANCH  26  29
ATOM     29  C   UNL     1      52.736   3.214  17.901  0.00  0.00    +0.000 A 
ATOM     30  C   UNL     1      53.627   4.263  17.712  0.00  0.00    +0.000 A 
ATOM     31  S   UNL     1      55.229   3.760  17.424  0.00  0.00    +0.000 S 
ATOM     32  C   UNL     1      54.785   2.120  17.493  0.00  0.00    +0.000 A 
ATOM     33  N   UNL     1      55.706   1.138  17.294  0.00  0.00    +0.000 NA
ATOM     34  C   UNL     1      55.227  -0.061  17.346  0.00  0.00    +0.000 A 
ATOM     35  N   UNL     1      53.913  -0.365  17.588  0.00  0.00    +0.000 N 
ATOM     36  C   UNL     1      52.959   0.591  17.847  0.00  0.00    +0.000 A 
ATOM     37  O   UNL     1      51.811   0.282  18.152  0.00  0.00    +0.000 OA
ATOM     38  C   UNL     1      53.438   1.957  17.764  0.00  0.00    +0.000 A 
ATOM     39  H   UNL     1      53.606  -1.326  17.641  0.00  0.00    +0.000 HD
ENDBRANCH  26  29
ENDBRANCH  24  25
ENDBRANCH   4  24
TORSDOF 11
ENDMDL
MODEL 3
REMARK VINA RESULT:    -7.302      3.857      9.475
REMARK INTER + INTRA:         -12.802
REMARK INTER:                 -10.630
REMARK INTRA:                  -2.172
REMARK UNBOUND:                -1.232
REMARK  Name = 
REMARK  11 active torsions:
REMARK  status: ('A' for Active; 'I' for Inactive)
REMARK    1  A    between atoms: N_1  and  C_2
REMARK    2  A    between atoms: C_2  and  C_3
REMARK    3  A    between atoms: C_3  and  C_4
REMARK    4  A    between atoms: C_4  and  N_5
REMARK    5  A    between atoms: C_8  and  C_9
REMARK    6  A    between atoms: C_9  and  C_10
REMARK    7  A    between atoms: C_10  and  N_11
REMARK    8  A    between atoms: C_10  and  C_12
REMARK    9  A    between atoms: C_15  and  C_16
REMARK   10  A    between atoms: C_16  and  N_17
REMARK   11  A    between atoms: C_18  and  C_20
REMARK                            x       y       z     vdW  Elec       q    Type
REMARK                         _______ _______ _______ _____ _____    ______ ____
ROOT
ATOM      1  C   UNL     1      49.503   7.653  15.743  0.00  0.00    +0.000 A 
ATOM      2  C   UNL     1      48.779   8.805  15.457  0.00  0.00    +0.000 A 
ATOM      3  C   UNL     1      48.098   8.881  14.250  0.00  0.00    +0.000 A 
ATOM      4  C   UNL     1      48.182   7.818  13.365  0.00  0.00    +0.000 A 
ATOM      5  N   UNL     1      48.908   6.717  13.661  0.00  0.00    +0.000 NA
ATOM      6  N   UNL     1      49.576   6.637  14.854  0.00  0.00    +0.000 NA
ENDROOT
BRANCH   1   7
ATOM      7  C   UNL     1      50.186   7.478  17.096  0.00  0.00    +0.000 C 
BRANCH   7   8
ATOM      8  N   UNL     1      50.870   8.704  17.517  0.00  0.00    +0.000 NA
ATOM      9  H   UNL     1      51.058   8.640  18.519  0.00  0.00    +0.000 HD
ATOM     10  H   UNL     1      50.258   9.506  17.390  0.00  0.00    +0.000 HD
ENDBRANCH   7   8
BRANCH   7  11
ATOM     11  C   UNL     1      51.140   6.263  17.024  0.00  0.00    +0.000 C 
BRANCH  11  15
ATOM     12  N   UNL     1      49.125   3.425  18.278  0.00  0.00    +0.000 NA
ATOM     13  C   UNL     1      50.303   3.293  17.405  0.00  0.00    +0.000 C 
ATOM     14  C   UNL     1      51.550   3.959  17.995  0.00  0.00    +0.000 C 
ATOM     15  C   UNL     1      51.316   5.441  18.323  0.00  0.00    +0.000 C 
ATOM     16  C   UNL     1      50.115   5.505  19.272  0.00  0.00    +0.000 C 
ATOM     17  C   UNL     1      48.876   4.819  18.687  0.00  0.00    +0.000 C 
BRANCH  12  18
ATOM     18  C   UNL     1      47.910   2.873  17.638  0.00  0.00    +0.000 C 
BRANCH  18  19
ATOM     19  C   UNL     1      47.071   3.928  16.903  0.00  0.00    +0.000 C 
BRANCH  19  20
ATOM     20  C   UNL     1      47.276   3.853  15.391  0.00  0.00    +0.000 C 
BRANCH  20  21
ATOM     21  N   UNL     1      46.731   5.048  14.754  0.00  0.00    +0.000 NA
ATOM     22  H   UNL     1      47.481   5.571  14.305  0.00  0.00    +0.000 HD
ATOM     23  H   UNL     1      46.337   5.665  15.464  0.00  0.00    +0.000 HD
ENDBRANCH  20  21
ENDBRANCH  19  20
ENDBRANCH  18  19
ENDBRANCH  12  18
ENDBRANCH  11  15
ENDBRANCH   7  11
ENDBRANCH   1   7
BRANCH   4  24
ATOM     24  C   UNL     1      47.429   7.821  12.063  0.00  0.00    +0.000 C 
BRANCH  24  25
ATOM     25  N   UNL     1      46.732   6.573  11.833  0.00  0.00    +0.000 N 
ATOM     26  C   UNL     1      45.369   6.497  11.727  0.00  0.00    +0.000 C 
ATOM     27  O   UNL     1      44.655   7.495  11.803  0.00  0.00    +0.000 OA
ATOM     28  H   UNL     1      47.273   5.727  11.990  0.00  0.00    +0.000 HD
BRANCH  26  29
ATOM     29  C   UNL     1      44.803   5.169  11.455  0.00  0.00    +0.000 A 
ATOM     30  C   UNL     1      44.033   4.540  12.425  0.00  0.00    +0.000 A 
ATOM     31  S   UNL     1      43.425   3.023  11.943  0.00  0.00    +0.000 S 
ATOM     32  C   UNL     1      44.205   3.127  10.436  0.00  0.00    +0.000 A 
ATOM     33  N   UNL     1      44.115   2.116   9.531  0.00  0.00    +0.000 NA
ATOM     34  C   UNL     1      44.779   2.314   8.440  0.00  0.00    +0.000 A 
ATOM     35  N   UNL     1      45.517   3.437   8.171  0.00  0.00    +0.000 N 
ATOM     36  C   UNL     1      45.595   4.505   9.033  0.00  0.00    +0.000 A 
ATOM     37  O   UNL     1      46.188   5.534   8.723  0.00  0.00    +0.000 OA
ATOM     38  C   UNL     1      44.895   4.318  10.290  0.00  0.00    +0.000 A 
ATOM     39  H   UNL     1      45.995   3.542   7.287  0.00  0.00    +0.000 HD
ENDBRANCH  26  29
ENDBRANCH  24  25
ENDBRANCH   4  24
TORSDOF 11
ENDMDL
MODEL 4
REMARK VINA RESULT:    -7.178      3.896      9.142
REMARK INTER + INTRA:         -12.606
REMARK INTER:                  -9.977
REMARK INTRA:                  -2.630
REMARK UNBOUND:                -1.232
REMARK  Name = 
REMARK  11 active torsions:
REMARK  status: ('A' for Active; 'I' for Inactive)
REMARK    1  A    between atoms: N_1  and  C_2
REMARK    2  A    between atoms: C_2  and  C_3
REMARK    3  A    between atoms: C_3  and  C_4
REMARK    4  A    between atoms: C_4  and  N_5
REMARK    5  A    between atoms: C_8  and  C_9
REMARK    6  A    between atoms: C_9  and  C_10
REMARK    7  A    between atoms: C_10  and  N_11
REMARK    8  A    between atoms: C_10  and  C_12
REMARK    9  A    between atoms: C_15  and  C_16
REMARK   10  A    between atoms: C_16  and  N_17
REMARK   11  A    between atoms: C_18  and  C_20
REMARK                            x       y       z     vdW  Elec       q    Type
REMARK                         _______ _______ _______ _____ _____    ______ ____
ROOT
ATOM      1  C   UNL     1      51.177   2.302  17.331  0.00  0.00    +0.000 A 
ATOM      2  C   UNL     1      50.702   3.474  17.910  0.00  0.00    +0.000 A 
ATOM      3  C   UNL     1      49.389   3.853  17.664  0.00  0.00    +0.000 A 
ATOM      4  C   UNL     1      48.609   3.064  16.834  0.00  0.00    +0.000 A 
ATOM      5  N   UNL     1      49.102   1.939  16.271  0.00  0.00    +0.000 NA
ATOM      6  N   UNL     1      50.395   1.559  16.516  0.00  0.00    +0.000 NA
ENDROOT
BRANCH   1   7
ATOM      7  C   UNL     1      52.579   1.789  17.650  0.00  0.00    +0.000 C 
BRANCH   7   8
ATOM      8  N   UNL     1      52.571   0.357  17.960  0.00  0.00    +0.000 NA
ATOM      9  H   UNL     1      53.306   0.172  18.645  0.00  0.00    +0.000 HD
ATOM     10  H   UNL     1      52.810  -0.181  17.129  0.00  0.00    +0.000 HD
ENDBRANCH   7   8
BRANCH   7  11
ATOM     11  C   UNL     1      53.177   2.639  18.794  0.00  0.00    +0.000 C 
BRANCH  11  15
ATOM     12  N   UNL     1      54.217   6.125  18.120  0.00  0.00    +0.000 NA
ATOM     13  C   UNL     1      54.089   5.534  19.463  0.00  0.00    +0.000 C 
ATOM     14  C   UNL     1      54.931   4.265  19.629  0.00  0.00    +0.000 C 
ATOM     15  C   UNL     1      54.598   3.206  18.568  0.00  0.00    +0.000 C 
ATOM     16  C   UNL     1      54.799   3.865  17.200  0.00  0.00    +0.000 C 
ATOM     17  C   UNL     1      53.972   5.146  17.046  0.00  0.00    +0.000 C 
BRANCH  12  18
ATOM     18  C   UNL     1      53.311   7.283  17.950  0.00  0.00    +0.000 C 
BRANCH  18  19
ATOM     19  C   UNL     1      52.191   7.040  16.928  0.00  0.00    +0.000 C 
BRANCH  19  20
ATOM     20  C   UNL     1      52.100   8.181  15.916  0.00  0.00    +0.000 C 
BRANCH  20  21
ATOM     21  N   UNL     1      52.156   7.650  14.558  0.00  0.00    +0.000 NA
ATOM     22  H   UNL     1      52.424   6.667  14.584  0.00  0.00    +0.000 HD
ATOM     23  H   UNL     1      52.885   8.131  14.032  0.00  0.00    +0.000 HD
ENDBRANCH  20  21
ENDBRANCH  19  20
ENDBRANCH  18  19
ENDBRANCH  12  18
ENDBRANCH  11  15
ENDBRANCH   7  11
ENDBRANCH   1   7
BRANCH   4  24
ATOM     24  C   UNL     1      47.165   3.396  16.568  0.00  0.00    +0.000 C 
BRANCH  24  25
ATOM     25  N   UNL     1      47.020   4.456  15.594  0.00  0.00    +0.000 N 
ATOM     26  C   UNL     1      46.893   4.215  14.252  0.00  0.00    +0.000 C 
ATOM     27  O   UNL     1      46.874   3.073  13.797  0.00  0.00    +0.000 OA
ATOM     28  H   UNL     1      47.255   5.391  15.917  0.00  0.00    +0.000 HD
BRANCH  26  29
ATOM     29  C   UNL     1      46.715   5.388  13.385  0.00  0.00    +0.000 A 
ATOM     30  C   UNL     1      45.628   5.443  12.521  0.00  0.00    +0.000 A 
ATOM     31  S   UNL     1      45.548   6.880  11.610  0.00  0.00    +0.000 S 
ATOM     32  C   UNL     1      46.988   7.465  12.301  0.00  0.00    +0.000 A 
ATOM     33  N   UNL     1      47.507   8.664  11.924  0.00  0.00    +0.000 NA
ATOM     34  C   UNL     1      48.618   8.972  12.507  0.00  0.00    +0.000 A 
ATOM     35  N   UNL     1      49.250   8.192  13.440  0.00  0.00    +0.000 N 
ATOM     36  C   UNL     1      48.736   6.998  13.889  0.00  0.00    +0.000 A 
ATOM     37  O   UNL     1      49.279   6.369  14.792  0.00  0.00    +0.000 OA
ATOM     38  C   UNL     1      47.507   6.589  13.238  0.00  0.00    +0.000 A 
ATOM     39  H   UNL     1      50.106   8.501  13.878  0.00  0.00    +0.000 HD
ENDBRANCH  26  29
ENDBRANCH  24  25
ENDBRANCH   4  24
TORSDOF 11
ENDMDL
MODEL 5
REMARK VINA RESULT:    -6.969      3.737      9.583
REMARK INTER + INTRA:         -12.275
REMARK INTER:                 -10.559
REMARK INTRA:                  -1.717
REMARK UNBOUND:                -1.232
REMARK  Name = 
REMARK  11 active torsions:
REMARK  status: ('A' for Active; 'I' for Inactive)
REMARK    1  A    between atoms: N_1  and  C_2
REMARK    2  A    between atoms: C_2  and  C_3
REMARK    3  A    between atoms: C_3  and  C_4
REMARK    4  A    between atoms: C_4  and  N_5
REMARK    5  A    between atoms: C_8  and  C_9
REMARK    6  A    between atoms: C_9  and  C_10
REMARK    7  A    between atoms: C_10  and  N_11
REMARK    8  A    between atoms: C_10  and  C_12
REMARK    9  A    between atoms: C_15  and  C_16
REMARK   10  A    between atoms: C_16  and  N_17
REMARK   11  A    between atoms: C_18  and  C_20
REMARK                            x       y       z     vdW  Elec       q    Type
REMARK                         _______ _______ _______ _____ _____    ______ ____
ROOT
ATOM      1  C   UNL     1      51.270   2.547  17.481  0.00  0.00    +0.000 A 
ATOM      2  C   UNL     1      50.707   3.682  18.055  0.00  0.00    +0.000 A 
ATOM      3  C   UNL     1      49.367   3.954  17.813  0.00  0.00    +0.000 A 
ATOM      4  C   UNL     1      48.647   3.101  16.993  0.00  0.00    +0.000 A 
ATOM      5  N   UNL     1      49.225   2.015  16.434  0.00  0.00    +0.000 NA
ATOM      6  N   UNL     1      50.545   1.740  16.675  0.00  0.00    +0.000 NA
ENDROOT
BRANCH   1   7
ATOM      7  C   UNL     1      52.709   2.149  17.795  0.00  0.00    +0.000 C 
BRANCH   7   8
ATOM      8  N   UNL     1      52.814   0.724  18.124  0.00  0.00    +0.000 NA
ATOM      9  H   UNL     1      51.899   0.293  17.982  0.00  0.00    +0.000 HD
ATOM     10  H   UNL     1      53.037   0.609  19.110  0.00  0.00    +0.000 HD
ENDBRANCH   7   8
BRANCH   7  11
ATOM     11  C   UNL     1      53.248   3.058  18.923  0.00  0.00    +0.000 C 
BRANCH  11  15
ATOM     12  N   UNL     1      53.898   6.557  17.915  0.00  0.00    +0.000 NA
ATOM     13  C   UNL     1      53.804   6.092  19.308  0.00  0.00    +0.000 C 
ATOM     14  C   UNL     1      54.781   4.953  19.614  0.00  0.00    +0.000 C 
ATOM     15  C   UNL     1      54.600   3.761  18.661  0.00  0.00    +0.000 C 
ATOM     16  C   UNL     1      54.760   4.301  17.236  0.00  0.00    +0.000 C 
ATOM     17  C   UNL     1      53.796   5.455  16.941  0.00  0.00    +0.000 C 
BRANCH  12  18
ATOM     18  C   UNL     1      52.870   7.579  17.615  0.00  0.00    +0.000 C 
BRANCH  18  19
ATOM     19  C   UNL     1      51.681   7.035  16.810  0.00  0.00    +0.000 C 
BRANCH  19  20
ATOM     20  C   UNL     1      51.141   8.079  15.834  0.00  0.00    +0.000 C 
BRANCH  20  21
ATOM     21  N   UNL     1      50.912   7.470  14.528  0.00  0.00    +0.000 NA
ATOM     22  H   UNL     1      51.329   6.541  14.504  0.00  0.00    +0.000 HD
ATOM     23  H   UNL     1      51.387   8.015  13.808  0.00  0.00    +0.000 HD
ENDBRANCH  20  21
ENDBRANCH  19  20
ENDBRANCH  18  19
ENDBRANCH  12  18
ENDBRANCH  11  15
ENDBRANCH   7  11
ENDBRANCH   1   7
BRANCH   4  24
ATOM     24  C   UNL     1      47.180   3.316  16.733  0.00  0.00    +0.000 C 
BRANCH  24  25
ATOM     25  N   UNL     1      46.947   4.360  15.758  0.00  0.00    +0.000 N 
ATOM     26  C   UNL     1      46.969   4.128  14.408  0.00  0.00    +0.000 C 
ATOM     27  O   UNL     1      47.170   3.007  13.945  0.00  0.00    +0.000 OA
ATOM     28  H   UNL     1      47.003   5.313  16.105  0.00  0.00    +0.000 HD
BRANCH  26  29
ATOM     29  C   UNL     1      46.676   5.275  13.538  0.00  0.00    +0.000 A 
ATOM     30  C   UNL     1      47.681   6.189  13.247  0.00  0.00    +0.000 A 
ATOM     31  S   UNL     1      47.190   7.441  12.201  0.00  0.00    +0.000 S 
ATOM     32  C   UNL     1      45.602   6.836  12.133  0.00  0.00    +0.000 A 
ATOM     33  N   UNL     1      44.641   7.475  11.413  0.00  0.00    +0.000 NA
ATOM     34  C   UNL     1      43.474   6.923  11.472  0.00  0.00    +0.000 A 
ATOM     35  N   UNL     1      43.186   5.786  12.180  0.00  0.00    +0.000 N 
ATOM     36  C   UNL     1      44.135   5.078  12.879  0.00  0.00    +0.000 A 
ATOM     37  O   UNL     1      43.864   4.013  13.425  0.00  0.00    +0.000 OA
ATOM     38  C   UNL     1      45.456   5.676  12.874  0.00  0.00    +0.000 A 
ATOM     39  H   UNL     1      42.256   5.390  12.165  0.00  0.00    +0.000 HD
ENDBRANCH  26  29
ENDBRANCH  24  25
ENDBRANCH   4  24
TORSDOF 11
ENDMDL
MODEL 6
REMARK VINA RESULT:    -6.799      3.985      9.445
REMARK INTER + INTRA:         -12.005
REMARK INTER:                  -9.870
REMARK INTRA:                  -2.135
REMARK UNBOUND:                -1.232
REMARK  Name = 
REMARK  11 active torsions:
REMARK  status: ('A' for Active; 'I' for Inactive)
REMARK    1  A    between atoms: N_1  and  C_2
REMARK    2  A    between atoms: C_2  and  C_3
REMARK    3  A    between atoms: C_3  and  C_4
REMARK    4  A    between atoms: C_4  and  N_5
REMARK    5  A    between atoms: C_8  and  C_9
REMARK    6  A    between atoms: C_9  and  C_10
REMARK    7  A    between atoms: C_10  and  N_11
REMARK    8  A    between atoms: C_10  and  C_12
REMARK    9  A    between atoms: C_15  and  C_16
REMARK   10  A    between atoms: C_16  and  N_17
REMARK   11  A    between atoms: C_18  and  C_20
REMARK                            x       y       z     vdW  Elec       q    Type
REMARK                         _______ _______ _______ _____ _____    ______ ____
ROOT
ATOM      1  C   UNL     1      50.903   7.507  14.869  0.00  0.00    +0.000 A 
ATOM      2  C   UNL     1      51.120   8.553  13.980  0.00  0.00    +0.000 A 
ATOM      3  C   UNL     1      50.132   8.856  13.053  0.00  0.00    +0.000 A 
ATOM      4  C   UNL     1      48.976   8.092  13.033  0.00  0.00    +0.000 A 
ATOM      5  N   UNL     1      48.799   7.069  13.897  0.00  0.00    +0.000 NA
ATOM      6  N   UNL     1      49.770   6.771  14.816  0.00  0.00    +0.000 NA
ENDROOT
BRANCH   1   7
ATOM      7  C   UNL     1      51.913   7.197  15.970  0.00  0.00    +0.000 C 
BRANCH   7   8
ATOM      8  N   UNL     1      53.256   6.979  15.424  0.00  0.00    +0.000 NA
ATOM      9  H   UNL     1      53.534   6.018  15.628  0.00  0.00    +0.000 HD
ATOM     10  H   UNL     1      53.927   7.580  15.898  0.00  0.00    +0.000 HD
ENDBRANCH   7   8
BRANCH   7  11
ATOM     11  C   UNL     1      51.406   5.991  16.793  0.00  0.00    +0.000 C 
BRANCH  11  15
ATOM     12  N   UNL     1      48.264   5.310  18.623  0.00  0.00    +0.000 NA
ATOM     13  C   UNL     1      49.382   4.360  18.499  0.00  0.00    +0.000 C 
ATOM     14  C   UNL     1      50.708   4.947  18.993  0.00  0.00    +0.000 C 
ATOM     15  C   UNL     1      51.065   6.258  18.278  0.00  0.00    +0.000 C 
ATOM     16  C   UNL     1      49.888   7.217  18.488  0.00  0.00    +0.000 C 
ATOM     17  C   UNL     1      48.561   6.618  18.012  0.00  0.00    +0.000 C 
BRANCH  12  18
ATOM     18  C   UNL     1      47.020   4.761  18.037  0.00  0.00    +0.000 C 
BRANCH  18  19
ATOM     19  C   UNL     1      47.227   3.437  17.288  0.00  0.00    +0.000 C 
BRANCH  19  20
ATOM     20  C   UNL     1      47.540   3.672  15.812  0.00  0.00    +0.000 C 
BRANCH  20  21
ATOM     21  N   UNL     1      47.021   4.970  15.393  0.00  0.00    +0.000 NA
ATOM     22  H   UNL     1      47.549   5.714  15.846  0.00  0.00    +0.000 HD
ATOM     23  H   UNL     1      46.057   5.071  15.707  0.00  0.00    +0.000 HD
ENDBRANCH  20  21
ENDBRANCH  19  20
ENDBRANCH  18  19
ENDBRANCH  12  18
ENDBRANCH  11  15
ENDBRANCH   7  11
ENDBRANCH   1   7
BRANCH   4  24
ATOM     24  C   UNL     1      47.849   8.401  12.085  0.00  0.00    +0.000 C 
BRANCH  24  25
ATOM     25  N   UNL     1      47.254   7.201  11.536  0.00  0.00    +0.000 N 
ATOM     26  C   UNL     1      45.900   7.024  11.444  0.00  0.00    +0.000 C 
ATOM     27  O   UNL     1      45.105   7.889  11.809  0.00  0.00    +0.000 OA
ATOM     28  H   UNL     1      47.874   6.401  11.441  0.00  0.00    +0.000 HD
BRANCH  26  29
ATOM     29  C   UNL     1      45.439   5.771  10.829  0.00  0.00    +0.000 A 
ATOM     30  C   UNL     1      45.689   5.537   9.483  0.00  0.00    +0.000 A 
ATOM     31  S   UNL     1      45.119   4.028   8.931  0.00  0.00    +0.000 S 
ATOM     32  C   UNL     1      44.475   3.651  10.459  0.00  0.00    +0.000 A 
ATOM     33  N   UNL     1      43.809   2.483  10.667  0.00  0.00    +0.000 NA
ATOM     34  C   UNL     1      43.348   2.338  11.865  0.00  0.00    +0.000 A 
ATOM     35  N   UNL     1      43.501   3.252  12.875  0.00  0.00    +0.000 N 
ATOM     36  C   UNL     1      44.210   4.420  12.725  0.00  0.00    +0.000 A 
ATOM     37  O   UNL     1      44.408   5.173  13.674  0.00  0.00    +0.000 OA
ATOM     38  C   UNL     1      44.719   4.649  11.387  0.00  0.00    +0.000 A 
ATOM     39  H   UNL     1      43.136   3.067  13.799  0.00  0.00    +0.000 HD
ENDBRANCH  26  29
ENDBRANCH  24  25
ENDBRANCH   4  24
TORSDOF 11
ENDMDL
MODEL 7
REMARK VINA RESULT:    -6.757      2.272      3.567
REMARK INTER + INTRA:         -11.939
REMARK INTER:                 -10.834
REMARK INTRA:                  -1.105
REMARK UNBOUND:                -1.232
REMARK  Name = 
REMARK  11 active torsions:
REMARK  status: ('A' for Active; 'I' for Inactive)
REMARK    1  A    between atoms: N_1  and  C_2
REMARK    2  A    between atoms: C_2  and  C_3
REMARK    3  A    between atoms: C_3  and  C_4
REMARK    4  A    between atoms: C_4  and  N_5
REMARK    5  A    between atoms: C_8  and  C_9
REMARK    6  A    between atoms: C_9  and  C_10
REMARK    7  A    between atoms: C_10  and  N_11
REMARK    8  A    between atoms: C_10  and  C_12
REMARK    9  A    between atoms: C_15  and  C_16
REMARK   10  A    between atoms: C_16  and  N_17
REMARK   11  A    between atoms: C_18  and  C_20
REMARK                            x       y       z     vdW  Elec       q    Type
REMARK                         _______ _______ _______ _____ _____    ______ ____
ROOT
ATOM      1  C   UNL     1      47.193   7.702  13.478  0.00  0.00    +0.000 A 
ATOM      2  C   UNL     1      47.807   6.567  13.997  0.00  0.00    +0.000 A 
ATOM      3  C   UNL     1      48.626   6.703  15.109  0.00  0.00    +0.000 A 
ATOM      4  C   UNL     1      48.820   7.965  15.647  0.00  0.00    +0.000 A 
ATOM      5  N   UNL     1      48.225   9.054  15.111  0.00  0.00    +0.000 NA
ATOM      6  N   UNL     1      47.412   8.922  14.017  0.00  0.00    +0.000 NA
ENDROOT
BRANCH   1   7
ATOM      7  C   UNL     1      46.206   7.592  12.319  0.00  0.00    +0.000 C 
BRANCH   7   8
ATOM      8  N   UNL     1      44.961   8.313  12.601  0.00  0.00    +0.000 NA
ATOM      9  H   UNL     1      44.447   7.797  13.317  0.00  0.00    +0.000 HD
ATOM     10  H   UNL     1      44.369   8.324  11.774  0.00  0.00    +0.000 HD
ENDBRANCH   7   8
BRANCH   7  11
ATOM     11  C   UNL     1      45.966   6.098  12.003  0.00  0.00    +0.000 C 
BRANCH  11  15
ATOM     12  N   UNL     1      44.058   3.325  10.469  0.00  0.00    +0.000 NA
ATOM     13  C   UNL     1      45.049   3.163  11.546  0.00  0.00    +0.000 C 
ATOM     14  C   UNL     1      44.730   4.024  12.771  0.00  0.00    +0.000 C 
ATOM     15  C   UNL     1      44.595   5.513  12.416  0.00  0.00    +0.000 C 
ATOM     16  C   UNL     1      43.518   5.618  11.332  0.00  0.00    +0.000 C 
ATOM     17  C   UNL     1      43.830   4.738  10.117  0.00  0.00    +0.000 C 
BRANCH  12  18
ATOM     18  C   UNL     1      44.448   2.570   9.256  0.00  0.00    +0.000 C 
BRANCH  18  19
ATOM     19  C   UNL     1      44.887   3.467   8.090  0.00  0.00    +0.000 C 
BRANCH  19  20
ATOM     20  C   UNL     1      46.270   3.074   7.573  0.00  0.00    +0.000 C 
BRANCH  20  21
ATOM     21  N   UNL     1      46.756   4.081   6.635  0.00  0.00    +0.000 NA
ATOM     22  H   UNL     1      47.574   3.726   6.142  0.00  0.00    +0.000 HD
ATOM     23  H   UNL     1      47.067   4.906   7.149  0.00  0.00    +0.000 HD
ENDBRANCH  20  21
ENDBRANCH  19  20
ENDBRANCH  18  19
ENDBRANCH  12  18
ENDBRANCH  11  15
ENDBRANCH   7  11
ENDBRANCH   1   7
BRANCH   4  24
ATOM     24  C   UNL     1      49.658   8.171  16.881  0.00  0.00    +0.000 C 
BRANCH  24  25
ATOM     25  N   UNL     1      50.613   7.102  17.075  0.00  0.00    +0.000 N 
ATOM     26  C   UNL     1      50.421   6.096  17.984  0.00  0.00    +0.000 C 
ATOM     27  O   UNL     1      49.408   6.033  18.679  0.00  0.00    +0.000 OA
ATOM     28  H   UNL     1      51.538   7.255  16.683  0.00  0.00    +0.000 HD
BRANCH  26  29
ATOM     29  C   UNL     1      51.457   5.056  18.046  0.00  0.00    +0.000 A 
ATOM     30  C   UNL     1      52.754   5.401  18.406  0.00  0.00    +0.000 A 
ATOM     31  S   UNL     1      53.826   4.078  18.461  0.00  0.00    +0.000 S 
ATOM     32  C   UNL     1      52.610   3.000  17.959  0.00  0.00    +0.000 A 
ATOM     33  N   UNL     1      52.879   1.680  17.774  0.00  0.00    +0.000 NA
ATOM     34  C   UNL     1      51.872   0.981  17.365  0.00  0.00    +0.000 A 
ATOM     35  N   UNL     1      50.619   1.484  17.134  0.00  0.00    +0.000 N 
ATOM     36  C   UNL     1      50.288   2.800  17.357  0.00  0.00    +0.000 A 
ATOM     37  O   UNL     1      49.134   3.199  17.229  0.00  0.00    +0.000 OA
ATOM     38  C   UNL     1      51.394   3.636  17.783  0.00  0.00    +0.000 A 
ATOM     39  H   UNL     1      49.866   0.879  16.837  0.00  0.00    +0.000 HD
ENDBRANCH  26  29
ENDBRANCH  24  25
ENDBRANCH   4  24
TORSDOF 11
ENDMDL
MODEL 8
REMARK VINA RESULT:    -6.683      2.933      4.736
REMARK INTER + INTRA:         -11.822
REMARK INTER:                  -9.871
REMARK INTRA:                  -1.951
REMARK UNBOUND:                -1.232
REMARK  Name = 
REMARK  11 active torsions:
REMARK  status: ('A' for Active; 'I' for Inactive)
REMARK    1  A    between atoms: N_1  and  C_2
REMARK    2  A    between atoms: C_2  and  C_3
REMARK    3  A    between atoms: C_3  and  C_4
REMARK    4  A    between atoms: C_4  and  N_5
REMARK    5  A    between atoms: C_8  and  C_9
REMARK    6  A    between atoms: C_9  and  C_10
REMARK    7  A    between atoms: C_10  and  N_11
REMARK    8  A    between atoms: C_10  and  C_12
REMARK    9  A    between atoms: C_15  and  C_16
REMARK   10  A    between atoms: C_16  and  N_17
REMARK   11  A    between atoms: C_18  and  C_20
REMARK                            x       y       z     vdW  Elec       q    Type
REMARK                         _______ _______ _______ _____ _____    ______ ____
ROOT
ATOM      1  C   UNL     1      46.848   8.369  12.264  0.00  0.00    +0.000 A 
ATOM      2  C   UNL     1      47.775   7.479  11.732  0.00  0.00    +0.000 A 
ATOM      3  C   UNL     1      49.001   7.337  12.367  0.00  0.00    +0.000 A 
ATOM      4  C   UNL     1      49.266   8.101  13.492  0.00  0.00    +0.000 A 
ATOM      5  N   UNL     1      48.353   8.972  13.977  0.00  0.00    +0.000 NA
ATOM      6  N   UNL     1      47.140   9.110  13.356  0.00  0.00    +0.000 NA
ENDROOT
BRANCH   1   7
ATOM      7  C   UNL     1      45.450   8.489  11.664  0.00  0.00    +0.000 C 
BRANCH   7   8
ATOM      8  N   UNL     1      44.560   9.275  12.523  0.00  0.00    +0.000 NA
ATOM      9  H   UNL     1      44.917  10.231  12.567  0.00  0.00    +0.000 HD
ATOM     10  H   UNL     1      44.586   8.915  13.475  0.00  0.00    +0.000 HD
ENDBRANCH   7   8
BRANCH   7  11
ATOM     11  C   UNL     1      44.901   7.071  11.382  0.00  0.00    +0.000 C 
BRANCH  11  15
ATOM     12  N   UNL     1      43.987   3.494  11.617  0.00  0.00    +0.000 NA
ATOM     13  C   UNL     1      45.331   4.034  11.884  0.00  0.00    +0.000 C 
ATOM     14  C   UNL     1      45.322   5.130  12.954  0.00  0.00    +0.000 C 
ATOM     15  C   UNL     1      44.367   6.280  12.599  0.00  0.00    +0.000 C 
ATOM     16  C   UNL     1      42.982   5.661  12.384  0.00  0.00    +0.000 C 
ATOM     17  C   UNL     1      43.000   4.550  11.329  0.00  0.00    +0.000 C 
BRANCH  12  18
ATOM     18  C   UNL     1      44.007   2.518  10.504  0.00  0.00    +0.000 C 
BRANCH  18  19
ATOM     19  C   UNL     1      45.218   2.675   9.573  0.00  0.00    +0.000 C 
BRANCH  19  20
ATOM     20  C   UNL     1      44.853   3.447   8.305  0.00  0.00    +0.000 C 
BRANCH  20  21
ATOM     21  N   UNL     1      45.408   4.795   8.365  0.00  0.00    +0.000 NA
ATOM     22  H   UNL     1      46.288   4.783   8.879  0.00  0.00    +0.000 HD
ATOM     23  H   UNL     1      44.778   5.402   8.890  0.00  0.00    +0.000 HD
ENDBRANCH  20  21
ENDBRANCH  19  20
ENDBRANCH  18  19
ENDBRANCH  12  18
ENDBRANCH  11  15
ENDBRANCH   7  11
ENDBRANCH   1   7
BRANCH   4  24
ATOM     24  C   UNL     1      50.557   7.957  14.251  0.00  0.00    +0.000 C 
BRANCH  24  25
ATOM     25  N   UNL     1      50.448   7.007  15.337  0.00  0.00    +0.000 N 
ATOM     26  C   UNL     1      50.147   7.382  16.619  0.00  0.00    +0.000 C 
ATOM     27  O   UNL     1      49.931   8.555  16.919  0.00  0.00    +0.000 OA
ATOM     28  H   UNL     1      50.836   6.084  15.161  0.00  0.00    +0.000 HD
BRANCH  26  29
ATOM     29  C   UNL     1      50.031   6.304  17.611  0.00  0.00    +0.000 A 
ATOM     30  C   UNL     1      50.798   6.352  18.767  0.00  0.00    +0.000 A 
ATOM     31  S   UNL     1      50.524   5.046  19.828  0.00  0.00    +0.000 S 
ATOM     32  C   UNL     1      49.403   4.342  18.760  0.00  0.00    +0.000 A 
ATOM     33  N   UNL     1      48.801   3.160  19.059  0.00  0.00    +0.000 NA
ATOM     34  C   UNL     1      47.995   2.726  18.148  0.00  0.00    +0.000 A 
ATOM     35  N   UNL     1      47.730   3.373  16.970  0.00  0.00    +0.000 N 
ATOM     36  C   UNL     1      48.274   4.594  16.648  0.00  0.00    +0.000 A 
ATOM     37  O   UNL     1      47.946   5.192  15.628  0.00  0.00    +0.000 OA
ATOM     38  C   UNL     1      49.217   5.109  17.623  0.00  0.00    +0.000 A 
ATOM     39  H   UNL     1      47.069   2.992  16.308  0.00  0.00    +0.000 HD
ENDBRANCH  26  29
ENDBRANCH  24  25
ENDBRANCH   4  24
TORSDOF 11
ENDMDL
MODEL 9
REMARK VINA RESULT:    -6.653      2.573      4.291
REMARK INTER + INTRA:         -11.775
REMARK INTER:                 -10.485
REMARK INTRA:                  -1.290
REMARK UNBOUND:                -1.232
REMARK  Name = 
REMARK  11 active torsions:
REMARK  status: ('A' for Active; 'I' for Inactive)
REMARK    1  A    between atoms: N_1  and  C_2
REMARK    2  A    between atoms: C_2  and  C_3
REMARK    3  A    between atoms: C_3  and  C_4
REMARK    4  A    between atoms: C_4  and  N_5
REMARK    5  A    between atoms: C_8  and  C_9
REMARK    6  A    between atoms: C_9  and  C_10
REMARK    7  A    between atoms: C_10  and  N_11
REMARK    8  A    between atoms: C_10  and  C_12
REMARK    9  A    between atoms: C_15  and  C_16
REMARK   10  A    between atoms: C_16  and  N_17
REMARK   11  A    between atoms: C_18  and  C_20
REMARK                            x       y       z     vdW  Elec       q    Type
REMARK                         _______ _______ _______ _____ _____    ______ ____
ROOT
ATOM      1  C   UNL     1      46.866   7.631  12.122  0.00  0.00    +0.000 A 
ATOM      2  C   UNL     1      47.752   6.581  12.337  0.00  0.00    +0.000 A 
ATOM      3  C   UNL     1      49.096   6.872  12.525  0.00  0.00    +0.000 A 
ATOM      4  C   UNL     1      49.510   8.193  12.469  0.00  0.00    +0.000 A 
ATOM      5  N   UNL     1      48.630   9.193  12.240  0.00  0.00    +0.000 NA
ATOM      6  N   UNL     1      47.302   8.909  12.061  0.00  0.00    +0.000 NA
ENDROOT
BRANCH   1   7
ATOM      7  C   UNL     1      45.366   7.374  12.010  0.00  0.00    +0.000 C 
BRANCH   7   8
ATOM      8  N   UNL     1      44.586   8.540  12.435  0.00  0.00    +0.000 NA
ATOM      9  H   UNL     1      44.159   8.960  11.607  0.00  0.00    +0.000 HD
ATOM     10  H   UNL     1      45.203   9.247  12.830  0.00  0.00    +0.000 HD
ENDBRANCH   7   8
BRANCH   7  11
ATOM     11  C   UNL     1      45.013   6.101  12.813  0.00  0.00    +0.000 C 
BRANCH  11  15
ATOM     12  N   UNL     1      43.748   3.412  10.611  0.00  0.00    +0.000 NA
ATOM     13  C   UNL     1      44.249   3.206  11.980  0.00  0.00    +0.000 C 
ATOM     14  C   UNL     1      43.514   4.068  13.011  0.00  0.00    +0.000 C 
ATOM     15  C   UNL     1      43.571   5.563  12.662  0.00  0.00    +0.000 C 
ATOM     16  C   UNL     1      42.990   5.716  11.252  0.00  0.00    +0.000 C 
ATOM     17  C   UNL     1      43.714   4.834  10.229  0.00  0.00    +0.000 C 
BRANCH  12  18
ATOM     18  C   UNL     1      44.546   2.652   9.623  0.00  0.00    +0.000 C 
BRANCH  18  19
ATOM     19  C   UNL     1      44.792   3.418   8.315  0.00  0.00    +0.000 C 
BRANCH  19  20
ATOM     20  C   UNL     1      46.128   3.031   7.682  0.00  0.00    +0.000 C 
BRANCH  20  21
ATOM     21  N   UNL     1      46.702   4.178   6.986  0.00  0.00    +0.000 NA
ATOM     22  H   UNL     1      47.600   3.920   6.581  0.00  0.00    +0.000 HD
ATOM     23  H   UNL     1      46.892   4.924   7.655  0.00  0.00    +0.000 HD
ENDBRANCH  20  21
ENDBRANCH  19  20
ENDBRANCH  18  19
ENDBRANCH  12  18
ENDBRANCH  11  15
ENDBRANCH   7  11
ENDBRANCH   1   7
BRANCH   4  24
ATOM     24  C   UNL     1      50.945   8.576  12.711  0.00  0.00    +0.000 C 
BRANCH  24  25
ATOM     25  N   UNL     1      51.553   7.779  13.755  0.00  0.00    +0.000 N 
ATOM     26  C   UNL     1      51.478   8.114  15.080  0.00  0.00    +0.000 C 
ATOM     27  O   UNL     1      50.867   9.111  15.464  0.00  0.00    +0.000 OA
ATOM     28  H   UNL     1      52.237   7.093  13.448  0.00  0.00    +0.000 HD
BRANCH  26  29
ATOM     29  C   UNL     1      52.109   7.190  16.031  0.00  0.00    +0.000 A 
ATOM     30  C   UNL     1      53.454   7.342  16.345  0.00  0.00    +0.000 A 
ATOM     31  S   UNL     1      54.026   6.212  17.485  0.00  0.00    +0.000 S 
ATOM     32  C   UNL     1      52.509   5.446  17.568  0.00  0.00    +0.000 A 
ATOM     33  N   UNL     1      52.320   4.357  18.360  0.00  0.00    +0.000 NA
ATOM     34  C   UNL     1      51.129   3.858  18.306  0.00  0.00    +0.000 A 
ATOM     35  N   UNL     1      50.110   4.358  17.538  0.00  0.00    +0.000 N 
ATOM     36  C   UNL     1      50.240   5.486  16.764  0.00  0.00    +0.000 A 
ATOM     37  O   UNL     1      49.283   5.961  16.160  0.00  0.00    +0.000 OA
ATOM     38  C   UNL     1      51.571   6.064  16.761  0.00  0.00    +0.000 A 
ATOM     39  H   UNL     1      49.192   3.935  17.559  0.00  0.00    +0.000 HD
ENDBRANCH  26  29
ENDBRANCH  24  25
ENDBRANCH   4  24
TORSDOF 11
ENDMDL
