MODEL 1
REMARK VINA RESULT:    -7.935      0.000      0.000
REMARK INTER + INTRA:         -12.576
REMARK INTER:                 -11.414
REMARK INTRA:                  -1.161
REMARK UNBOUND:                -1.161
REMARK  Name = 
REMARK  8 active torsions:
REMARK  status: ('A' for Active; 'I' for Inactive)
REMARK    1  A    between atoms: N_1  and  C_2
REMARK    2  A    between atoms: C_2  and  C_3
REMARK    3  A    between atoms: C_3  and  N_4
REMARK    4  A    between atoms: C_3  and  C_12
REMARK    5  A    between atoms: C_5  and  C_7
REMARK    6  A    between atoms: C_15  and  C_16
REMARK    7  A    between atoms: C_16  and  N_17
REMARK    8  A    between atoms: C_18  and  C_20
REMARK                            x       y       z     vdW  Elec       q    Type
REMARK                         _______ _______ _______ _____ _____    ______ ____
ROOT
ATOM      1  C   UNL     1      45.400   5.276  11.966  0.00  0.00    +0.000 A 
ATOM      2  C   UNL     1      45.733   4.819  13.241  0.00  0.00    +0.000 A 
ATOM      3  C   UNL     1      46.823   5.380  13.907  0.00  0.00    +0.000 A 
ATOM      4  C   UNL     1      47.555   6.402  13.304  0.00  0.00    +0.000 A 
ATOM      5  C   UNL     1      47.160   6.794  12.032  0.00  0.00    +0.000 A 
ATOM      6  N   UNL     1      46.107   6.265  11.363  0.00  0.00    +0.000 NA
ENDROOT
BRANCH   1   7
ATOM      7  C   UNL     1      44.246   4.645  11.181  0.00  0.00    +0.000 C 
BRANCH   7   8
ATOM      8  N   UNL     1      44.680   4.276   9.830  0.00  0.00    +0.000 N 
ATOM      9  C   UNL     1      44.559   3.000   9.331  0.00  0.00    +0.000 C 
ATOM     10  O   UNL     1      44.014   2.081   9.938  0.00  0.00    +0.000 OA
ATOM     11  H   UNL     1      45.310   4.886   9.315  0.00  0.00    +0.000 HD
BRANCH   9  12
ATOM     12  C   UNL     1      45.203   2.774   7.959  0.00  0.00    +0.000 C 
ATOM     13  C   UNL     1      46.275   1.705   8.007  0.00  0.00    +0.000 C 
ATOM     14  C   UNL     1      47.049   1.957   6.724  0.00  0.00    +0.000 C 
ATOM     15  C   UNL     1      46.892   3.450   6.466  0.00  0.00    +0.000 C 
ATOM     16  N   UNL     1      45.962   3.958   7.485  0.00  0.00    +0.000 NA
ATOM     17  H   UNL     1      45.316   4.627   7.064  0.00  0.00    +0.000 HD
ENDBRANCH   9  12
ENDBRANCH   7   8
BRANCH   7  18
ATOM     18  C   UNL     1      43.003   5.594  11.148  0.00  0.00    +0.000 C 
BRANCH  18  19
ATOM     19  N   UNL     1      43.288   7.034  11.092  0.00  0.00    +0.000 NA
ATOM     20  H   UNL     1      42.859   7.492  11.893  0.00  0.00    +0.000 HD
ATOM     21  H   UNL     1      42.871   7.441  10.253  0.00  0.00    +0.000 HD
ENDBRANCH  18  19
ENDBRANCH   7  18
ENDBRANCH   1   7
BRANCH   4  22
ATOM     22  C   UNL     1      48.740   7.030  13.979  0.00  0.00    +0.000 C 
BRANCH  22  23
ATOM     23  N   UNL     1      48.529   7.171  15.398  0.00  0.00    +0.000 N 
ATOM     24  C   UNL     1      49.466   6.739  16.304  0.00  0.00    +0.000 C 
ATOM     25  O   UNL     1      50.552   6.289  15.949  0.00  0.00    +0.000 OA
ATOM     26  H   UNL     1      47.575   7.319  15.711  0.00  0.00    +0.000 HD
BRANCH  24  27
ATOM     27  C   UNL     1      49.127   6.894  17.726  0.00  0.00    +0.000 A 
ATOM     28  C   UNL     1      48.984   8.166  18.266  0.00  0.00    +0.000 A 
ATOM     29  S   UNL     1      48.543   8.164  19.913  0.00  0.00    +0.000 S 
ATOM     30  C   UNL     1      48.581   6.463  19.978  0.00  0.00    +0.000 A 
ATOM     31  N   UNL     1      48.316   5.805  21.139  0.00  0.00    +0.000 NA
ATOM     32  C   UNL     1      48.416   4.520  21.055  0.00  0.00    +0.000 A 
ATOM     33  N   UNL     1      48.748   3.834  19.915  0.00  0.00    +0.000 N 
ATOM     34  C   UNL     1      48.987   4.457  18.714  0.00  0.00    +0.000 A 
ATOM     35  O   UNL     1      49.222   3.815  17.696  0.00  0.00    +0.000 OA
ATOM     36  C   UNL     1      48.904   5.905  18.755  0.00  0.00    +0.000 A 
ATOM     37  H   UNL     1      48.801   2.825  19.914  0.00  0.00    +0.000 HD
ENDBRANCH  24  27
ENDBRANCH  22  23
ENDBRANCH   4  22
TORSDOF 8
ENDMDL
MODEL 2
REMARK VINA RESULT:    -7.782      1.452      2.119
REMARK INTER + INTRA:         -12.355
REMARK INTER:                 -11.073
REMARK INTRA:                  -1.282
REMARK UNBOUND:                -1.161
REMARK  Name = 
REMARK  8 active torsions:
REMARK  status: ('A' for Active; 'I' for Inactive)
REMARK    1  A    between atoms: N_1  and  C_2
REMARK    2  A    between atoms: C_2  and  C_3
REMARK    3  A    between atoms: C_3  and  N_4
REMARK    4  A    between atoms: C_3  and  C_12
REMARK    5  A    between atoms: C_5  and  C_7
REMARK    6  A    between atoms: C_15  and  C_16
REMARK    7  A    between atoms: C_16  and  N_17
REMARK    8  A    between atoms: C_18  and  C_20
REMARK                            x       y       z     vdW  Elec       q    Type
REMARK                         _______ _______ _______ _____ _____    ______ ____
ROOT
ATOM      1  C   UNL     1      45.342   5.181  12.004  0.00  0.00    +0.000 A 
ATOM      2  C   UNL     1      45.587   4.649  13.270  0.00  0.00    +0.000 A 
ATOM      3  C   UNL     1      46.638   5.155  14.035  0.00  0.00    +0.000 A 
ATOM      4  C   UNL     1      47.419   6.199  13.539  0.00  0.00    +0.000 A 
ATOM      5  C   UNL     1      47.111   6.667  12.268  0.00  0.00    +0.000 A 
ATOM      6  N   UNL     1      46.097   6.192  11.504  0.00  0.00    +0.000 NA
ENDROOT
BRANCH   1   7
ATOM      7  C   UNL     1      44.234   4.612  11.113  0.00  0.00    +0.000 C 
BRANCH   7   8
ATOM      8  N   UNL     1      44.760   4.272   9.787  0.00  0.00    +0.000 N 
ATOM      9  C   UNL     1      44.595   3.032   9.215  0.00  0.00    +0.000 C 
ATOM     10  O   UNL     1      43.933   2.131   9.725  0.00  0.00    +0.000 OA
ATOM     11  H   UNL     1      45.475   4.856   9.360  0.00  0.00    +0.000 HD
BRANCH   9  12
ATOM     12  C   UNL     1      45.341   2.821   7.894  0.00  0.00    +0.000 C 
ATOM     13  C   UNL     1      46.409   1.753   8.013  0.00  0.00    +0.000 C 
ATOM     14  C   UNL     1      47.277   2.018   6.796  0.00  0.00    +0.000 C 
ATOM     15  C   UNL     1      47.136   3.513   6.539  0.00  0.00    +0.000 C 
ATOM     16  N   UNL     1      46.131   4.010   7.489  0.00  0.00    +0.000 NA
ATOM     17  H   UNL     1      45.517   4.681   7.027  0.00  0.00    +0.000 HD
ENDBRANCH   9  12
ENDBRANCH   7   8
BRANCH   7  18
ATOM     18  C   UNL     1      43.025   5.601  11.017  0.00  0.00    +0.000 C 
BRANCH  18  19
ATOM     19  N   UNL     1      43.324   7.017  11.276  0.00  0.00    +0.000 NA
ATOM     20  H   UNL     1      42.734   7.349  12.036  0.00  0.00    +0.000 HD
ATOM     21  H   UNL     1      43.100   7.577  10.453  0.00  0.00    +0.000 HD
ENDBRANCH  18  19
ENDBRANCH   7  18
ENDBRANCH   1   7
BRANCH   4  22
ATOM     22  C   UNL     1      48.564   6.771  14.323  0.00  0.00    +0.000 C 
BRANCH  22  23
ATOM     23  N   UNL     1      48.266   6.829  15.732  0.00  0.00    +0.000 N 
ATOM     24  C   UNL     1      49.101   6.259  16.661  0.00  0.00    +0.000 C 
ATOM     25  O   UNL     1      50.172   5.747  16.343  0.00  0.00    +0.000 OA
ATOM     26  H   UNL     1      47.307   7.033  15.993  0.00  0.00    +0.000 HD
BRANCH  24  27
ATOM     27  C   UNL     1      48.677   6.343  18.066  0.00  0.00    +0.000 A 
ATOM     28  C   UNL     1      48.728   5.211  18.870  0.00  0.00    +0.000 A 
ATOM     29  S   UNL     1      48.247   5.494  20.481  0.00  0.00    +0.000 S 
ATOM     30  C   UNL     1      47.901   7.128  20.148  0.00  0.00    +0.000 A 
ATOM     31  N   UNL     1      47.414   7.948  21.119  0.00  0.00    +0.000 NA
ATOM     32  C   UNL     1      47.161   9.150  20.720  0.00  0.00    +0.000 A 
ATOM     33  N   UNL     1      47.358   9.608  19.443  0.00  0.00    +0.000 N 
ATOM     34  C   UNL     1      47.882   8.825  18.443  0.00  0.00    +0.000 A 
ATOM     35  O   UNL     1      48.104   9.278  17.326  0.00  0.00    +0.000 OA
ATOM     36  C   UNL     1      48.169   7.457  18.832  0.00  0.00    +0.000 A 
ATOM     37  H   UNL     1      47.148  10.565  19.197  0.00  0.00    +0.000 HD
ENDBRANCH  24  27
ENDBRANCH  22  23
ENDBRANCH   4  22
TORSDOF 8
ENDMDL
MODEL 3
REMARK VINA RESULT:    -7.280      2.284      2.638
REMARK INTER + INTRA:         -11.633
REMARK INTER:                 -10.551
REMARK INTRA:                  -1.083
REMARK UNBOUND:                -1.161
REMARK  Name = 
REMARK  8 active torsions:
REMARK  status: ('A' for Active; 'I' for Inactive)
REMARK    1  A    between atoms: N_1  and  C_2
REMARK    2  A    between atoms: C_2  and  C_3
REMARK    3  A    between atoms: C_3  and  N_4
REMARK    4  A    between atoms: C_3  and  C_12
REMARK    5  A    between atoms: C_5  and  C_7
REMARK    6  A    between atoms: C_15  and  C_16
REMARK    7  A    between atoms: C_16  and  N_17
REMARK    8  A    between atoms: C_18  and  C_20
REMARK                            x       y       z     vdW  Elec       q    Type
REMARK                         _______ _______ _______ _____ _____    ______ ____
ROOT
ATOM      1  C   UNL     1      45.712   5.757  12.393  0.00  0.00    +0.000 A 
ATOM      2  C   UNL     1      45.594   7.141  12.271  0.00  0.00    +0.000 A 
ATOM      3  C   UNL     1      46.563   7.965  12.845  0.00  0.00    +0.000 A 
ATOM      4  C   UNL     1      47.648   7.399  13.514  0.00  0.00    +0.000 A 
ATOM      5  C   UNL     1      47.686   6.013  13.594  0.00  0.00    +0.000 A 
ATOM      6  N   UNL     1      46.757   5.191  13.048  0.00  0.00    +0.000 NA
ENDROOT
BRANCH   1   7
ATOM      7  C   UNL     1      44.638   4.823  11.826  0.00  0.00    +0.000 C 
BRANCH   7   8
ATOM      8  N   UNL     1      44.930   4.488  10.429  0.00  0.00    +0.000 N 
ATOM      9  C   UNL     1      44.506   3.320   9.839  0.00  0.00    +0.000 C 
ATOM     10  O   UNL     1      43.788   2.496  10.401  0.00  0.00    +0.000 OA
ATOM     11  H   UNL     1      45.663   4.986   9.930  0.00  0.00    +0.000 HD
BRANCH   9  12
ATOM     12  C   UNL     1      45.033   3.079   8.421  0.00  0.00    +0.000 C 
ATOM     13  C   UNL     1      46.024   1.934   8.373  0.00  0.00    +0.000 C 
ATOM     14  C   UNL     1      46.722   2.157   7.043  0.00  0.00    +0.000 C 
ATOM     15  C   UNL     1      46.660   3.663   6.823  0.00  0.00    +0.000 C 
ATOM     16  N   UNL     1      45.844   4.215   7.914  0.00  0.00    +0.000 NA
ATOM     17  H   UNL     1      45.222   4.938   7.552  0.00  0.00    +0.000 HD
ENDBRANCH   9  12
ENDBRANCH   7   8
BRANCH   7  18
ATOM     18  C   UNL     1      43.211   5.446  11.983  0.00  0.00    +0.000 C 
BRANCH  18  19
ATOM     19  N   UNL     1      42.620   5.381  13.327  0.00  0.00    +0.000 NA
ATOM     20  H   UNL     1      42.673   6.301  13.761  0.00  0.00    +0.000 HD
ATOM     21  H   UNL     1      43.154   4.739  13.914  0.00  0.00    +0.000 HD
ENDBRANCH  18  19
ENDBRANCH   7  18
ENDBRANCH   1   7
BRANCH   4  22
ATOM     22  C   UNL     1      48.711   8.245  14.154  0.00  0.00    +0.000 C 
BRANCH  22  23
ATOM     23  N   UNL     1      49.728   7.436  14.779  0.00  0.00    +0.000 N 
ATOM     24  C   UNL     1      50.317   7.819  15.957  0.00  0.00    +0.000 C 
ATOM     25  O   UNL     1      49.954   8.819  16.571  0.00  0.00    +0.000 OA
ATOM     26  H   UNL     1      50.196   6.750  14.195  0.00  0.00    +0.000 HD
BRANCH  24  27
ATOM     27  C   UNL     1      51.372   6.939  16.481  0.00  0.00    +0.000 A 
ATOM     28  C   UNL     1      52.682   7.394  16.545  0.00  0.00    +0.000 A 
ATOM     29  S   UNL     1      53.767   6.266  17.221  0.00  0.00    +0.000 S 
ATOM     30  C   UNL     1      52.534   5.107  17.404  0.00  0.00    +0.000 A 
ATOM     31  N   UNL     1      52.805   3.876  17.917  0.00  0.00    +0.000 NA
ATOM     32  C   UNL     1      51.786   3.084  17.965  0.00  0.00    +0.000 A 
ATOM     33  N   UNL     1      50.520   3.414  17.555  0.00  0.00    +0.000 N 
ATOM     34  C   UNL     1      50.194   4.656  17.067  0.00  0.00    +0.000 A 
ATOM     35  O   UNL     1      49.042   4.943  16.764  0.00  0.00    +0.000 OA
ATOM     36  C   UNL     1      51.308   5.582  16.975  0.00  0.00    +0.000 A 
ATOM     37  H   UNL     1      49.762   2.750  17.628  0.00  0.00    +0.000 HD
ENDBRANCH  24  27
ENDBRANCH  22  23
ENDBRANCH   4  22
TORSDOF 8
ENDMDL
MODEL 4
REMARK VINA RESULT:    -7.076      2.353      3.074
REMARK INTER + INTRA:         -11.340
REMARK INTER:                 -10.029
REMARK INTRA:                  -1.310
REMARK UNBOUND:                -1.161
REMARK  Name = 
REMARK  8 active torsions:
REMARK  status: ('A' for Active; 'I' for Inactive)
REMARK    1  A    between atoms: N_1  and  C_2
REMARK    2  A    between atoms: C_2  and  C_3
REMARK    3  A    between atoms: C_3  and  N_4
REMARK    4  A    between atoms: C_3  and  C_12
REMARK    5  A    between atoms: C_5  and  C_7
REMARK    6  A    between atoms: C_15  and  C_16
REMARK    7  A    between atoms: C_16  and  N_17
REMARK    8  A    between atoms: C_18  and  C_20
REMARK                            x       y       z     vdW  Elec       q    Type
REMARK                         _______ _______ _______ _____ _____    ______ ____
ROOT
ATOM      1  C   UNL     1      45.125   5.663  12.386  0.00  0.00    +0.000 A 
ATOM      2  C   UNL     1      46.125   4.927  13.023  0.00  0.00    +0.000 A 
ATOM      3  C   UNL     1      47.209   5.596  13.594  0.00  0.00    +0.000 A 
ATOM      4  C   UNL     1      47.272   6.988  13.542  0.00  0.00    +0.000 A 
ATOM      5  C   UNL     1      46.238   7.642  12.885  0.00  0.00    +0.000 A 
ATOM      6  N   UNL     1      45.176   7.017  12.321  0.00  0.00    +0.000 NA
ENDROOT
BRANCH   1   7
ATOM      7  C   UNL     1      43.950   4.960  11.698  0.00  0.00    +0.000 C 
BRANCH   7   8
ATOM      8  N   UNL     1      44.287   4.629  10.310  0.00  0.00    +0.000 N 
ATOM      9  C   UNL     1      44.579   3.349   9.900  0.00  0.00    +0.000 C 
ATOM     10  O   UNL     1      44.511   2.367  10.635  0.00  0.00    +0.000 OA
ATOM     11  H   UNL     1      44.561   5.366   9.665  0.00  0.00    +0.000 HD
BRANCH   9  12
ATOM     12  C   UNL     1      45.051   3.224   8.448  0.00  0.00    +0.000 C 
ATOM     13  C   UNL     1      45.977   2.041   8.254  0.00  0.00    +0.000 C 
ATOM     14  C   UNL     1      46.647   2.360   6.929  0.00  0.00    +0.000 C 
ATOM     15  C   UNL     1      46.658   3.882   6.859  0.00  0.00    +0.000 C 
ATOM     16  N   UNL     1      45.906   4.363   8.026  0.00  0.00    +0.000 NA
ATOM     17  H   UNL     1      45.312   5.148   7.758  0.00  0.00    +0.000 HD
ENDBRANCH   9  12
ENDBRANCH   7   8
BRANCH   7  18
ATOM     18  C   UNL     1      42.649   5.825  11.785  0.00  0.00    +0.000 C 
BRANCH  18  19
ATOM     19  N   UNL     1      42.630   7.051  10.977  0.00  0.00    +0.000 NA
ATOM     20  H   UNL     1      43.376   7.008  10.286  0.00  0.00    +0.000 HD
ATOM     21  H   UNL     1      42.812   7.863  11.568  0.00  0.00    +0.000 HD
ENDBRANCH  18  19
ENDBRANCH   7  18
ENDBRANCH   1   7
BRANCH   4  22
ATOM     22  C   UNL     1      48.422   7.749  14.136  0.00  0.00    +0.000 C 
BRANCH  22  23
ATOM     23  N   UNL     1      49.301   6.885  14.883  0.00  0.00    +0.000 N 
ATOM     24  C   UNL     1      49.380   6.960  16.251  0.00  0.00    +0.000 C 
ATOM     25  O   UNL     1      48.655   7.707  16.903  0.00  0.00    +0.000 OA
ATOM     26  H   UNL     1      50.056   6.438  14.371  0.00  0.00    +0.000 HD
BRANCH  24  27
ATOM     27  C   UNL     1      50.341   6.060  16.905  0.00  0.00    +0.000 A 
ATOM     28  C   UNL     1      49.888   5.109  17.810  0.00  0.00    +0.000 A 
ATOM     29  S   UNL     1      51.126   4.118  18.438  0.00  0.00    +0.000 S 
ATOM     30  C   UNL     1      52.320   4.961  17.564  0.00  0.00    +0.000 A 
ATOM     31  N   UNL     1      53.633   4.623  17.675  0.00  0.00    +0.000 NA
ATOM     32  C   UNL     1      54.433   5.368  16.987  0.00  0.00    +0.000 A 
ATOM     33  N   UNL     1      54.038   6.413  16.192  0.00  0.00    +0.000 N 
ATOM     34  C   UNL     1      52.721   6.765  16.023  0.00  0.00    +0.000 A 
ATOM     35  O   UNL     1      52.391   7.665  15.259  0.00  0.00    +0.000 OA
ATOM     36  C   UNL     1      51.778   5.970  16.788  0.00  0.00    +0.000 A 
ATOM     37  H   UNL     1      54.715   6.953  15.671  0.00  0.00    +0.000 HD
ENDBRANCH  24  27
ENDBRANCH  22  23
ENDBRANCH   4  22
TORSDOF 8
ENDMDL
MODEL 5
REMARK VINA RESULT:    -6.977      1.625      2.054
REMARK INTER + INTRA:         -11.198
REMARK INTER:                 -10.242
REMARK INTRA:                  -0.955
REMARK UNBOUND:                -1.161
REMARK  Name = 
REMARK  8 active torsions:
REMARK  status: ('A' for Active; 'I' for Inactive)
REMARK    1  A    between atoms: N_1  and  C_2
REMARK    2  A    between atoms: C_2  and  C_3
REMARK    3  A    between atoms: C_3  and  N_4
REMARK    4  A    between atoms: C_3  and  C_12
REMARK    5  A    between atoms: C_5  and  C_7
REMARK    6  A    between atoms: C_15  and  C_16
REMARK    7  A    between atoms: C_16  and  N_17
REMARK    8  A    between atoms: C_18  and  C_20
REMARK                            x       y       z     vdW  Elec       q    Type
REMARK                         _______ _______ _______ _____ _____    ______ ____
ROOT
ATOM      1  C   UNL     1      46.121   7.368  12.254  0.00  0.00    +0.000 A 
ATOM      2  C   UNL     1      46.344   8.466  13.086  0.00  0.00    +0.000 A 
ATOM      3  C   UNL     1      47.600   8.639  13.669  0.00  0.00    +0.000 A 
ATOM      4  C   UNL     1      48.623   7.731  13.400  0.00  0.00    +0.000 A 
ATOM      5  C   UNL     1      48.314   6.664  12.565  0.00  0.00    +0.000 A 
ATOM      6  N   UNL     1      47.104   6.471  11.988  0.00  0.00    +0.000 NA
ENDROOT
BRANCH   1   7
ATOM      7  C   UNL     1      44.740   7.114  11.642  0.00  0.00    +0.000 C 
BRANCH   7   8
ATOM      8  N   UNL     1      44.825   6.115  10.572  0.00  0.00    +0.000 N 
ATOM      9  C   UNL     1      43.884   5.126  10.400  0.00  0.00    +0.000 C 
ATOM     10  O   UNL     1      42.861   5.037  11.073  0.00  0.00    +0.000 OA
ATOM     11  H   UNL     1      45.704   5.969  10.083  0.00  0.00    +0.000 HD
BRANCH   9  12
ATOM     12  C   UNL     1      44.221   4.090   9.323  0.00  0.00    +0.000 C 
ATOM     13  C   UNL     1      44.835   2.838   9.916  0.00  0.00    +0.000 C 
ATOM     14  C   UNL     1      45.474   2.180   8.706  0.00  0.00    +0.000 C 
ATOM     15  C   UNL     1      45.831   3.336   7.781  0.00  0.00    +0.000 C 
ATOM     16  N   UNL     1      45.286   4.553   8.399  0.00  0.00    +0.000 NA
ATOM     17  H   UNL     1      44.874   5.152   7.683  0.00  0.00    +0.000 HD
ENDBRANCH   9  12
ENDBRANCH   7   8
BRANCH   7  18
ATOM     18  C   UNL     1      44.094   8.447  11.137  0.00  0.00    +0.000 C 
BRANCH  18  19
ATOM     19  N   UNL     1      42.632   8.444  10.992  0.00  0.00    +0.000 NA
ATOM     20  H   UNL     1      42.258   7.581  11.382  0.00  0.00    +0.000 HD
ATOM     21  H   UNL     1      42.378   8.464  10.003  0.00  0.00    +0.000 HD
ENDBRANCH  18  19
ENDBRANCH   7  18
ENDBRANCH   1   7
BRANCH   4  22
ATOM     22  C   UNL     1      49.987   7.872  14.010  0.00  0.00    +0.000 C 
BRANCH  22  23
ATOM     23  N   UNL     1      49.912   8.068  15.437  0.00  0.00    +0.000 N 
ATOM     24  C   UNL     1      49.768   7.007  16.295  0.00  0.00    +0.000 C 
ATOM     25  O   UNL     1      49.777   5.845  15.897  0.00  0.00    +0.000 OA
ATOM     26  H   UNL     1      49.674   9.000  15.763  0.00  0.00    +0.000 HD
BRANCH  24  27
ATOM     27  C   UNL     1      49.660   7.327  17.726  0.00  0.00    +0.000 A 
ATOM     28  C   UNL     1      50.507   8.275  18.286  0.00  0.00    +0.000 A 
ATOM     29  S   UNL     1      50.215   8.560  19.942  0.00  0.00    +0.000 S 
ATOM     30  C   UNL     1      48.981   7.387  19.982  0.00  0.00    +0.000 A 
ATOM     31  N   UNL     1      48.320   7.112  21.139  0.00  0.00    +0.000 NA
ATOM     32  C   UNL     1      47.435   6.176  21.035  0.00  0.00    +0.000 A 
ATOM     33  N   UNL     1      47.148   5.497  19.879  0.00  0.00    +0.000 N 
ATOM     34  C   UNL     1      47.765   5.769  18.682  0.00  0.00    +0.000 A 
ATOM     35  O   UNL     1      47.445   5.188  17.651  0.00  0.00    +0.000 OA
ATOM     36  C   UNL     1      48.781   6.802  18.745  0.00  0.00    +0.000 A 
ATOM     37  H   UNL     1      46.436   4.780  19.863  0.00  0.00    +0.000 HD
ENDBRANCH  24  27
ENDBRANCH  22  23
ENDBRANCH   4  22
TORSDOF 8
ENDMDL
MODEL 6
REMARK VINA RESULT:    -6.974      1.766      2.291
REMARK INTER + INTRA:         -11.192
REMARK INTER:                 -10.178
REMARK INTRA:                  -1.015
REMARK UNBOUND:                -1.161
REMARK  Name = 
REMARK  8 active torsions:
REMARK  status: ('A' for Active; 'I' for Inactive)
REMARK    1  A    between atoms: N_1  and  C_2
REMARK    2  A    between atoms: C_2  and  C_3
REMARK    3  A    between atoms: C_3  and  N_4
REMARK    4  A    between atoms: C_3  and  C_12
REMARK    5  A    between atoms: C_5  and  C_7
REMARK    6  A    between atoms: C_15  and  C_16
REMARK    7  A    between atoms: C_16  and  N_17
REMARK    8  A    between atoms: C_18  and  C_20
REMARK                            x       y       z     vdW  Elec       q    Type
REMARK                         _______ _______ _______ _____ _____    ______ ____
ROOT
ATOM      1  C   UNL     1      45.635   5.128  12.329  0.00  0.00    +0.000 A 
ATOM      2  C   UNL     1      46.435   5.943  13.131  0.00  0.00    +0.000 A 
ATOM      3  C   UNL     1      47.182   5.369  14.160  0.00  0.00    +0.000 A 
ATOM      4  C   UNL     1      47.141   3.990  14.364  0.00  0.00    +0.000 A 
ATOM      5  C   UNL     1      46.316   3.254  13.524  0.00  0.00    +0.000 A 
ATOM      6  N   UNL     1      45.579   3.786  12.519  0.00  0.00    +0.000 NA
ENDROOT
BRANCH   1   7
ATOM      7  C   UNL     1      44.757   5.729  11.227  0.00  0.00    +0.000 C 
BRANCH   7   8
ATOM      8  N   UNL     1      45.126   5.185   9.917  0.00  0.00    +0.000 N 
ATOM      9  C   UNL     1      44.529   4.069   9.378  0.00  0.00    +0.000 C 
ATOM     10  O   UNL     1      43.590   3.479   9.906  0.00  0.00    +0.000 OA
ATOM     11  H   UNL     1      46.002   5.462   9.481  0.00  0.00    +0.000 HD
BRANCH   9  12
ATOM     12  C   UNL     1      45.149   3.567   8.071  0.00  0.00    +0.000 C 
ATOM     13  C   UNL     1      45.807   2.213   8.242  0.00  0.00    +0.000 C 
ATOM     14  C   UNL     1      46.700   2.123   7.017  0.00  0.00    +0.000 C 
ATOM     15  C   UNL     1      47.059   3.568   6.695  0.00  0.00    +0.000 C 
ATOM     16  N   UNL     1      46.284   4.410   7.617  0.00  0.00    +0.000 NA
ATOM     17  H   UNL     1      45.921   5.225   7.123  0.00  0.00    +0.000 HD
ENDBRANCH   9  12
ENDBRANCH   7   8
BRANCH   7  18
ATOM     18  C   UNL     1      44.826   7.292  11.243  0.00  0.00    +0.000 C 
BRANCH  18  19
ATOM     19  N   UNL     1      43.556   8.000  11.033  0.00  0.00    +0.000 NA
ATOM     20  H   UNL     1      42.891   7.714  11.749  0.00  0.00    +0.000 HD
ATOM     21  H   UNL     1      43.156   7.742  10.130  0.00  0.00    +0.000 HD
ENDBRANCH  18  19
ENDBRANCH   7  18
ENDBRANCH   1   7
BRANCH   4  22
ATOM     22  C   UNL     1      47.922   3.329  15.462  0.00  0.00    +0.000 C 
BRANCH  22  23
ATOM     23  N   UNL     1      48.276   4.267  16.499  0.00  0.00    +0.000 N 
ATOM     24  C   UNL     1      47.617   4.278  17.703  0.00  0.00    +0.000 C 
ATOM     25  O   UNL     1      46.757   3.447  17.981  0.00  0.00    +0.000 OA
ATOM     26  H   UNL     1      48.804   5.088  16.220  0.00  0.00    +0.000 HD
BRANCH  24  27
ATOM     27  C   UNL     1      48.033   5.305  18.670  0.00  0.00    +0.000 A 
ATOM     28  C   UNL     1      47.111   6.239  19.124  0.00  0.00    +0.000 A 
ATOM     29  S   UNL     1      47.745   7.324  20.275  0.00  0.00    +0.000 S 
ATOM     30  C   UNL     1      49.291   6.619  20.169  0.00  0.00    +0.000 A 
ATOM     31  N   UNL     1      50.331   7.105  20.900  0.00  0.00    +0.000 NA
ATOM     32  C   UNL     1      51.453   6.501  20.695  0.00  0.00    +0.000 A 
ATOM     33  N   UNL     1      51.629   5.449  19.832  0.00  0.00    +0.000 N 
ATOM     34  C   UNL     1      50.600   4.903  19.104  0.00  0.00    +0.000 A 
ATOM     35  O   UNL     1      50.773   3.925  18.386  0.00  0.00    +0.000 OA
ATOM     36  C   UNL     1      49.316   5.557  19.283  0.00  0.00    +0.000 A 
ATOM     37  H   UNL     1      52.533   5.013  19.723  0.00  0.00    +0.000 HD
ENDBRANCH  24  27
ENDBRANCH  22  23
ENDBRANCH   4  22
TORSDOF 8
ENDMDL
MODEL 7
REMARK VINA RESULT:    -6.864      3.375      9.188
REMARK INTER + INTRA:         -11.035
REMARK INTER:                  -9.857
REMARK INTRA:                  -1.178
REMARK UNBOUND:                -1.161
REMARK  Name = 
REMARK  8 active torsions:
REMARK  status: ('A' for Active; 'I' for Inactive)
REMARK    1  A    between atoms: N_1  and  C_2
REMARK    2  A    between atoms: C_2  and  C_3
REMARK    3  A    between atoms: C_3  and  N_4
REMARK    4  A    between atoms: C_3  and  C_12
REMARK    5  A    between atoms: C_5  and  C_7
REMARK    6  A    between atoms: C_15  and  C_16
REMARK    7  A    between atoms: C_16  and  N_17
REMARK    8  A    between atoms: C_18  and  C_20
REMARK                            x       y       z     vdW  Elec       q    Type
REMARK                         _______ _______ _______ _____ _____    ______ ____
ROOT
ATOM      1  C   UNL     1      49.779   6.015  18.740  0.00  0.00    +0.000 A 
ATOM      2  C   UNL     1      50.052   7.383  18.683  0.00  0.00    +0.000 A 
ATOM      3  C   UNL     1      49.807   8.081  17.500  0.00  0.00    +0.000 A 
ATOM      4  C   UNL     1      49.275   7.414  16.396  0.00  0.00    +0.000 A 
ATOM      5  C   UNL     1      49.038   6.053  16.537  0.00  0.00    +0.000 A 
ATOM      6  N   UNL     1      49.268   5.351  17.673  0.00  0.00    +0.000 NA
ENDROOT
BRANCH   1   7
ATOM      7  C   UNL     1      50.089   5.205  20.003  0.00  0.00    +0.000 C 
BRANCH   7   8
ATOM      8  N   UNL     1      51.053   4.140  19.710  0.00  0.00    +0.000 N 
ATOM      9  C   UNL     1      52.410   4.355  19.666  0.00  0.00    +0.000 C 
ATOM     10  O   UNL     1      52.937   5.431  19.940  0.00  0.00    +0.000 OA
ATOM     11  H   UNL     1      50.736   3.272  19.285  0.00  0.00    +0.000 HD
BRANCH   9  12
ATOM     12  C   UNL     1      53.244   3.158  19.199  0.00  0.00    +0.000 C 
ATOM     13  C   UNL     1      54.192   3.532  18.078  0.00  0.00    +0.000 C 
ATOM     14  C   UNL     1      54.562   2.180  17.494  0.00  0.00    +0.000 C 
ATOM     15  C   UNL     1      53.347   1.300  17.758  0.00  0.00    +0.000 C 
ATOM     16  N   UNL     1      52.416   2.099  18.569  0.00  0.00    +0.000 NA
ATOM     17  H   UNL     1      52.002   1.517  19.297  0.00  0.00    +0.000 HD
ENDBRANCH   9  12
ENDBRANCH   7   8
BRANCH   7  18
ATOM     18  C   UNL     1      48.778   4.637  20.642  0.00  0.00    +0.000 C 
BRANCH  18  19
ATOM     19  N   UNL     1      48.351   3.311  20.175  0.00  0.00    +0.000 NA
ATOM     20  H   UNL     1      48.341   3.302  19.157  0.00  0.00    +0.000 HD
ATOM     21  H   UNL     1      47.399   3.119  20.489  0.00  0.00    +0.000 HD
ENDBRANCH  18  19
ENDBRANCH   7  18
ENDBRANCH   1   7
BRANCH   4  22
ATOM     22  C   UNL     1      49.003   8.122  15.101  0.00  0.00    +0.000 C 
BRANCH  22  23
ATOM     23  N   UNL     1      47.801   7.632  14.471  0.00  0.00    +0.000 N 
ATOM     24  C   UNL     1      47.857   6.809  13.375  0.00  0.00    +0.000 C 
ATOM     25  O   UNL     1      48.923   6.391  12.930  0.00  0.00    +0.000 OA
ATOM     26  H   UNL     1      46.940   8.132  14.667  0.00  0.00    +0.000 HD
BRANCH  24  27
ATOM     27  C   UNL     1      46.570   6.405  12.790  0.00  0.00    +0.000 A 
ATOM     28  C   UNL     1      45.729   7.366  12.244  0.00  0.00    +0.000 A 
ATOM     29  S   UNL     1      44.303   6.722  11.567  0.00  0.00    +0.000 S 
ATOM     30  C   UNL     1      44.733   5.140  12.027  0.00  0.00    +0.000 A 
ATOM     31  N   UNL     1      43.910   4.089  11.762  0.00  0.00    +0.000 NA
ATOM     32  C   UNL     1      44.342   2.953  12.200  0.00  0.00    +0.000 A 
ATOM     33  N   UNL     1      45.524   2.772  12.870  0.00  0.00    +0.000 N 
ATOM     34  C   UNL     1      46.401   3.798  13.125  0.00  0.00    +0.000 A 
ATOM     35  O   UNL     1      47.479   3.597  13.672  0.00  0.00    +0.000 OA
ATOM     36  C   UNL     1      45.957   5.102  12.669  0.00  0.00    +0.000 A 
ATOM     37  H   UNL     1      45.809   1.853  13.178  0.00  0.00    +0.000 HD
ENDBRANCH  24  27
ENDBRANCH  22  23
ENDBRANCH   4  22
TORSDOF 8
ENDMDL
MODEL 8
REMARK VINA RESULT:    -6.762      4.034      6.080
REMARK INTER + INTRA:         -10.887
REMARK INTER:                  -9.282
REMARK INTRA:                  -1.605
REMARK UNBOUND:                -1.161
REMARK  Name = 
REMARK  8 active torsions:
REMARK  status: ('A' for Active; 'I' for Inactive)
REMARK    1  A    between atoms: N_1  and  C_2
REMARK    2  A    between atoms: C_2  and  C_3
REMARK    3  A    between atoms: C_3  and  N_4
REMARK    4  A    between atoms: C_3  and  C_12
REMARK    5  A    between atoms: C_5  and  C_7
REMARK    6  A    between atoms: C_15  and  C_16
REMARK    7  A    between atoms: C_16  and  N_17
REMARK    8  A    between atoms: C_18  and  C_20
REMARK                            x       y       z     vdW  Elec       q    Type
REMARK                         _______ _______ _______ _____ _____    ______ ____
ROOT
ATOM      1  C   UNL     1      45.986   7.383  12.754  0.00  0.00    +0.000 A 
ATOM      2  C   UNL     1      46.688   6.186  12.899  0.00  0.00    +0.000 A 
ATOM      3  C   UNL     1      47.878   6.174  13.627  0.00  0.00    +0.000 A 
ATOM      4  C   UNL     1      48.342   7.348  14.221  0.00  0.00    +0.000 A 
ATOM      5  C   UNL     1      47.585   8.495  14.023  0.00  0.00    +0.000 A 
ATOM      6  N   UNL     1      46.428   8.535  13.319  0.00  0.00    +0.000 NA
ENDROOT
BRANCH   1   7
ATOM      7  C   UNL     1      44.707   7.447  11.914  0.00  0.00    +0.000 C 
BRANCH   7   8
ATOM      8  N   UNL     1      44.699   6.384  10.903  0.00  0.00    +0.000 N 
ATOM      9  C   UNL     1      43.680   5.467  10.795  0.00  0.00    +0.000 C 
ATOM     10  O   UNL     1      42.659   5.501  11.478  0.00  0.00    +0.000 OA
ATOM     11  H   UNL     1      45.559   6.137  10.420  0.00  0.00    +0.000 HD
BRANCH   9  12
ATOM     12  C   UNL     1      43.919   4.345   9.779  0.00  0.00    +0.000 C 
ATOM     13  C   UNL     1      44.662   3.176  10.393  0.00  0.00    +0.000 C 
ATOM     14  C   UNL     1      45.167   2.428   9.172  0.00  0.00    +0.000 C 
ATOM     15  C   UNL     1      45.347   3.504   8.108  0.00  0.00    +0.000 C 
ATOM     16  N   UNL     1      44.833   4.755   8.683  0.00  0.00    +0.000 NA
ATOM     17  H   UNL     1      44.304   5.270   7.979  0.00  0.00    +0.000 HD
ENDBRANCH   9  12
ENDBRANCH   7   8
BRANCH   7  18
ATOM     18  C   UNL     1      44.530   8.860  11.266  0.00  0.00    +0.000 C 
BRANCH  18  19
ATOM     19  N   UNL     1      44.089   9.935  12.165  0.00  0.00    +0.000 NA
ATOM     20  H   UNL     1      43.426   9.557  12.838  0.00  0.00    +0.000 HD
ATOM     21  H   UNL     1      43.602  10.658  11.634  0.00  0.00    +0.000 HD
ENDBRANCH  18  19
ENDBRANCH   7  18
ENDBRANCH   1   7
BRANCH   4  22
ATOM     22  C   UNL     1      49.621   7.384  15.007  0.00  0.00    +0.000 C 
BRANCH  22  23
ATOM     23  N   UNL     1      50.771   7.491  14.144  0.00  0.00    +0.000 N 
ATOM     24  C   UNL     1      51.370   8.702  13.902  0.00  0.00    +0.000 C 
ATOM     25  O   UNL     1      51.005   9.731  14.466  0.00  0.00    +0.000 OA
ATOM     26  H   UNL     1      50.941   6.722  13.504  0.00  0.00    +0.000 HD
BRANCH  24  27
ATOM     27  C   UNL     1      52.509   8.699  12.974  0.00  0.00    +0.000 A 
ATOM     28  C   UNL     1      53.724   9.241  13.371  0.00  0.00    +0.000 A 
ATOM     29  S   UNL     1      54.950   9.112  12.193  0.00  0.00    +0.000 S 
ATOM     30  C   UNL     1      53.885   8.375  11.087  0.00  0.00    +0.000 A 
ATOM     31  N   UNL     1      54.307   8.023   9.843  0.00  0.00    +0.000 NA
ATOM     32  C   UNL     1      53.388   7.508   9.096  0.00  0.00    +0.000 A 
ATOM     33  N   UNL     1      52.088   7.306   9.483  0.00  0.00    +0.000 N 
ATOM     34  C   UNL     1      51.629   7.612  10.741  0.00  0.00    +0.000 A 
ATOM     35  O   UNL     1      50.477   7.365  11.080  0.00  0.00    +0.000 OA
ATOM     36  C   UNL     1      52.619   8.211  11.618  0.00  0.00    +0.000 A 
ATOM     37  H   UNL     1      51.418   6.890   8.853  0.00  0.00    +0.000 HD
ENDBRANCH  24  27
ENDBRANCH  22  23
ENDBRANCH   4  22
TORSDOF 8
ENDMDL
MODEL 9
REMARK VINA RESULT:    -6.549      3.654      4.751
REMARK INTER + INTRA:         -10.582
REMARK INTER:                  -9.456
REMARK INTRA:                  -1.126
REMARK UNBOUND:                -1.161
REMARK  Name = 
REMARK  8 active torsions:
REMARK  status: ('A' for Active; 'I' for Inactive)
REMARK    1  A    between atoms: N_1  and  C_2
REMARK    2  A    between atoms: C_2  and  C_3
REMARK    3  A    between atoms: C_3  and  N_4
REMARK    4  A    between atoms: C_3  and  C_12
REMARK    5  A    between atoms: C_5  and  C_7
REMARK    6  A    between atoms: C_15  and  C_16
REMARK    7  A    between atoms: C_16  and  N_17
REMARK    8  A    between atoms: C_18  and  C_20
REMARK                            x       y       z     vdW  Elec       q    Type
REMARK                         _______ _______ _______ _____ _____    ______ ____
ROOT
ATOM      1  C   UNL     1      47.056   5.656  13.979  0.00  0.00    +0.000 A 
ATOM      2  C   UNL     1      47.924   6.249  14.897  0.00  0.00    +0.000 A 
ATOM      3  C   UNL     1      48.380   5.507  15.987  0.00  0.00    +0.000 A 
ATOM      4  C   UNL     1      47.984   4.178  16.138  0.00  0.00    +0.000 A 
ATOM      5  C   UNL     1      47.115   3.668  15.182  0.00  0.00    +0.000 A 
ATOM      6  N   UNL     1      46.656   4.367  14.116  0.00  0.00    +0.000 NA
ENDROOT
BRANCH   1   7
ATOM      7  C   UNL     1      46.489   6.457  12.803  0.00  0.00    +0.000 C 
BRANCH   7   8
ATOM      8  N   UNL     1      46.003   5.557  11.752  0.00  0.00    +0.000 N 
ATOM      9  C   UNL     1      44.784   5.721  11.137  0.00  0.00    +0.000 C 
ATOM     10  O   UNL     1      44.033   6.668  11.357  0.00  0.00    +0.000 OA
ATOM     11  H   UNL     1      46.436   4.646  11.623  0.00  0.00    +0.000 HD
BRANCH   9  12
ATOM     12  C   UNL     1      44.387   4.599  10.173  0.00  0.00    +0.000 C 
ATOM     13  C   UNL     1      44.929   3.255  10.614  0.00  0.00    +0.000 C 
ATOM     14  C   UNL     1      44.814   2.421   9.350  0.00  0.00    +0.000 C 
ATOM     15  C   UNL     1      44.952   3.425   8.213  0.00  0.00    +0.000 C 
ATOM     16  N   UNL     1      45.001   4.758   8.830  0.00  0.00    +0.000 NA
ATOM     17  H   UNL     1      44.446   5.416   8.282  0.00  0.00    +0.000 HD
ENDBRANCH   9  12
ENDBRANCH   7   8
BRANCH   7  18
ATOM     18  C   UNL     1      47.546   7.470  12.251  0.00  0.00    +0.000 C 
BRANCH  18  19
ATOM     19  N   UNL     1      47.100   8.864  12.119  0.00  0.00    +0.000 NA
ATOM     20  H   UNL     1      47.488   9.260  11.266  0.00  0.00    +0.000 HD
ATOM     21  H   UNL     1      47.455   9.420  12.898  0.00  0.00    +0.000 HD
ENDBRANCH  18  19
ENDBRANCH   7  18
ENDBRANCH   1   7
BRANCH   4  22
ATOM     22  C   UNL     1      48.443   3.343  17.298  0.00  0.00    +0.000 C 
BRANCH  22  23
ATOM     23  N   UNL     1      49.869   3.129  17.266  0.00  0.00    +0.000 N 
ATOM     24  C   UNL     1      50.709   3.795  18.124  0.00  0.00    +0.000 C 
ATOM     25  O   UNL     1      50.282   4.539  19.003  0.00  0.00    +0.000 OA
ATOM     26  H   UNL     1      50.255   2.714  16.424  0.00  0.00    +0.000 HD
BRANCH  24  27
ATOM     27  C   UNL     1      52.147   3.531  17.973  0.00  0.00    +0.000 A 
ATOM     28  C   UNL     1      53.047   4.588  17.983  0.00  0.00    +0.000 A 
ATOM     29  S   UNL     1      54.676   4.102  17.846  0.00  0.00    +0.000 S 
ATOM     30  C   UNL     1      54.233   2.463  17.715  0.00  0.00    +0.000 A 
ATOM     31  N   UNL     1      55.176   1.497  17.547  0.00  0.00    +0.000 NA
ATOM     32  C   UNL     1      54.699   0.304  17.424  0.00  0.00    +0.000 A 
ATOM     33  N   UNL     1      53.366  -0.013  17.463  0.00  0.00    +0.000 N 
ATOM     34  C   UNL     1      52.383   0.925  17.669  0.00  0.00    +0.000 A 
ATOM     35  O   UNL     1      51.203   0.606  17.760  0.00  0.00    +0.000 OA
ATOM     36  C   UNL     1      52.863   2.289  17.796  0.00  0.00    +0.000 A 
ATOM     37  H   UNL     1      53.057  -0.970  17.370  0.00  0.00    +0.000 HD
ENDBRANCH  24  27
ENDBRANCH  22  23
ENDBRANCH   4  22
TORSDOF 8
ENDMDL
