MODEL 1
REMARK VINA RESULT:    -8.662      0.000      0.000
REMARK INTER + INTRA:         -13.394
REMARK INTER:                 -12.460
REMARK INTRA:                  -0.934
REMARK UNBOUND:                -0.934
REMARK  Name = 
REMARK  8 active torsions:
REMARK  status: ('A' for Active; 'I' for Inactive)
REMARK    1  A    between atoms: N_1  and  C_2
REMARK    2  A    between atoms: C_2  and  C_3
REMARK    3  A    between atoms: C_2  and  C_24
REMARK    4  A    between atoms: C_3  and  C_4
REMARK    5  A    between atoms: C_7  and  C_8
REMARK    6  A    between atoms: C_8  and  N_9
REMARK    7  A    between atoms: C_10  and  C_12
REMARK    8  A    between atoms: N_26  and  C_27
REMARK                            x       y       z     vdW  Elec       q    Type
REMARK                         _______ _______ _______ _____ _____    ______ ____
ROOT
ATOM      1  C   UNL     1      44.754   5.413  10.755  0.00  0.00    +0.000 A 
ATOM      2  C   UNL     1      44.195   5.867  11.957  0.00  0.00    +0.000 A 
ATOM      3  C   UNL     1      44.907   6.727  12.798  0.00  0.00    +0.000 A 
ATOM      4  C   UNL     1      46.194   7.159  12.456  0.00  0.00    +0.000 A 
ATOM      5  C   UNL     1      46.765   6.687  11.266  0.00  0.00    +0.000 A 
ATOM      6  C   UNL     1      46.050   5.827  10.422  0.00  0.00    +0.000 A 
ENDROOT
BRANCH   1   7
ATOM      7  C   UNL     1      43.994   4.458   9.863  0.00  0.00    +0.000 C 
BRANCH   7   8
ATOM      8  C   UNL     1      44.207   2.957  10.136  0.00  0.00    +0.000 C 
BRANCH   8   9
ATOM      9  C   UNL     1      44.983   2.282   8.995  0.00  0.00    +0.000 C 
ATOM     10  O   UNL     1      44.888   1.105   8.684  0.00  0.00    +0.000 OA
ATOM     11  N   UNL     1      45.975   3.129   8.378  0.00  0.00    +0.000 N 
ATOM     12  H   UNL     1      46.106   4.044   8.805  0.00  0.00    +0.000 HD
BRANCH  11  13
ATOM     13  C   UNL     1      46.715   2.723   7.285  0.00  0.00    +0.000 A 
ATOM     14  C   UNL     1      47.564   1.641   7.164  0.00  0.00    +0.000 A 
ATOM     15  N   UNL     1      48.120   1.589   5.912  0.00  0.00    +0.000 NA
ATOM     16  C   UNL     1      47.632   2.625   5.274  0.00  0.00    +0.000 A 
ATOM     17  N   UNL     1      46.741   3.318   6.048  0.00  0.00    +0.000 N 
ATOM     18  H   UNL     1      46.263   4.160   5.769  0.00  0.00    +0.000 HD
ENDBRANCH  11  13
ENDBRANCH   8   9
BRANCH   8  19
ATOM     19  N   UNL     1      44.826   2.637  11.457  0.00  0.00    +0.000 NA
ATOM     20  H   UNL     1      44.141   2.869  12.184  0.00  0.00    +0.000 HD
ATOM     21  H   UNL     1      45.588   3.304  11.627  0.00  0.00    +0.000 HD
ENDBRANCH   8  19
ENDBRANCH   7   8
ENDBRANCH   1   7
BRANCH   4  22
ATOM     22  C   UNL     1      46.951   8.094  13.368  0.00  0.00    +0.000 C 
BRANCH  22  23
ATOM     23  N   UNL     1      47.427   7.439  14.562  0.00  0.00    +0.000 N 
ATOM     24  C   UNL     1      48.681   6.891  14.654  0.00  0.00    +0.000 C 
ATOM     25  O   UNL     1      49.495   6.958  13.737  0.00  0.00    +0.000 OA
ATOM     26  H   UNL     1      46.739   7.227  15.276  0.00  0.00    +0.000 HD
BRANCH  24  27
ATOM     27  C   UNL     1      49.024   6.254  15.935  0.00  0.00    +0.000 A 
ATOM     28  C   UNL     1      50.073   6.759  16.692  0.00  0.00    +0.000 A 
ATOM     29  S   UNL     1      50.316   5.933  18.163  0.00  0.00    +0.000 S 
ATOM     30  C   UNL     1      49.061   4.837  17.818  0.00  0.00    +0.000 A 
ATOM     31  N   UNL     1      48.758   3.830  18.680  0.00  0.00    +0.000 NA
ATOM     32  C   UNL     1      47.819   3.042  18.271  0.00  0.00    +0.000 A 
ATOM     33  N   UNL     1      47.147   3.179  17.084  0.00  0.00    +0.000 N 
ATOM     34  C   UNL     1      47.376   4.218  16.212  0.00  0.00    +0.000 A 
ATOM     35  O   UNL     1      46.688   4.372  15.207  0.00  0.00    +0.000 OA
ATOM     36  C   UNL     1      48.450   5.110  16.607  0.00  0.00    +0.000 A 
ATOM     37  H   UNL     1      46.409   2.538  16.835  0.00  0.00    +0.000 HD
ENDBRANCH  24  27
ENDBRANCH  22  23
ENDBRANCH   4  22
TORSDOF 8
ENDMDL
MODEL 2
REMARK VINA RESULT:    -8.491      1.914      2.254
REMARK INTER + INTRA:         -13.148
REMARK INTER:                 -12.295
REMARK INTRA:                  -0.853
REMARK UNBOUND:                -0.934
REMARK  Name = 
REMARK  8 active torsions:
REMARK  status: ('A' for Active; 'I' for Inactive)
REMARK    1  A    between atoms: N_1  and  C_2
REMARK    2  A    between atoms: C_2  and  C_3
REMARK    3  A    between atoms: C_2  and  C_24
REMARK    4  A    between atoms: C_3  and  C_4
REMARK    5  A    between atoms: C_7  and  C_8
REMARK    6  A    between atoms: C_8  and  N_9
REMARK    7  A    between atoms: C_10  and  C_12
REMARK    8  A    between atoms: N_26  and  C_27
REMARK                            x       y       z     vdW  Elec       q    Type
REMARK                         _______ _______ _______ _____ _____    ______ ____
ROOT
ATOM      1  C   UNL     1      44.967   5.440  11.679  0.00  0.00    +0.000 A 
ATOM      2  C   UNL     1      45.856   6.371  11.126  0.00  0.00    +0.000 A 
ATOM      3  C   UNL     1      46.989   6.785  11.833  0.00  0.00    +0.000 A 
ATOM      4  C   UNL     1      47.265   6.274  13.107  0.00  0.00    +0.000 A 
ATOM      5  C   UNL     1      46.363   5.361  13.671  0.00  0.00    +0.000 A 
ATOM      6  C   UNL     1      45.230   4.945  12.962  0.00  0.00    +0.000 A 
ENDROOT
BRANCH   1   7
ATOM      7  C   UNL     1      43.726   5.019  10.925  0.00  0.00    +0.000 C 
BRANCH   7   8
ATOM      8  C   UNL     1      43.772   3.628  10.264  0.00  0.00    +0.000 C 
BRANCH   8   9
ATOM      9  C   UNL     1      44.771   3.593   9.097  0.00  0.00    +0.000 C 
ATOM     10  O   UNL     1      44.960   4.507   8.310  0.00  0.00    +0.000 OA
ATOM     11  N   UNL     1      45.396   2.308   8.897  0.00  0.00    +0.000 N 
ATOM     12  H   UNL     1      45.060   1.553   9.493  0.00  0.00    +0.000 HD
BRANCH  11  13
ATOM     13  C   UNL     1      46.378   2.105   7.948  0.00  0.00    +0.000 A 
ATOM     14  C   UNL     1      46.932   0.919   7.511  0.00  0.00    +0.000 A 
ATOM     15  N   UNL     1      47.892   1.145   6.558  0.00  0.00    +0.000 NA
ATOM     16  C   UNL     1      47.937   2.447   6.415  0.00  0.00    +0.000 A 
ATOM     17  N   UNL     1      47.007   3.072   7.203  0.00  0.00    +0.000 N 
ATOM     18  H   UNL     1      46.880   4.070   7.270  0.00  0.00    +0.000 HD
ENDBRANCH  11  13
ENDBRANCH   8   9
BRANCH   8  19
ATOM     19  N   UNL     1      44.013   2.490  11.200  0.00  0.00    +0.000 NA
ATOM     20  H   UNL     1      43.914   2.849  12.156  0.00  0.00    +0.000 HD
ATOM     21  H   UNL     1      45.005   2.232  11.145  0.00  0.00    +0.000 HD
ENDBRANCH   8  19
ENDBRANCH   7   8
ENDBRANCH   1   7
BRANCH   4  22
ATOM     22  C   UNL     1      48.496   6.723  13.858  0.00  0.00    +0.000 C 
BRANCH  22  23
ATOM     23  N   UNL     1      48.251   6.902  15.268  0.00  0.00    +0.000 N 
ATOM     24  C   UNL     1      49.184   6.595  16.225  0.00  0.00    +0.000 C 
ATOM     25  O   UNL     1      50.305   6.184  15.940  0.00  0.00    +0.000 OA
ATOM     26  H   UNL     1      47.295   7.087  15.549  0.00  0.00    +0.000 HD
BRANCH  24  27
ATOM     27  C   UNL     1      48.789   6.830  17.622  0.00  0.00    +0.000 A 
ATOM     28  C   UNL     1      48.508   8.122  18.048  0.00  0.00    +0.000 A 
ATOM     29  S   UNL     1      48.030   8.217  19.681  0.00  0.00    +0.000 S 
ATOM     30  C   UNL     1      48.232   6.541  19.895  0.00  0.00    +0.000 A 
ATOM     31  N   UNL     1      48.010   5.960  21.104  0.00  0.00    +0.000 NA
ATOM     32  C   UNL     1      48.249   4.691  21.139  0.00  0.00    +0.000 A 
ATOM     33  N   UNL     1      48.679   3.949  20.070  0.00  0.00    +0.000 N 
ATOM     34  C   UNL     1      48.857   4.481  18.814  0.00  0.00    +0.000 A 
ATOM     35  O   UNL     1      49.143   3.772  17.853  0.00  0.00    +0.000 OA
ATOM     36  C   UNL     1      48.638   5.913  18.730  0.00  0.00    +0.000 A 
ATOM     37  H   UNL     1      48.828   2.955  20.161  0.00  0.00    +0.000 HD
ENDBRANCH  24  27
ENDBRANCH  22  23
ENDBRANCH   4  22
TORSDOF 8
ENDMDL
MODEL 3
REMARK VINA RESULT:    -8.290      2.401      2.864
REMARK INTER + INTRA:         -12.859
REMARK INTER:                 -11.795
REMARK INTRA:                  -1.063
REMARK UNBOUND:                -0.934
REMARK  Name = 
REMARK  8 active torsions:
REMARK  status: ('A' for Active; 'I' for Inactive)
REMARK    1  A    between atoms: N_1  and  C_2
REMARK    2  A    between atoms: C_2  and  C_3
REMARK    3  A    between atoms: C_2  and  C_24
REMARK    4  A    between atoms: C_3  and  C_4
REMARK    5  A    between atoms: C_7  and  C_8
REMARK    6  A    between atoms: C_8  and  N_9
REMARK    7  A    between atoms: C_10  and  C_12
REMARK    8  A    between atoms: N_26  and  C_27
REMARK                            x       y       z     vdW  Elec       q    Type
REMARK                         _______ _______ _______ _____ _____    ______ ____
ROOT
ATOM      1  C   UNL     1      44.900   5.446  11.698  0.00  0.00    +0.000 A 
ATOM      2  C   UNL     1      45.133   4.967  12.994  0.00  0.00    +0.000 A 
ATOM      3  C   UNL     1      46.264   5.367  13.712  0.00  0.00    +0.000 A 
ATOM      4  C   UNL     1      47.186   6.261  13.155  0.00  0.00    +0.000 A 
ATOM      5  C   UNL     1      46.967   6.723  11.850  0.00  0.00    +0.000 A 
ATOM      6  C   UNL     1      45.833   6.324  11.131  0.00  0.00    +0.000 A 
ENDROOT
BRANCH   1   7
ATOM      7  C   UNL     1      43.693   4.987  10.912  0.00  0.00    +0.000 C 
BRANCH   7   8
ATOM      8  C   UNL     1      43.770   3.568  10.315  0.00  0.00    +0.000 C 
BRANCH   8   9
ATOM      9  C   UNL     1      44.716   3.517   9.106  0.00  0.00    +0.000 C 
ATOM     10  O   UNL     1      44.789   4.374   8.238  0.00  0.00    +0.000 OA
ATOM     11  N   UNL     1      45.443   2.278   8.980  0.00  0.00    +0.000 N 
ATOM     12  H   UNL     1      45.202   1.551   9.652  0.00  0.00    +0.000 HD
BRANCH  11  13
ATOM     13  C   UNL     1      46.396   2.077   8.001  0.00  0.00    +0.000 A 
ATOM     14  C   UNL     1      46.889   0.891   7.498  0.00  0.00    +0.000 A 
ATOM     15  N   UNL     1      47.839   1.120   6.536  0.00  0.00    +0.000 NA
ATOM     16  C   UNL     1      47.939   2.424   6.453  0.00  0.00    +0.000 A 
ATOM     17  N   UNL     1      47.053   3.050   7.289  0.00  0.00    +0.000 N 
ATOM     18  H   UNL     1      46.971   4.049   7.405  0.00  0.00    +0.000 HD
ENDBRANCH  11  13
ENDBRANCH   8   9
BRANCH   8  19
ATOM     19  N   UNL     1      44.104   2.489  11.292  0.00  0.00    +0.000 NA
ATOM     20  H   UNL     1      44.288   1.633  10.757  0.00  0.00    +0.000 HD
ATOM     21  H   UNL     1      43.255   2.260  11.822  0.00  0.00    +0.000 HD
ENDBRANCH   8  19
ENDBRANCH   7   8
ENDBRANCH   1   7
BRANCH   4  22
ATOM     22  C   UNL     1      48.400   6.693  13.944  0.00  0.00    +0.000 C 
BRANCH  22  23
ATOM     23  N   UNL     1      48.164   6.692  15.367  0.00  0.00    +0.000 N 
ATOM     24  C   UNL     1      49.151   6.419  16.280  0.00  0.00    +0.000 C 
ATOM     25  O   UNL     1      50.311   6.196  15.944  0.00  0.00    +0.000 OA
ATOM     26  H   UNL     1      47.198   6.715  15.673  0.00  0.00    +0.000 HD
BRANCH  24  27
ATOM     27  C   UNL     1      48.759   6.455  17.696  0.00  0.00    +0.000 A 
ATOM     28  C   UNL     1      48.878   5.307  18.470  0.00  0.00    +0.000 A 
ATOM     29  S   UNL     1      48.419   5.526  20.097  0.00  0.00    +0.000 S 
ATOM     30  C   UNL     1      47.993   7.149  19.815  0.00  0.00    +0.000 A 
ATOM     31  N   UNL     1      47.488   7.922  20.814  0.00  0.00    +0.000 NA
ATOM     32  C   UNL     1      47.161   9.117  20.451  0.00  0.00    +0.000 A 
ATOM     33  N   UNL     1      47.305   9.614  19.181  0.00  0.00    +0.000 N 
ATOM     34  C   UNL     1      47.869   8.891  18.156  0.00  0.00    +0.000 A 
ATOM     35  O   UNL     1      48.080   9.397  17.058  0.00  0.00    +0.000 OA
ATOM     36  C   UNL     1      48.219   7.526  18.502  0.00  0.00    +0.000 A 
ATOM     37  H   UNL     1      47.047  10.566  18.970  0.00  0.00    +0.000 HD
ENDBRANCH  24  27
ENDBRANCH  22  23
ENDBRANCH   4  22
TORSDOF 8
ENDMDL
MODEL 4
REMARK VINA RESULT:    -7.854      1.900      2.467
REMARK INTER + INTRA:         -12.231
REMARK INTER:                 -10.954
REMARK INTRA:                  -1.277
REMARK UNBOUND:                -0.934
REMARK  Name = 
REMARK  8 active torsions:
REMARK  status: ('A' for Active; 'I' for Inactive)
REMARK    1  A    between atoms: N_1  and  C_2
REMARK    2  A    between atoms: C_2  and  C_3
REMARK    3  A    between atoms: C_2  and  C_24
REMARK    4  A    between atoms: C_3  and  C_4
REMARK    5  A    between atoms: C_7  and  C_8
REMARK    6  A    between atoms: C_8  and  N_9
REMARK    7  A    between atoms: C_10  and  C_12
REMARK    8  A    between atoms: N_26  and  C_27
REMARK                            x       y       z     vdW  Elec       q    Type
REMARK                         _______ _______ _______ _____ _____    ______ ____
ROOT
ATOM      1  C   UNL     1      44.698   5.486  12.803  0.00  0.00    +0.000 A 
ATOM      2  C   UNL     1      45.844   4.834  13.276  0.00  0.00    +0.000 A 
ATOM      3  C   UNL     1      47.103   5.432  13.166  0.00  0.00    +0.000 A 
ATOM      4  C   UNL     1      47.248   6.697  12.586  0.00  0.00    +0.000 A 
ATOM      5  C   UNL     1      46.105   7.340  12.090  0.00  0.00    +0.000 A 
ATOM      6  C   UNL     1      44.843   6.743  12.202  0.00  0.00    +0.000 A 
ENDROOT
BRANCH   1   7
ATOM      7  C   UNL     1      43.341   4.824  12.893  0.00  0.00    +0.000 C 
BRANCH   7   8
ATOM      8  C   UNL     1      43.126   3.589  11.997  0.00  0.00    +0.000 C 
BRANCH   8   9
ATOM      9  C   UNL     1      43.765   3.781  10.614  0.00  0.00    +0.000 C 
ATOM     10  O   UNL     1      43.463   4.658   9.819  0.00  0.00    +0.000 OA
ATOM     11  N   UNL     1      44.683   2.733  10.240  0.00  0.00    +0.000 N 
ATOM     12  H   UNL     1      44.754   1.952  10.889  0.00  0.00    +0.000 HD
BRANCH  11  13
ATOM     13  C   UNL     1      45.411   2.773   9.067  0.00  0.00    +0.000 A 
ATOM     14  C   UNL     1      45.994   1.734   8.370  0.00  0.00    +0.000 A 
ATOM     15  N   UNL     1      46.641   2.193   7.252  0.00  0.00    +0.000 NA
ATOM     16  C   UNL     1      46.470   3.493   7.263  0.00  0.00    +0.000 A 
ATOM     17  N   UNL     1      45.694   3.889   8.318  0.00  0.00    +0.000 N 
ATOM     18  H   UNL     1      45.452   4.843   8.535  0.00  0.00    +0.000 HD
ENDBRANCH  11  13
ENDBRANCH   8   9
BRANCH   8  19
ATOM     19  N   UNL     1      43.550   2.290  12.599  0.00  0.00    +0.000 NA
ATOM     20  H   UNL     1      43.490   2.387  13.619  0.00  0.00    +0.000 HD
ATOM     21  H   UNL     1      44.556   2.169  12.432  0.00  0.00    +0.000 HD
ENDBRANCH   8  19
ENDBRANCH   7   8
ENDBRANCH   1   7
BRANCH   4  22
ATOM     22  C   UNL     1      48.612   7.336  12.481  0.00  0.00    +0.000 C 
BRANCH  22  23
ATOM     23  N   UNL     1      49.503   6.914  13.533  0.00  0.00    +0.000 N 
ATOM     24  C   UNL     1      49.893   7.748  14.551  0.00  0.00    +0.000 C 
ATOM     25  O   UNL     1      49.475   8.897  14.653  0.00  0.00    +0.000 OA
ATOM     26  H   UNL     1      49.989   6.034  13.400  0.00  0.00    +0.000 HD
BRANCH  24  27
ATOM     27  C   UNL     1      50.807   7.176  15.551  0.00  0.00    +0.000 A 
ATOM     28  C   UNL     1      52.132   7.590  15.585  0.00  0.00    +0.000 A 
ATOM     29  S   UNL     1      53.047   6.860  16.825  0.00  0.00    +0.000 S 
ATOM     30  C   UNL     1      51.718   5.925  17.329  0.00  0.00    +0.000 A 
ATOM     31  N   UNL     1      51.836   5.042  18.357  0.00  0.00    +0.000 NA
ATOM     32  C   UNL     1      50.766   4.362  18.602  0.00  0.00    +0.000 A 
ATOM     33  N   UNL     1      49.584   4.494  17.920  0.00  0.00    +0.000 N 
ATOM     34  C   UNL     1      49.400   5.417  16.917  0.00  0.00    +0.000 A 
ATOM     35  O   UNL     1      48.302   5.583  16.395  0.00  0.00    +0.000 OA
ATOM     36  C   UNL     1      50.586   6.181  16.576  0.00  0.00    +0.000 A 
ATOM     37  H   UNL     1      48.779   3.943  18.177  0.00  0.00    +0.000 HD
ENDBRANCH  24  27
ENDBRANCH  22  23
ENDBRANCH   4  22
TORSDOF 8
ENDMDL
MODEL 5
REMARK VINA RESULT:    -7.473      5.194      9.968
REMARK INTER + INTRA:         -11.684
REMARK INTER:                 -10.447
REMARK INTRA:                  -1.237
REMARK UNBOUND:                -0.934
REMARK  Name = 
REMARK  8 active torsions:
REMARK  status: ('A' for Active; 'I' for Inactive)
REMARK    1  A    between atoms: N_1  and  C_2
REMARK    2  A    between atoms: C_2  and  C_3
REMARK    3  A    between atoms: C_2  and  C_24
REMARK    4  A    between atoms: C_3  and  C_4
REMARK    5  A    between atoms: C_7  and  C_8
REMARK    6  A    between atoms: C_8  and  N_9
REMARK    7  A    between atoms: C_10  and  C_12
REMARK    8  A    between atoms: N_26  and  C_27
REMARK                            x       y       z     vdW  Elec       q    Type
REMARK                         _______ _______ _______ _____ _____    ______ ____
ROOT
ATOM      1  C   UNL     1      51.302   2.241  17.392  0.00  0.00    +0.000 A 
ATOM      2  C   UNL     1      51.832   3.513  17.645  0.00  0.00    +0.000 A 
ATOM      3  C   UNL     1      51.021   4.650  17.586  0.00  0.00    +0.000 A 
ATOM      4  C   UNL     1      49.660   4.544  17.278  0.00  0.00    +0.000 A 
ATOM      5  C   UNL     1      49.134   3.275  17.000  0.00  0.00    +0.000 A 
ATOM      6  C   UNL     1      49.945   2.135  17.062  0.00  0.00    +0.000 A 
ENDROOT
BRANCH   1   7
ATOM      7  C   UNL     1      52.188   1.016  17.426  0.00  0.00    +0.000 C 
BRANCH   7   8
ATOM      8  C   UNL     1      53.615   1.224  17.967  0.00  0.00    +0.000 C 
BRANCH   8   9
ATOM      9  C   UNL     1      54.029   0.087  18.913  0.00  0.00    +0.000 C 
ATOM     10  O   UNL     1      54.880   0.176  19.785  0.00  0.00    +0.000 OA
ATOM     11  N   UNL     1      53.424  -1.186  18.603  0.00  0.00    +0.000 N 
ATOM     12  H   UNL     1      52.854  -1.212  17.759  0.00  0.00    +0.000 HD
BRANCH  11  13
ATOM     13  C   UNL     1      53.615  -2.305  19.388  0.00  0.00    +0.000 A 
ATOM     14  C   UNL     1      53.919  -3.595  19.003  0.00  0.00    +0.000 A 
ATOM     15  N   UNL     1      54.017  -4.424  20.091  0.00  0.00    +0.000 NA
ATOM     16  C   UNL     1      53.769  -3.663  21.129  0.00  0.00    +0.000 A 
ATOM     17  N   UNL     1      53.563  -2.360  20.759  0.00  0.00    +0.000 N 
ATOM     18  H   UNL     1      53.335  -1.607  21.390  0.00  0.00    +0.000 HD
ENDBRANCH  11  13
ENDBRANCH   8   9
BRANCH   8  19
ATOM     19  N   UNL     1      54.660   1.450  16.925  0.00  0.00    +0.000 NA
ATOM     20  H   UNL     1      55.388   2.043  17.340  0.00  0.00    +0.000 HD
ATOM     21  H   UNL     1      54.260   2.045  16.190  0.00  0.00    +0.000 HD
ENDBRANCH   8  19
ENDBRANCH   7   8
ENDBRANCH   1   7
BRANCH   4  22
ATOM     22  C   UNL     1      48.793   5.779  17.225  0.00  0.00    +0.000 C 
BRANCH  22  23
ATOM     23  N   UNL     1      47.904   5.784  16.089  0.00  0.00    +0.000 N 
ATOM     24  C   UNL     1      48.288   6.235  14.851  0.00  0.00    +0.000 C 
ATOM     25  O   UNL     1      49.428   6.628  14.622  0.00  0.00    +0.000 OA
ATOM     26  H   UNL     1      46.921   5.618  16.273  0.00  0.00    +0.000 HD
BRANCH  24  27
ATOM     27  C   UNL     1      47.271   6.179  13.791  0.00  0.00    +0.000 A 
ATOM     28  C   UNL     1      46.844   7.355  13.187  0.00  0.00    +0.000 A 
ATOM     29  S   UNL     1      45.693   7.114  11.954  0.00  0.00    +0.000 S 
ATOM     30  C   UNL     1      45.683   5.433  12.216  0.00  0.00    +0.000 A 
ATOM     31  N   UNL     1      44.871   4.618  11.492  0.00  0.00    +0.000 NA
ATOM     32  C   UNL     1      44.926   3.372  11.828  0.00  0.00    +0.000 A 
ATOM     33  N   UNL     1      45.731   2.866  12.816  0.00  0.00    +0.000 N 
ATOM     34  C   UNL     1      46.614   3.642  13.530  0.00  0.00    +0.000 A 
ATOM     35  O   UNL     1      47.395   3.144  14.336  0.00  0.00    +0.000 OA
ATOM     36  C   UNL     1      46.562   5.058  13.217  0.00  0.00    +0.000 A 
ATOM     37  H   UNL     1      45.740   1.877  13.014  0.00  0.00    +0.000 HD
ENDBRANCH  24  27
ENDBRANCH  22  23
ENDBRANCH   4  22
TORSDOF 8
ENDMDL
MODEL 6
REMARK VINA RESULT:    -7.460      5.077      9.445
REMARK INTER + INTRA:         -11.664
REMARK INTER:                 -10.567
REMARK INTRA:                  -1.097
REMARK UNBOUND:                -0.934
REMARK  Name = 
REMARK  8 active torsions:
REMARK  status: ('A' for Active; 'I' for Inactive)
REMARK    1  A    between atoms: N_1  and  C_2
REMARK    2  A    between atoms: C_2  and  C_3
REMARK    3  A    between atoms: C_2  and  C_24
REMARK    4  A    between atoms: C_3  and  C_4
REMARK    5  A    between atoms: C_7  and  C_8
REMARK    6  A    between atoms: C_8  and  N_9
REMARK    7  A    between atoms: C_10  and  C_12
REMARK    8  A    between atoms: N_26  and  C_27
REMARK                            x       y       z     vdW  Elec       q    Type
REMARK                         _______ _______ _______ _____ _____    ______ ____
ROOT
ATOM      1  C   UNL     1      51.426   3.285  17.657  0.00  0.00    +0.000 A 
ATOM      2  C   UNL     1      50.722   4.490  17.777  0.00  0.00    +0.000 A 
ATOM      3  C   UNL     1      49.346   4.541  17.535  0.00  0.00    +0.000 A 
ATOM      4  C   UNL     1      48.639   3.388  17.172  0.00  0.00    +0.000 A 
ATOM      5  C   UNL     1      49.347   2.187  17.027  0.00  0.00    +0.000 A 
ATOM      6  C   UNL     1      50.725   2.135  17.272  0.00  0.00    +0.000 A 
ENDROOT
BRANCH   1   7
ATOM      7  C   UNL     1      52.920   3.239  17.887  0.00  0.00    +0.000 C 
BRANCH   7   8
ATOM      8  C   UNL     1      53.455   2.000  18.631  0.00  0.00    +0.000 C 
BRANCH   8   9
ATOM      9  C   UNL     1      54.210   1.057  17.682  0.00  0.00    +0.000 C 
ATOM     10  O   UNL     1      54.926   1.418  16.760  0.00  0.00    +0.000 OA
ATOM     11  N   UNL     1      53.897  -0.339  17.868  0.00  0.00    +0.000 N 
ATOM     12  H   UNL     1      53.166  -0.543  18.547  0.00  0.00    +0.000 HD
BRANCH  11  13
ATOM     13  C   UNL     1      54.535  -1.339  17.161  0.00  0.00    +0.000 A 
ATOM     14  C   UNL     1      55.267  -2.408  17.636  0.00  0.00    +0.000 A 
ATOM     15  N   UNL     1      55.747  -3.173  16.606  0.00  0.00    +0.000 NA
ATOM     16  C   UNL     1      55.328  -2.583  15.513  0.00  0.00    +0.000 A 
ATOM     17  N   UNL     1      54.551  -1.492  15.797  0.00  0.00    +0.000 N 
ATOM     18  H   UNL     1      54.142  -0.877  15.111  0.00  0.00    +0.000 HD
ENDBRANCH  11  13
ENDBRANCH   8   9
BRANCH   8  19
ATOM     19  N   UNL     1      54.275   2.296  19.844  0.00  0.00    +0.000 NA
ATOM     20  H   UNL     1      53.628   2.454  20.624  0.00  0.00    +0.000 HD
ATOM     21  H   UNL     1      54.721   3.212  19.716  0.00  0.00    +0.000 HD
ENDBRANCH   8  19
ENDBRANCH   7   8
ENDBRANCH   1   7
BRANCH   4  22
ATOM     22  C   UNL     1      47.151   3.454  16.922  0.00  0.00    +0.000 C 
BRANCH  22  23
ATOM     23  N   UNL     1      46.806   4.393  15.883  0.00  0.00    +0.000 N 
ATOM     24  C   UNL     1      46.898   4.086  14.549  0.00  0.00    +0.000 C 
ATOM     25  O   UNL     1      47.243   2.977  14.154  0.00  0.00    +0.000 OA
ATOM     26  H   UNL     1      46.669   5.358  16.162  0.00  0.00    +0.000 HD
BRANCH  24  27
ATOM     27  C   UNL     1      46.512   5.147  13.607  0.00  0.00    +0.000 A 
ATOM     28  C   UNL     1      47.430   6.133  13.270  0.00  0.00    +0.000 A 
ATOM     29  S   UNL     1      46.838   7.264  12.139  0.00  0.00    +0.000 S 
ATOM     30  C   UNL     1      45.315   6.507  12.098  0.00  0.00    +0.000 A 
ATOM     31  N   UNL     1      44.310   7.003  11.328  0.00  0.00    +0.000 NA
ATOM     32  C   UNL     1      43.193   6.362  11.429  0.00  0.00    +0.000 A 
ATOM     33  N   UNL     1      42.995   5.262  12.221  0.00  0.00    +0.000 N 
ATOM     34  C   UNL     1      43.998   4.688  12.967  0.00  0.00    +0.000 A 
ATOM     35  O   UNL     1      43.817   3.643  13.586  0.00  0.00    +0.000 OA
ATOM     36  C   UNL     1      45.264   5.394  12.919  0.00  0.00    +0.000 A 
ATOM     37  H   UNL     1      42.100   4.796  12.238  0.00  0.00    +0.000 HD
ENDBRANCH  24  27
ENDBRANCH  22  23
ENDBRANCH   4  22
TORSDOF 8
ENDMDL
MODEL 7
REMARK VINA RESULT:    -7.432      1.570      2.507
REMARK INTER + INTRA:         -11.625
REMARK INTER:                 -10.946
REMARK INTRA:                  -0.679
REMARK UNBOUND:                -0.934
REMARK  Name = 
REMARK  8 active torsions:
REMARK  status: ('A' for Active; 'I' for Inactive)
REMARK    1  A    between atoms: N_1  and  C_2
REMARK    2  A    between atoms: C_2  and  C_3
REMARK    3  A    between atoms: C_2  and  C_24
REMARK    4  A    between atoms: C_3  and  C_4
REMARK    5  A    between atoms: C_7  and  C_8
REMARK    6  A    between atoms: C_8  and  N_9
REMARK    7  A    between atoms: C_10  and  C_12
REMARK    8  A    between atoms: N_26  and  C_27
REMARK                            x       y       z     vdW  Elec       q    Type
REMARK                         _______ _______ _______ _____ _____    ______ ____
ROOT
ATOM      1  C   UNL     1      44.813   5.493  10.903  0.00  0.00    +0.000 A 
ATOM      2  C   UNL     1      46.088   5.901  10.489  0.00  0.00    +0.000 A 
ATOM      3  C   UNL     1      46.833   6.804  11.254  0.00  0.00    +0.000 A 
ATOM      4  C   UNL     1      46.325   7.317  12.453  0.00  0.00    +0.000 A 
ATOM      5  C   UNL     1      45.040   6.928  12.855  0.00  0.00    +0.000 A 
ATOM      6  C   UNL     1      44.294   6.022  12.091  0.00  0.00    +0.000 A 
ENDROOT
BRANCH   1   7
ATOM      7  C   UNL     1      43.997   4.541  10.058  0.00  0.00    +0.000 C 
BRANCH   7   8
ATOM      8  C   UNL     1      44.217   3.039  10.320  0.00  0.00    +0.000 C 
BRANCH   8   9
ATOM      9  C   UNL     1      44.925   2.359   9.138  0.00  0.00    +0.000 C 
ATOM     10  O   UNL     1      44.729   1.211   8.771  0.00  0.00    +0.000 OA
ATOM     11  N   UNL     1      45.979   3.150   8.550  0.00  0.00    +0.000 N 
ATOM     12  H   UNL     1      46.189   4.029   9.020  0.00  0.00    +0.000 HD
BRANCH  11  13
ATOM     13  C   UNL     1      46.674   2.738   7.431  0.00  0.00    +0.000 A 
ATOM     14  C   UNL     1      47.463   1.619   7.260  0.00  0.00    +0.000 A 
ATOM     15  N   UNL     1      47.988   1.574   5.995  0.00  0.00    +0.000 NA
ATOM     16  C   UNL     1      47.540   2.651   5.396  0.00  0.00    +0.000 A 
ATOM     17  N   UNL     1      46.703   3.367   6.210  0.00  0.00    +0.000 N 
ATOM     18  H   UNL     1      46.262   4.240   5.965  0.00  0.00    +0.000 HD
ENDBRANCH  11  13
ENDBRANCH   8   9
BRANCH   8  19
ATOM     19  N   UNL     1      44.907   2.716  11.604  0.00  0.00    +0.000 NA
ATOM     20  H   UNL     1      44.398   3.192  12.357  0.00  0.00    +0.000 HD
ATOM     21  H   UNL     1      45.822   3.181  11.605  0.00  0.00    +0.000 HD
ENDBRANCH   8  19
ENDBRANCH   7   8
ENDBRANCH   1   7
BRANCH   4  22
ATOM     22  C   UNL     1      47.142   8.285  13.275  0.00  0.00    +0.000 C 
BRANCH  22  23
ATOM     23  N   UNL     1      47.476   7.762  14.577  0.00  0.00    +0.000 N 
ATOM     24  C   UNL     1      48.598   7.008  14.806  0.00  0.00    +0.000 C 
ATOM     25  O   UNL     1      49.414   6.762  13.922  0.00  0.00    +0.000 OA
ATOM     26  H   UNL     1      46.756   7.808  15.289  0.00  0.00    +0.000 HD
BRANCH  24  27
ATOM     27  C   UNL     1      48.804   6.543  16.186  0.00  0.00    +0.000 A 
ATOM     28  C   UNL     1      48.399   5.265  16.547  0.00  0.00    +0.000 A 
ATOM     29  S   UNL     1      48.743   4.870  18.170  0.00  0.00    +0.000 S 
ATOM     30  C   UNL     1      49.399   6.412  18.464  0.00  0.00    +0.000 A 
ATOM     31  N   UNL     1      49.865   6.749  19.696  0.00  0.00    +0.000 NA
ATOM     32  C   UNL     1      50.288   7.966  19.793  0.00  0.00    +0.000 A 
ATOM     33  N   UNL     1      50.299   8.872  18.764  0.00  0.00    +0.000 N 
ATOM     34  C   UNL     1      49.898   8.556  17.486  0.00  0.00    +0.000 A 
ATOM     35  O   UNL     1      50.016   9.357  16.563  0.00  0.00    +0.000 OA
ATOM     36  C   UNL     1      49.376   7.211  17.334  0.00  0.00    +0.000 A 
ATOM     37  H   UNL     1      50.663   9.802  18.904  0.00  0.00    +0.000 HD
ENDBRANCH  24  27
ENDBRANCH  22  23
ENDBRANCH   4  22
TORSDOF 8
ENDMDL
MODEL 8
REMARK VINA RESULT:    -7.416      1.809      2.551
REMARK INTER + INTRA:         -11.601
REMARK INTER:                 -10.451
REMARK INTRA:                  -1.150
REMARK UNBOUND:                -0.934
REMARK  Name = 
REMARK  8 active torsions:
REMARK  status: ('A' for Active; 'I' for Inactive)
REMARK    1  A    between atoms: N_1  and  C_2
REMARK    2  A    between atoms: C_2  and  C_3
REMARK    3  A    between atoms: C_2  and  C_24
REMARK    4  A    between atoms: C_3  and  C_4
REMARK    5  A    between atoms: C_7  and  C_8
REMARK    6  A    between atoms: C_8  and  N_9
REMARK    7  A    between atoms: C_10  and  C_12
REMARK    8  A    between atoms: N_26  and  C_27
REMARK                            x       y       z     vdW  Elec       q    Type
REMARK                         _______ _______ _______ _____ _____    ______ ____
ROOT
ATOM      1  C   UNL     1      45.135   7.371  11.809  0.00  0.00    +0.000 A 
ATOM      2  C   UNL     1      45.302   8.524  12.587  0.00  0.00    +0.000 A 
ATOM      3  C   UNL     1      46.529   8.806  13.195  0.00  0.00    +0.000 A 
ATOM      4  C   UNL     1      47.621   7.944  13.038  0.00  0.00    +0.000 A 
ATOM      5  C   UNL     1      47.448   6.777  12.280  0.00  0.00    +0.000 A 
ATOM      6  C   UNL     1      46.220   6.496  11.668  0.00  0.00    +0.000 A 
ENDROOT
BRANCH   1   7
ATOM      7  C   UNL     1      43.798   7.053  11.179  0.00  0.00    +0.000 C 
BRANCH   7   8
ATOM      8  C   UNL     1      43.093   5.780  11.685  0.00  0.00    +0.000 C 
BRANCH   8   9
ATOM      9  C   UNL     1      43.817   4.511  11.213  0.00  0.00    +0.000 C 
ATOM     10  O   UNL     1      44.173   3.597  11.940  0.00  0.00    +0.000 OA
ATOM     11  N   UNL     1      44.188   4.530   9.819  0.00  0.00    +0.000 N 
ATOM     12  H   UNL     1      44.001   5.399   9.321  0.00  0.00    +0.000 HD
BRANCH  11  13
ATOM     13  C   UNL     1      44.776   3.447   9.197  0.00  0.00    +0.000 A 
ATOM     14  C   UNL     1      45.652   3.427   8.131  0.00  0.00    +0.000 A 
ATOM     15  N   UNL     1      45.999   2.142   7.802  0.00  0.00    +0.000 NA
ATOM     16  C   UNL     1      45.343   1.380   8.644  0.00  0.00    +0.000 A 
ATOM     17  N   UNL     1      44.622   2.125   9.538  0.00  0.00    +0.000 N 
ATOM     18  H   UNL     1      44.026   1.749  10.259  0.00  0.00    +0.000 HD
ENDBRANCH  11  13
ENDBRANCH   8   9
BRANCH   8  19
ATOM     19  N   UNL     1      42.854   5.735  13.158  0.00  0.00    +0.000 NA
ATOM     20  H   UNL     1      42.418   6.623  13.429  0.00  0.00    +0.000 HD
ATOM     21  H   UNL     1      43.763   5.762  13.634  0.00  0.00    +0.000 HD
ENDBRANCH   8  19
ENDBRANCH   7   8
ENDBRANCH   1   7
BRANCH   4  22
ATOM     22  C   UNL     1      48.943   8.262  13.693  0.00  0.00    +0.000 C 
BRANCH  22  23
ATOM     23  N   UNL     1      49.142   7.535  14.923  0.00  0.00    +0.000 N 
ATOM     24  C   UNL     1      48.805   8.050  16.149  0.00  0.00    +0.000 C 
ATOM     25  O   UNL     1      48.276   9.150  16.275  0.00  0.00    +0.000 OA
ATOM     26  H   UNL     1      49.714   6.699  14.876  0.00  0.00    +0.000 HD
BRANCH  24  27
ATOM     27  C   UNL     1      49.068   7.191  17.313  0.00  0.00    +0.000 A 
ATOM     28  C   UNL     1      49.676   7.730  18.440  0.00  0.00    +0.000 A 
ATOM     29  S   UNL     1      49.874   6.612  19.712  0.00  0.00    +0.000 S 
ATOM     30  C   UNL     1      49.203   5.354  18.785  0.00  0.00    +0.000 A 
ATOM     31  N   UNL     1      49.103   4.094  19.286  0.00  0.00    +0.000 NA
ATOM     32  C   UNL     1      48.622   3.226  18.460  0.00  0.00    +0.000 A 
ATOM     33  N   UNL     1      48.220   3.508  17.180  0.00  0.00    +0.000 N 
ATOM     34  C   UNL     1      48.243   4.778  16.652  0.00  0.00    +0.000 A 
ATOM     35  O   UNL     1      47.781   5.017  15.540  0.00  0.00    +0.000 OA
ATOM     36  C   UNL     1      48.813   5.785  17.529  0.00  0.00    +0.000 A 
ATOM     37  H   UNL     1      47.834   2.785  16.592  0.00  0.00    +0.000 HD
ENDBRANCH  24  27
ENDBRANCH  22  23
ENDBRANCH   4  22
TORSDOF 8
ENDMDL
MODEL 9
REMARK VINA RESULT:    -7.397      2.376      2.764
REMARK INTER + INTRA:         -11.573
REMARK INTER:                 -10.964
REMARK INTRA:                  -0.609
REMARK UNBOUND:                -0.934
REMARK  Name = 
REMARK  8 active torsions:
REMARK  status: ('A' for Active; 'I' for Inactive)
REMARK    1  A    between atoms: N_1  and  C_2
REMARK    2  A    between atoms: C_2  and  C_3
REMARK    3  A    between atoms: C_2  and  C_24
REMARK    4  A    between atoms: C_3  and  C_4
REMARK    5  A    between atoms: C_7  and  C_8
REMARK    6  A    between atoms: C_8  and  N_9
REMARK    7  A    between atoms: C_10  and  C_12
REMARK    8  A    between atoms: N_26  and  C_27
REMARK                            x       y       z     vdW  Elec       q    Type
REMARK                         _______ _______ _______ _____ _____    ______ ____
ROOT
ATOM      1  C   UNL     1      45.897   4.889  12.768  0.00  0.00    +0.000 A 
ATOM      2  C   UNL     1      46.381   4.341  13.963  0.00  0.00    +0.000 A 
ATOM      3  C   UNL     1      47.298   5.041  14.751  0.00  0.00    +0.000 A 
ATOM      4  C   UNL     1      47.752   6.309  14.367  0.00  0.00    +0.000 A 
ATOM      5  C   UNL     1      47.287   6.848  13.160  0.00  0.00    +0.000 A 
ATOM      6  C   UNL     1      46.366   6.148  12.371  0.00  0.00    +0.000 A 
ENDROOT
BRANCH   1   7
ATOM      7  C   UNL     1      44.929   4.115  11.901  0.00  0.00    +0.000 C 
BRANCH   7   8
ATOM      8  C   UNL     1      44.760   4.619  10.454  0.00  0.00    +0.000 C 
BRANCH   8   9
ATOM      9  C   UNL     1      45.181   3.550   9.434  0.00  0.00    +0.000 C 
ATOM     10  O   UNL     1      44.828   2.381   9.459  0.00  0.00    +0.000 OA
ATOM     11  N   UNL     1      46.171   4.000   8.486  0.00  0.00    +0.000 N 
ATOM     12  H   UNL     1      46.536   4.939   8.636  0.00  0.00    +0.000 HD
BRANCH  11  13
ATOM     13  C   UNL     1      46.613   3.205   7.448  0.00  0.00    +0.000 A 
ATOM     14  C   UNL     1      46.937   1.864   7.457  0.00  0.00    +0.000 A 
ATOM     15  N   UNL     1      47.346   1.447   6.217  0.00  0.00    +0.000 NA
ATOM     16  C   UNL     1      47.286   2.513   5.456  0.00  0.00    +0.000 A 
ATOM     17  N   UNL     1      46.804   3.594   6.144  0.00  0.00    +0.000 N 
ATOM     18  H   UNL     1      46.695   4.522   5.765  0.00  0.00    +0.000 HD
ENDBRANCH  11  13
ENDBRANCH   8   9
BRANCH   8  19
ATOM     19  N   UNL     1      43.407   5.158  10.126  0.00  0.00    +0.000 NA
ATOM     20  H   UNL     1      42.733   4.705  10.753  0.00  0.00    +0.000 HD
ATOM     21  H   UNL     1      43.138   4.811   9.198  0.00  0.00    +0.000 HD
ENDBRANCH   8  19
ENDBRANCH   7   8
ENDBRANCH   1   7
BRANCH   4  22
ATOM     22  C   UNL     1      48.737   7.059  15.232  0.00  0.00    +0.000 C 
BRANCH  22  23
ATOM     23  N   UNL     1      49.752   6.200  15.788  0.00  0.00    +0.000 N 
ATOM     24  C   UNL     1      49.916   6.027  17.139  0.00  0.00    +0.000 C 
ATOM     25  O   UNL     1      49.181   6.563  17.962  0.00  0.00    +0.000 OA
ATOM     26  H   UNL     1      50.471   5.867  15.155  0.00  0.00    +0.000 HD
BRANCH  24  27
ATOM     27  C   UNL     1      50.996   5.120  17.556  0.00  0.00    +0.000 A 
ATOM     28  C   UNL     1      52.167   5.646  18.085  0.00  0.00    +0.000 A 
ATOM     29  S   UNL     1      53.301   4.461  18.553  0.00  0.00    +0.000 S 
ATOM     30  C   UNL     1      52.289   3.203  18.015  0.00  0.00    +0.000 A 
ATOM     31  N   UNL     1      52.685   1.905  18.102  0.00  0.00    +0.000 NA
ATOM     32  C   UNL     1      51.843   1.057  17.612  0.00  0.00    +0.000 A 
ATOM     33  N   UNL     1      50.636   1.389  17.054  0.00  0.00    +0.000 N 
ATOM     34  C   UNL     1      50.167   2.682  17.002  0.00  0.00    +0.000 A 
ATOM     35  O   UNL     1      49.039   2.937  16.591  0.00  0.00    +0.000 OA
ATOM     36  C   UNL     1      51.094   3.679  17.506  0.00  0.00    +0.000 A 
ATOM     37  H   UNL     1      50.016   0.673  16.707  0.00  0.00    +0.000 HD
ENDBRANCH  24  27
ENDBRANCH  22  23
ENDBRANCH   4  22
TORSDOF 8
ENDMDL
