MODEL 1
REMARK VINA RESULT:    -8.174      0.000      0.000
REMARK INTER + INTRA:         -13.397
REMARK INTER:                 -11.997
REMARK INTRA:                  -1.401
REMARK UNBOUND:                -1.401
REMARK  Name = 
REMARK  10 active torsions:
REMARK  status: ('A' for Active; 'I' for Inactive)
REMARK    1  A    between atoms: C_1  and  O_2
REMARK    2  A    between atoms: O_2  and  C_3
REMARK    3  A    between atoms: C_10  and  C_11
REMARK    4  A    between atoms: N_13  and  C_14
REMARK    5  A    between atoms: C_14  and  C_15
REMARK    6  A    between atoms: C_18  and  C_19
REMARK    7  A    between atoms: C_19  and  O_20
REMARK    8  A    between atoms: O_20  and  C_21
REMARK    9  A    between atoms: C_21  and  C_22
REMARK   10  A    between atoms: C_21  and  C_23
REMARK                            x       y       z     vdW  Elec       q    Type
REMARK                         _______ _______ _______ _____ _____    ______ ____
ROOT
ATOM      1  C   UNL     1      47.217   8.134  13.331  0.00  0.00    +0.000 C 
ENDROOT
BRANCH   1   2
ATOM      2  C   UNL     1      46.286   7.330  12.450  0.00  0.00    +0.000 A 
ATOM      3  C   UNL     1      46.750   6.752  11.261  0.00  0.00    +0.000 A 
ATOM      4  C   UNL     1      45.946   5.867  10.532  0.00  0.00    +0.000 A 
ATOM      5  C   UNL     1      44.637   5.575  10.941  0.00  0.00    +0.000 A 
ATOM      6  C   UNL     1      44.136   6.233  12.072  0.00  0.00    +0.000 A 
ATOM      7  C   UNL     1      44.953   7.096  12.822  0.00  0.00    +0.000 A 
BRANCH   5   8
ATOM      8  C   UNL     1      43.782   4.620  10.137  0.00  0.00    +0.000 C 
BRANCH   8   9
ATOM      9  O   UNL     1      44.476   4.210   8.956  0.00  0.00    +0.000 OA
BRANCH   9  10
ATOM     10  C   UNL     1      45.192   2.966   9.089  0.00  0.00    +0.000 C 
ATOM     11  C   UNL     1      44.234   1.788   9.291  0.00  0.00    +0.000 C 
BRANCH  10  12
ATOM     12  C   UNL     1      46.037   2.694   7.845  0.00  0.00    +0.000 A 
ATOM     13  C   UNL     1      46.771   1.513   7.713  0.00  0.00    +0.000 A 
ATOM     14  C   UNL     1      47.592   1.336   6.600  0.00  0.00    +0.000 A 
ATOM     15  C   UNL     1      47.667   2.338   5.643  0.00  0.00    +0.000 A 
ATOM     16  C   UNL     1      46.910   3.481   5.840  0.00  0.00    +0.000 A 
ATOM     17  N   UNL     1      46.108   3.683   6.913  0.00  0.00    +0.000 NA
ENDBRANCH  10  12
ENDBRANCH   9  10
ENDBRANCH   8   9
ENDBRANCH   5   8
ENDBRANCH   1   2
BRANCH   1  20
ATOM     18  C   UNL     1      48.788   6.906  14.789  0.00  0.00    +0.000 C 
ATOM     19  O   UNL     1      49.680   6.952  13.937  0.00  0.00    +0.000 OA
ATOM     20  N   UNL     1      47.559   7.463  14.562  0.00  0.00    +0.000 N 
ATOM     21  H   UNL     1      46.868   7.477  15.298  0.00  0.00    +0.000 HD
BRANCH  18  29
ATOM     22  C   UNL     1      47.277   4.233  16.313  0.00  0.00    +0.000 A 
ATOM     23  N   UNL     1      46.939   3.155  17.048  0.00  0.00    +0.000 NA
ATOM     24  C   UNL     1      47.645   2.911  18.156  0.00  0.00    +0.000 A 
ATOM     25  N   UNL     1      48.645   3.639  18.645  0.00  0.00    +0.000 NA
ATOM     26  C   UNL     1      48.954   4.695  17.875  0.00  0.00    +0.000 A 
ATOM     27  S   UNL     1      50.187   5.760  18.351  0.00  0.00    +0.000 S 
ATOM     28  C   UNL     1      49.988   6.700  16.945  0.00  0.00    +0.000 A 
ATOM     29  C   UNL     1      49.007   6.225  16.084  0.00  0.00    +0.000 A 
ATOM     30  C   UNL     1      48.353   5.056  16.673  0.00  0.00    +0.000 A 
BRANCH  22  32
ATOM     31  C   UNL     1      47.002   3.763  14.040  0.00  0.00    +0.000 C 
ATOM     32  O   UNL     1      46.548   4.493  15.174  0.00  0.00    +0.000 OA
ENDBRANCH  22  32
ENDBRANCH  18  29
ENDBRANCH   1  20
TORSDOF 8
ENDMDL
MODEL 2
REMARK VINA RESULT:    -7.605      1.820      2.421
REMARK INTER + INTRA:         -12.563
REMARK INTER:                 -11.485
REMARK INTRA:                  -1.078
REMARK UNBOUND:                -1.401
REMARK  Name = 
REMARK  10 active torsions:
REMARK  status: ('A' for Active; 'I' for Inactive)
REMARK    1  A    between atoms: C_1  and  O_2
REMARK    2  A    between atoms: O_2  and  C_3
REMARK    3  A    between atoms: C_10  and  C_11
REMARK    4  A    between atoms: N_13  and  C_14
REMARK    5  A    between atoms: C_14  and  C_15
REMARK    6  A    between atoms: C_18  and  C_19
REMARK    7  A    between atoms: C_19  and  O_20
REMARK    8  A    between atoms: O_20  and  C_21
REMARK    9  A    between atoms: C_21  and  C_22
REMARK   10  A    between atoms: C_21  and  C_23
REMARK                            x       y       z     vdW  Elec       q    Type
REMARK                         _______ _______ _______ _____ _____    ______ ____
ROOT
ATOM      1  C   UNL     1      48.424   7.534  13.775  0.00  0.00    +0.000 C 
ENDROOT
BRANCH   1   2
ATOM      2  C   UNL     1      47.482   6.551  13.114  0.00  0.00    +0.000 A 
ATOM      3  C   UNL     1      47.108   5.371  13.769  0.00  0.00    +0.000 A 
ATOM      4  C   UNL     1      46.106   4.544  13.242  0.00  0.00    +0.000 A 
ATOM      5  C   UNL     1      45.488   4.847  12.021  0.00  0.00    +0.000 A 
ATOM      6  C   UNL     1      45.936   5.971  11.313  0.00  0.00    +0.000 A 
ATOM      7  C   UNL     1      46.917   6.817  11.857  0.00  0.00    +0.000 A 
BRANCH   5   8
ATOM      8  C   UNL     1      44.413   3.938  11.465  0.00  0.00    +0.000 C 
BRANCH   8   9
ATOM      9  O   UNL     1      45.003   2.898  10.680  0.00  0.00    +0.000 OA
BRANCH   9  10
ATOM     10  C   UNL     1      44.555   2.862   9.310  0.00  0.00    +0.000 C 
ATOM     11  C   UNL     1      44.075   4.238   8.841  0.00  0.00    +0.000 C 
BRANCH  10  12
ATOM     12  C   UNL     1      45.684   2.403   8.386  0.00  0.00    +0.000 A 
ATOM     13  C   UNL     1      46.317   3.297   7.519  0.00  0.00    +0.000 A 
ATOM     14  C   UNL     1      47.287   2.825   6.636  0.00  0.00    +0.000 A 
ATOM     15  C   UNL     1      47.606   1.475   6.633  0.00  0.00    +0.000 A 
ATOM     16  C   UNL     1      46.939   0.648   7.522  0.00  0.00    +0.000 A 
ATOM     17  N   UNL     1      45.988   1.077   8.387  0.00  0.00    +0.000 NA
ENDBRANCH  10  12
ENDBRANCH   9  10
ENDBRANCH   8   9
ENDBRANCH   5   8
ENDBRANCH   1   2
BRANCH   1  20
ATOM     18  C   UNL     1      49.248   7.087  16.060  0.00  0.00    +0.000 C 
ATOM     19  O   UNL     1      50.290   6.582  15.631  0.00  0.00    +0.000 OA
ATOM     20  N   UNL     1      48.291   7.573  15.211  0.00  0.00    +0.000 N 
ATOM     21  H   UNL     1      47.480   8.046  15.583  0.00  0.00    +0.000 HD
BRANCH  18  29
ATOM     22  C   UNL     1      48.794   4.709  18.489  0.00  0.00    +0.000 A 
ATOM     23  N   UNL     1      48.711   3.985  19.621  0.00  0.00    +0.000 NA
ATOM     24  C   UNL     1      48.634   4.646  20.779  0.00  0.00    +0.000 A 
ATOM     25  N   UNL     1      48.601   5.965  20.948  0.00  0.00    +0.000 NA
ATOM     26  C   UNL     1      48.697   6.646  19.794  0.00  0.00    +0.000 A 
ATOM     27  S   UNL     1      48.642   8.343  19.804  0.00  0.00    +0.000 S 
ATOM     28  C   UNL     1      48.851   8.410  18.115  0.00  0.00    +0.000 A 
ATOM     29  C   UNL     1      48.983   7.165  17.513  0.00  0.00    +0.000 A 
ATOM     30  C   UNL     1      48.834   6.110  18.517  0.00  0.00    +0.000 A 
BRANCH  22  32
ATOM     31  C   UNL     1      49.639   2.840  17.368  0.00  0.00    +0.000 C 
ATOM     32  O   UNL     1      48.866   4.033  17.291  0.00  0.00    +0.000 OA
ENDBRANCH  22  32
ENDBRANCH  18  29
ENDBRANCH   1  20
TORSDOF 8
ENDMDL
MODEL 3
REMARK VINA RESULT:    -7.256      2.403      3.247
REMARK INTER + INTRA:         -12.051
REMARK INTER:                 -10.789
REMARK INTRA:                  -1.261
REMARK UNBOUND:                -1.401
REMARK  Name = 
REMARK  10 active torsions:
REMARK  status: ('A' for Active; 'I' for Inactive)
REMARK    1  A    between atoms: C_1  and  O_2
REMARK    2  A    between atoms: O_2  and  C_3
REMARK    3  A    between atoms: C_10  and  C_11
REMARK    4  A    between atoms: N_13  and  C_14
REMARK    5  A    between atoms: C_14  and  C_15
REMARK    6  A    between atoms: C_18  and  C_19
REMARK    7  A    between atoms: C_19  and  O_20
REMARK    8  A    between atoms: O_20  and  C_21
REMARK    9  A    between atoms: C_21  and  C_22
REMARK   10  A    between atoms: C_21  and  C_23
REMARK                            x       y       z     vdW  Elec       q    Type
REMARK                         _______ _______ _______ _____ _____    ______ ____
ROOT
ATOM      1  C   UNL     1      48.303   6.604  13.804  0.00  0.00    +0.000 C 
ENDROOT
BRANCH   1   2
ATOM      2  C   UNL     1      47.056   6.247  13.026  0.00  0.00    +0.000 A 
ATOM      3  C   UNL     1      46.835   6.778  11.749  0.00  0.00    +0.000 A 
ATOM      4  C   UNL     1      45.776   6.320  10.954  0.00  0.00    +0.000 A 
ATOM      5  C   UNL     1      44.877   5.357  11.433  0.00  0.00    +0.000 A 
ATOM      6  C   UNL     1      45.035   4.902  12.749  0.00  0.00    +0.000 A 
ATOM      7  C   UNL     1      46.116   5.337  13.534  0.00  0.00    +0.000 A 
BRANCH   5   8
ATOM      8  C   UNL     1      43.736   4.879  10.562  0.00  0.00    +0.000 C 
BRANCH   8   9
ATOM      9  O   UNL     1      44.242   4.334   9.340  0.00  0.00    +0.000 OA
BRANCH   9  10
ATOM     10  C   UNL     1      45.024   3.134   9.505  0.00  0.00    +0.000 C 
ATOM     11  C   UNL     1      44.138   1.927   9.827  0.00  0.00    +0.000 C 
BRANCH  10  12
ATOM     12  C   UNL     1      45.814   2.828   8.232  0.00  0.00    +0.000 A 
ATOM     13  C   UNL     1      46.403   1.578   8.030  0.00  0.00    +0.000 A 
ATOM     14  C   UNL     1      47.182   1.362   6.894  0.00  0.00    +0.000 A 
ATOM     15  C   UNL     1      47.360   2.394   5.984  0.00  0.00    +0.000 A 
ATOM     16  C   UNL     1      46.743   3.606   6.249  0.00  0.00    +0.000 A 
ATOM     17  N   UNL     1      45.986   3.847   7.346  0.00  0.00    +0.000 NA
ENDBRANCH  10  12
ENDBRANCH   9  10
ENDBRANCH   8   9
ENDBRANCH   5   8
ENDBRANCH   1   2
BRANCH   1  20
ATOM     18  C   UNL     1      48.965   6.613  16.184  0.00  0.00    +0.000 C 
ATOM     19  O   UNL     1      50.072   6.133  15.921  0.00  0.00    +0.000 OA
ATOM     20  N   UNL     1      48.049   6.870  15.199  0.00  0.00    +0.000 N 
ATOM     21  H   UNL     1      47.179   7.327  15.428  0.00  0.00    +0.000 HD
BRANCH  18  29
ATOM     22  C   UNL     1      47.955   9.474  17.780  0.00  0.00    +0.000 A 
ATOM     23  N   UNL     1      47.426  10.413  18.589  0.00  0.00    +0.000 NA
ATOM     24  C   UNL     1      47.084  10.048  19.827  0.00  0.00    +0.000 A 
ATOM     25  N   UNL     1      47.234   8.846  20.378  0.00  0.00    +0.000 NA
ATOM     26  C   UNL     1      47.754   7.940  19.532  0.00  0.00    +0.000 A 
ATOM     27  S   UNL     1      48.048   6.355  20.063  0.00  0.00    +0.000 S 
ATOM     28  C   UNL     1      48.612   5.890  18.526  0.00  0.00    +0.000 A 
ATOM     29  C   UNL     1      48.575   6.907  17.580  0.00  0.00    +0.000 A 
ATOM     30  C   UNL     1      48.114   8.148  18.204  0.00  0.00    +0.000 A 
BRANCH  22  32
ATOM     31  C   UNL     1      49.689  10.205  16.393  0.00  0.00    +0.000 C 
ATOM     32  O   UNL     1      48.316   9.848  16.504  0.00  0.00    +0.000 OA
ENDBRANCH  22  32
ENDBRANCH  18  29
ENDBRANCH   1  20
TORSDOF 8
ENDMDL
MODEL 4
REMARK VINA RESULT:    -7.207      1.691      2.002
REMARK INTER + INTRA:         -11.978
REMARK INTER:                 -10.662
REMARK INTRA:                  -1.316
REMARK UNBOUND:                -1.401
REMARK  Name = 
REMARK  10 active torsions:
REMARK  status: ('A' for Active; 'I' for Inactive)
REMARK    1  A    between atoms: C_1  and  O_2
REMARK    2  A    between atoms: O_2  and  C_3
REMARK    3  A    between atoms: C_10  and  C_11
REMARK    4  A    between atoms: N_13  and  C_14
REMARK    5  A    between atoms: C_14  and  C_15
REMARK    6  A    between atoms: C_18  and  C_19
REMARK    7  A    between atoms: C_19  and  O_20
REMARK    8  A    between atoms: O_20  and  C_21
REMARK    9  A    between atoms: C_21  and  C_22
REMARK   10  A    between atoms: C_21  and  C_23
REMARK                            x       y       z     vdW  Elec       q    Type
REMARK                         _______ _______ _______ _____ _____    ______ ____
ROOT
ATOM      1  C   UNL     1      48.063   7.403  14.397  0.00  0.00    +0.000 C 
ENDROOT
BRANCH   1   2
ATOM      2  C   UNL     1      47.214   6.652  13.394  0.00  0.00    +0.000 A 
ATOM      3  C   UNL     1      46.671   5.401  13.715  0.00  0.00    +0.000 A 
ATOM      4  C   UNL     1      45.747   4.780  12.865  0.00  0.00    +0.000 A 
ATOM      5  C   UNL     1      45.379   5.367  11.646  0.00  0.00    +0.000 A 
ATOM      6  C   UNL     1      46.000   6.567  11.276  0.00  0.00    +0.000 A 
ATOM      7  C   UNL     1      46.903   7.206  12.144  0.00  0.00    +0.000 A 
BRANCH   5   8
ATOM      8  C   UNL     1      44.383   4.678  10.738  0.00  0.00    +0.000 C 
BRANCH   8   9
ATOM      9  O   UNL     1      45.002   4.341   9.494  0.00  0.00    +0.000 OA
BRANCH   9  10
ATOM     10  C   UNL     1      45.415   2.964   9.391  0.00  0.00    +0.000 C 
ATOM     11  C   UNL     1      44.226   2.009   9.529  0.00  0.00    +0.000 C 
BRANCH  10  12
ATOM     12  C   UNL     1      46.090   2.703   8.043  0.00  0.00    +0.000 A 
ATOM     13  C   UNL     1      46.704   1.480   7.767  0.00  0.00    +0.000 A 
ATOM     14  C   UNL     1      47.376   1.308   6.558  0.00  0.00    +0.000 A 
ATOM     15  C   UNL     1      47.425   2.356   5.650  0.00  0.00    +0.000 A 
ATOM     16  C   UNL     1      46.791   3.540   5.992  0.00  0.00    +0.000 A 
ATOM     17  N   UNL     1      46.135   3.738   7.161  0.00  0.00    +0.000 NA
ENDBRANCH  10  12
ENDBRANCH   9  10
ENDBRANCH   8   9
ENDBRANCH   5   8
ENDBRANCH   1   2
BRANCH   1  20
ATOM     18  C   UNL     1      49.318   6.759  16.425  0.00  0.00    +0.000 C 
ATOM     19  O   UNL     1      48.836   7.695  17.070  0.00  0.00    +0.000 OA
ATOM     20  N   UNL     1      48.985   6.556  15.113  0.00  0.00    +0.000 N 
ATOM     21  H   UNL     1      49.335   5.744  14.624  0.00  0.00    +0.000 HD
BRANCH  18  29
ATOM     22  C   UNL     1      49.444   3.346  16.720  0.00  0.00    +0.000 A 
ATOM     23  N   UNL     1      49.781   2.048  16.853  0.00  0.00    +0.000 NA
ATOM     24  C   UNL     1      50.968   1.765  17.395  0.00  0.00    +0.000 A 
ATOM     25  N   UNL     1      51.865   2.633  17.857  0.00  0.00    +0.000 NA
ATOM     26  C   UNL     1      51.492   3.914  17.694  0.00  0.00    +0.000 A 
ATOM     27  S   UNL     1      52.494   5.166  18.249  0.00  0.00    +0.000 S 
ATOM     28  C   UNL     1      51.417   6.352  17.673  0.00  0.00    +0.000 A 
ATOM     29  C   UNL     1      50.294   5.834  17.039  0.00  0.00    +0.000 A 
ATOM     30  C   UNL     1      50.317   4.372  17.105  0.00  0.00    +0.000 A 
BRANCH  22  32
ATOM     31  C   UNL     1      47.138   3.473  17.079  0.00  0.00    +0.000 C 
ATOM     32  O   UNL     1      48.218   3.643  16.168  0.00  0.00    +0.000 OA
ENDBRANCH  22  32
ENDBRANCH  18  29
ENDBRANCH   1  20
TORSDOF 8
ENDMDL
MODEL 5
REMARK VINA RESULT:    -6.984      4.955      9.561
REMARK INTER + INTRA:         -11.651
REMARK INTER:                 -10.731
REMARK INTRA:                  -0.920
REMARK UNBOUND:                -1.401
REMARK  Name = 
REMARK  10 active torsions:
REMARK  status: ('A' for Active; 'I' for Inactive)
REMARK    1  A    between atoms: C_1  and  O_2
REMARK    2  A    between atoms: O_2  and  C_3
REMARK    3  A    between atoms: C_10  and  C_11
REMARK    4  A    between atoms: N_13  and  C_14
REMARK    5  A    between atoms: C_14  and  C_15
REMARK    6  A    between atoms: C_18  and  C_19
REMARK    7  A    between atoms: C_19  and  O_20
REMARK    8  A    between atoms: O_20  and  C_21
REMARK    9  A    between atoms: C_21  and  C_22
REMARK   10  A    between atoms: C_21  and  C_23
REMARK                            x       y       z     vdW  Elec       q    Type
REMARK                         _______ _______ _______ _____ _____    ______ ____
ROOT
ATOM      1  C   UNL     1      47.190   3.452  16.838  0.00  0.00    +0.000 C 
ENDROOT
BRANCH   1   2
ATOM      2  C   UNL     1      48.683   3.337  17.056  0.00  0.00    +0.000 A 
ATOM      3  C   UNL     1      49.439   4.458  17.419  0.00  0.00    +0.000 A 
ATOM      4  C   UNL     1      50.784   4.327  17.792  0.00  0.00    +0.000 A 
ATOM      5  C   UNL     1      51.424   3.081  17.761  0.00  0.00    +0.000 A 
ATOM      6  C   UNL     1      50.697   1.976  17.297  0.00  0.00    +0.000 A 
ATOM      7  C   UNL     1      49.340   2.101  16.955  0.00  0.00    +0.000 A 
BRANCH   5   8
ATOM      8  C   UNL     1      52.879   2.960  18.161  0.00  0.00    +0.000 C 
BRANCH   8   9
ATOM      9  O   UNL     1      53.206   1.593  18.426  0.00  0.00    +0.000 OA
BRANCH   9  10
ATOM     10  C   UNL     1      54.144   1.016  17.497  0.00  0.00    +0.000 C 
ATOM     11  C   UNL     1      55.508   1.710  17.573  0.00  0.00    +0.000 C 
BRANCH  10  12
ATOM     12  C   UNL     1      54.343  -0.472  17.785  0.00  0.00    +0.000 A 
ATOM     13  C   UNL     1      54.946  -1.316  16.850  0.00  0.00    +0.000 A 
ATOM     14  C   UNL     1      55.038  -2.681  17.117  0.00  0.00    +0.000 A 
ATOM     15  C   UNL     1      54.527  -3.178  18.307  0.00  0.00    +0.000 A 
ATOM     16  C   UNL     1      53.944  -2.282  19.188  0.00  0.00    +0.000 A 
ATOM     17  N   UNL     1      53.836  -0.952  18.953  0.00  0.00    +0.000 NA
ENDBRANCH  10  12
ENDBRANCH   9  10
ENDBRANCH   8   9
ENDBRANCH   5   8
ENDBRANCH   1   2
BRANCH   1  20
ATOM     18  C   UNL     1      46.885   4.218  14.509  0.00  0.00    +0.000 C 
ATOM     19  O   UNL     1      47.249   3.127  14.059  0.00  0.00    +0.000 OA
ATOM     20  N   UNL     1      46.832   4.449  15.857  0.00  0.00    +0.000 N 
ATOM     21  H   UNL     1      46.465   5.323  16.205  0.00  0.00    +0.000 HD
BRANCH  18  29
ATOM     22  C   UNL     1      44.136   4.830  12.554  0.00  0.00    +0.000 A 
ATOM     23  N   UNL     1      43.133   5.349  11.820  0.00  0.00    +0.000 NA
ATOM     24  C   UNL     1      43.298   6.577  11.320  0.00  0.00    +0.000 A 
ATOM     25  N   UNL     1      44.371   7.353  11.440  0.00  0.00    +0.000 NA
ATOM     26  C   UNL     1      45.341   6.800  12.189  0.00  0.00    +0.000 A 
ATOM     27  S   UNL     1      46.802   7.629  12.431  0.00  0.00    +0.000 S 
ATOM     28  C   UNL     1      47.403   6.382  13.423  0.00  0.00    +0.000 A 
ATOM     29  C   UNL     1      46.515   5.329  13.606  0.00  0.00    +0.000 A 
ATOM     30  C   UNL     1      45.304   5.559  12.818  0.00  0.00    +0.000 A 
BRANCH  22  32
ATOM     31  C   UNL     1      43.472   2.633  12.112  0.00  0.00    +0.000 C 
ATOM     32  O   UNL     1      43.974   3.562  13.066  0.00  0.00    +0.000 OA
ENDBRANCH  22  32
ENDBRANCH  18  29
ENDBRANCH   1  20
TORSDOF 8
ENDMDL
MODEL 6
REMARK VINA RESULT:    -6.781      3.941      8.986
REMARK INTER + INTRA:         -11.353
REMARK INTER:                  -9.972
REMARK INTRA:                  -1.382
REMARK UNBOUND:                -1.401
REMARK  Name = 
REMARK  10 active torsions:
REMARK  status: ('A' for Active; 'I' for Inactive)
REMARK    1  A    between atoms: C_1  and  O_2
REMARK    2  A    between atoms: O_2  and  C_3
REMARK    3  A    between atoms: C_10  and  C_11
REMARK    4  A    between atoms: N_13  and  C_14
REMARK    5  A    between atoms: C_14  and  C_15
REMARK    6  A    between atoms: C_18  and  C_19
REMARK    7  A    between atoms: C_19  and  O_20
REMARK    8  A    between atoms: O_20  and  C_21
REMARK    9  A    between atoms: C_21  and  C_22
REMARK   10  A    between atoms: C_21  and  C_23
REMARK                            x       y       z     vdW  Elec       q    Type
REMARK                         _______ _______ _______ _____ _____    ______ ____
ROOT
ATOM      1  C   UNL     1      47.348   3.457  16.789  0.00  0.00    +0.000 C 
ENDROOT
BRANCH   1   2
ATOM      2  C   UNL     1      48.843   3.335  16.995  0.00  0.00    +0.000 A 
ATOM      3  C   UNL     1      49.601   4.445  17.390  0.00  0.00    +0.000 A 
ATOM      4  C   UNL     1      50.947   4.303  17.750  0.00  0.00    +0.000 A 
ATOM      5  C   UNL     1      51.587   3.059  17.677  0.00  0.00    +0.000 A 
ATOM      6  C   UNL     1      50.859   1.968  17.182  0.00  0.00    +0.000 A 
ATOM      7  C   UNL     1      49.500   2.104  16.852  0.00  0.00    +0.000 A 
BRANCH   5   8
ATOM      8  C   UNL     1      53.045   2.926  18.065  0.00  0.00    +0.000 C 
BRANCH   8   9
ATOM      9  O   UNL     1      53.617   4.219  18.281  0.00  0.00    +0.000 OA
BRANCH   9  10
ATOM     10  C   UNL     1      54.867   4.437  17.596  0.00  0.00    +0.000 C 
ATOM     11  C   UNL     1      55.411   3.137  16.996  0.00  0.00    +0.000 C 
BRANCH  10  12
ATOM     12  C   UNL     1      54.694   5.454  16.468  0.00  0.00    +0.000 A 
ATOM     13  C   UNL     1      53.668   6.401  16.500  0.00  0.00    +0.000 A 
ATOM     14  C   UNL     1      53.493   7.260  15.415  0.00  0.00    +0.000 A 
ATOM     15  C   UNL     1      54.343   7.158  14.323  0.00  0.00    +0.000 A 
ATOM     16  C   UNL     1      55.339   6.197  14.363  0.00  0.00    +0.000 A 
ATOM     17  N   UNL     1      55.528   5.345  15.399  0.00  0.00    +0.000 NA
ENDBRANCH  10  12
ENDBRANCH   9  10
ENDBRANCH   8   9
ENDBRANCH   5   8
ENDBRANCH   1   2
BRANCH   1  20
ATOM     18  C   UNL     1      46.953   4.231  14.477  0.00  0.00    +0.000 C 
ATOM     19  O   UNL     1      47.236   3.122  14.013  0.00  0.00    +0.000 OA
ATOM     20  N   UNL     1      46.986   4.467  15.825  0.00  0.00    +0.000 N 
ATOM     21  H   UNL     1      46.682   5.359  16.188  0.00  0.00    +0.000 HD
BRANCH  18  29
ATOM     22  C   UNL     1      44.167   4.928  12.604  0.00  0.00    +0.000 A 
ATOM     23  N   UNL     1      43.158   5.478  11.900  0.00  0.00    +0.000 NA
ATOM     24  C   UNL     1      43.342   6.704  11.402  0.00  0.00    +0.000 A 
ATOM     25  N   UNL     1      44.440   7.450  11.495  0.00  0.00    +0.000 NA
ATOM     26  C   UNL     1      45.415   6.866  12.213  0.00  0.00    +0.000 A 
ATOM     27  S   UNL     1      46.904   7.654  12.418  0.00  0.00    +0.000 S 
ATOM     28  C   UNL     1      47.499   6.385  13.387  0.00  0.00    +0.000 A 
ATOM     29  C   UNL     1      46.588   5.356  13.590  0.00  0.00    +0.000 A 
ATOM     30  C   UNL     1      45.361   5.623  12.838  0.00  0.00    +0.000 A 
BRANCH  22  32
ATOM     31  C   UNL     1      43.506   2.733  12.148  0.00  0.00    +0.000 C 
ATOM     32  O   UNL     1      43.985   3.662  13.114  0.00  0.00    +0.000 OA
ENDBRANCH  22  32
ENDBRANCH  18  29
ENDBRANCH   1  20
TORSDOF 8
ENDMDL
MODEL 7
REMARK VINA RESULT:    -6.202      3.541      4.851
REMARK INTER + INTRA:         -10.504
REMARK INTER:                  -9.612
REMARK INTRA:                  -0.891
REMARK UNBOUND:                -1.401
REMARK  Name = 
REMARK  10 active torsions:
REMARK  status: ('A' for Active; 'I' for Inactive)
REMARK    1  A    between atoms: C_1  and  O_2
REMARK    2  A    between atoms: O_2  and  C_3
REMARK    3  A    between atoms: C_10  and  C_11
REMARK    4  A    between atoms: N_13  and  C_14
REMARK    5  A    between atoms: C_14  and  C_15
REMARK    6  A    between atoms: C_18  and  C_19
REMARK    7  A    between atoms: C_19  and  O_20
REMARK    8  A    between atoms: O_20  and  C_21
REMARK    9  A    between atoms: C_21  and  C_22
REMARK   10  A    between atoms: C_21  and  C_23
REMARK                            x       y       z     vdW  Elec       q    Type
REMARK                         _______ _______ _______ _____ _____    ______ ____
ROOT
ATOM      1  C   UNL     1      47.877   7.799  13.691  0.00  0.00    +0.000 C 
ENDROOT
BRANCH   1   2
ATOM      2  C   UNL     1      47.049   6.711  13.042  0.00  0.00    +0.000 A 
ATOM      3  C   UNL     1      46.825   5.496  13.703  0.00  0.00    +0.000 A 
ATOM      4  C   UNL     1      45.921   4.556  13.189  0.00  0.00    +0.000 A 
ATOM      5  C   UNL     1      45.256   4.780  11.976  0.00  0.00    +0.000 A 
ATOM      6  C   UNL     1      45.559   5.948  11.262  0.00  0.00    +0.000 A 
ATOM      7  C   UNL     1      46.441   6.905  11.793  0.00  0.00    +0.000 A 
BRANCH   5   8
ATOM      8  C   UNL     1      44.288   3.750  11.435  0.00  0.00    +0.000 C 
BRANCH   8   9
ATOM      9  O   UNL     1      44.982   2.804  10.616  0.00  0.00    +0.000 OA
BRANCH   9  10
ATOM     10  C   UNL     1      44.551   2.782   9.240  0.00  0.00    +0.000 C 
ATOM     11  C   UNL     1      44.029   4.150   8.794  0.00  0.00    +0.000 C 
BRANCH  10  12
ATOM     12  C   UNL     1      45.705   2.381   8.321  0.00  0.00    +0.000 A 
ATOM     13  C   UNL     1      46.273   3.296   7.432  0.00  0.00    +0.000 A 
ATOM     14  C   UNL     1      47.270   2.872   6.555  0.00  0.00    +0.000 A 
ATOM     15  C   UNL     1      47.679   1.547   6.579  0.00  0.00    +0.000 A 
ATOM     16  C   UNL     1      47.072   0.696   7.488  0.00  0.00    +0.000 A 
ATOM     17  N   UNL     1      46.098   1.078   8.348  0.00  0.00    +0.000 NA
ENDBRANCH  10  12
ENDBRANCH   9  10
ENDBRANCH   8   9
ENDBRANCH   5   8
ENDBRANCH   1   2
BRANCH   1  20
ATOM     18  C   UNL     1      49.995   8.970  13.197  0.00  0.00    +0.000 C 
ATOM     19  O   UNL     1      49.530  10.053  13.566  0.00  0.00    +0.000 OA
ATOM     20  N   UNL     1      49.244   7.826  13.231  0.00  0.00    +0.000 N 
ATOM     21  H   UNL     1      49.665   6.940  12.993  0.00  0.00    +0.000 HD
BRANCH  18  29
ATOM     22  C   UNL     1      52.958   7.989  14.615  0.00  0.00    +0.000 A 
ATOM     23  N   UNL     1      54.197   7.542  14.898  0.00  0.00    +0.000 NA
ATOM     24  C   UNL     1      55.098   7.538  13.912  0.00  0.00    +0.000 A 
ATOM     25  N   UNL     1      54.920   7.961  12.663  0.00  0.00    +0.000 NA
ATOM     26  C   UNL     1      53.669   8.387  12.424  0.00  0.00    +0.000 A 
ATOM     27  S   UNL     1      53.257   8.993  10.893  0.00  0.00    +0.000 S 
ATOM     28  C   UNL     1      51.644   9.250  11.372  0.00  0.00    +0.000 A 
ATOM     29  C   UNL     1      51.377   8.872  12.682  0.00  0.00    +0.000 A 
ATOM     30  C   UNL     1      52.607   8.408  13.324  0.00  0.00    +0.000 A 
BRANCH  22  32
ATOM     31  C   UNL     1      51.748   6.707  16.150  0.00  0.00    +0.000 C 
ATOM     32  O   UNL     1      52.027   8.003  15.630  0.00  0.00    +0.000 OA
ENDBRANCH  22  32
ENDBRANCH  18  29
ENDBRANCH   1  20
TORSDOF 8
ENDMDL
MODEL 8
REMARK VINA RESULT:    -6.194      3.808      9.416
REMARK INTER + INTRA:         -10.492
REMARK INTER:                  -8.998
REMARK INTRA:                  -1.494
REMARK UNBOUND:                -1.401
REMARK  Name = 
REMARK  10 active torsions:
REMARK  status: ('A' for Active; 'I' for Inactive)
REMARK    1  A    between atoms: C_1  and  O_2
REMARK    2  A    between atoms: O_2  and  C_3
REMARK    3  A    between atoms: C_10  and  C_11
REMARK    4  A    between atoms: N_13  and  C_14
REMARK    5  A    between atoms: C_14  and  C_15
REMARK    6  A    between atoms: C_18  and  C_19
REMARK    7  A    between atoms: C_19  and  O_20
REMARK    8  A    between atoms: O_20  and  C_21
REMARK    9  A    between atoms: C_21  and  C_22
REMARK   10  A    between atoms: C_21  and  C_23
REMARK                            x       y       z     vdW  Elec       q    Type
REMARK                         _______ _______ _______ _____ _____    ______ ____
ROOT
ATOM      1  C   UNL     1      47.406   3.540  16.483  0.00  0.00    +0.000 C 
ENDROOT
BRANCH   1   2
ATOM      2  C   UNL     1      48.066   4.196  17.676  0.00  0.00    +0.000 A 
ATOM      3  C   UNL     1      49.389   3.886  18.020  0.00  0.00    +0.000 A 
ATOM      4  C   UNL     1      50.062   4.612  19.011  0.00  0.00    +0.000 A 
ATOM      5  C   UNL     1      49.417   5.633  19.722  0.00  0.00    +0.000 A 
ATOM      6  C   UNL     1      48.063   5.873  19.453  0.00  0.00    +0.000 A 
ATOM      7  C   UNL     1      47.397   5.167  18.436  0.00  0.00    +0.000 A 
BRANCH   5   8
ATOM      8  C   UNL     1      50.159   6.403  20.794  0.00  0.00    +0.000 C 
BRANCH   8   9
ATOM      9  O   UNL     1      49.536   7.671  21.011  0.00  0.00    +0.000 OA
BRANCH   9  10
ATOM     10  C   UNL     1      50.227   8.783  20.408  0.00  0.00    +0.000 C 
ATOM     11  C   UNL     1      51.714   8.477  20.208  0.00  0.00    +0.000 C 
BRANCH  10  12
ATOM     12  C   UNL     1      49.617   9.124  19.048  0.00  0.00    +0.000 A 
ATOM     13  C   UNL     1      48.340   9.681  18.948  0.00  0.00    +0.000 A 
ATOM     14  C   UNL     1      47.786   9.905  17.689  0.00  0.00    +0.000 A 
ATOM     15  C   UNL     1      48.513   9.569  16.556  0.00  0.00    +0.000 A 
ATOM     16  C   UNL     1      49.774   9.022  16.732  0.00  0.00    +0.000 A 
ATOM     17  N   UNL     1      50.335   8.788  17.943  0.00  0.00    +0.000 NA
ENDBRANCH  10  12
ENDBRANCH   9  10
ENDBRANCH   8   9
ENDBRANCH   5   8
ENDBRANCH   1   2
BRANCH   1  20
ATOM     18  C   UNL     1      46.793   4.238  14.194  0.00  0.00    +0.000 C 
ATOM     19  O   UNL     1      47.194   3.172  13.717  0.00  0.00    +0.000 OA
ATOM     20  N   UNL     1      46.865   4.487  15.538  0.00  0.00    +0.000 N 
ATOM     21  H   UNL     1      46.467   5.334  15.916  0.00  0.00    +0.000 HD
BRANCH  18  29
ATOM     22  C   UNL     1      43.819   4.580  12.522  0.00  0.00    +0.000 A 
ATOM     23  N   UNL     1      42.707   5.000  11.889  0.00  0.00    +0.000 NA
ATOM     24  C   UNL     1      42.712   6.230  11.368  0.00  0.00    +0.000 A 
ATOM     25  N   UNL     1      43.720   7.098  11.376  0.00  0.00    +0.000 NA
ATOM     26  C   UNL     1      44.804   6.642  12.026  0.00  0.00    +0.000 A 
ATOM     27  S   UNL     1      46.204   7.598  12.116  0.00  0.00    +0.000 S 
ATOM     28  C   UNL     1      47.008   6.423  13.049  0.00  0.00    +0.000 A 
ATOM     29  C   UNL     1      46.239   5.299  13.326  0.00  0.00    +0.000 A 
ATOM     30  C   UNL     1      44.939   5.412  12.663  0.00  0.00    +0.000 A 
BRANCH  22  32
ATOM     31  C   UNL     1      43.476   2.306  12.108  0.00  0.00    +0.000 C 
ATOM     32  O   UNL     1      43.822   3.310  13.055  0.00  0.00    +0.000 OA
ENDBRANCH  22  32
ENDBRANCH  18  29
ENDBRANCH   1  20
TORSDOF 8
ENDMDL
