MODEL 1
REMARK VINA RESULT:    -8.836      0.000      0.000
REMARK INTER + INTRA:         -12.105
REMARK INTER:                 -11.419
REMARK INTRA:                  -0.686
REMARK UNBOUND:                -0.686
REMARK  Name = 
REMARK  5 active torsions:
REMARK  status: ('A' for Active; 'I' for Inactive)
REMARK    1  A    between atoms: C_2  and  C_4
REMARK    2  A    between atoms: C_7  and  N_8
REMARK    3  A    between atoms: N_8  and  C_9
REMARK    4  A    between atoms: C_9  and  C_10
REMARK    5  A    between atoms: C_15  and  C_16
REMARK                            x       y       z     vdW  Elec       q    Type
REMARK                         _______ _______ _______ _____ _____    ______ ____
ROOT
ATOM      1  C   UNL     1      43.645   4.538  11.151  0.00  0.00    +0.000 C 
ENDROOT
BRANCH   1   2
ATOM      2  C   UNL     1      44.918   4.883  11.897  0.00  0.00    +0.000 A 
ATOM      3  C   UNL     1      45.499   3.976  12.786  0.00  0.00    +0.000 A 
ATOM      4  C   UNL     1      46.669   4.322  13.450  0.00  0.00    +0.000 A 
ATOM      5  F   UNL     1      47.221   3.449  14.305  0.00  0.00    +0.000 F 
ATOM      6  C   UNL     1      47.283   5.557  13.248  0.00  0.00    +0.000 A 
ATOM      7  C   UNL     1      46.724   6.504  12.375  0.00  0.00    +0.000 A 
ATOM      8  C   UNL     1      45.529   6.140  11.717  0.00  0.00    +0.000 A 
BRANCH   7   9
ATOM      9  C   UNL     1      47.356   7.826  12.153  0.00  0.00    +0.000 A 
ATOM     10  C   UNL     1      48.702   7.960  11.775  0.00  0.00    +0.000 A 
ATOM     11  C   UNL     1      49.264   9.220  11.561  0.00  0.00    +0.000 A 
ATOM     12  C   UNL     1      48.467  10.334  11.742  0.00  0.00    +0.000 A 
ATOM     13  N   UNL     1      47.174  10.269  12.111  0.00  0.00    +0.000 NA
ATOM     14  C   UNL     1      46.656   9.028  12.300  0.00  0.00    +0.000 A 
ENDBRANCH   7   9
ENDBRANCH   1   2
BRANCH   1  15
ATOM     15  N   UNL     1      43.812   4.894   9.744  0.00  0.00    +0.000 N 
ATOM     16  H   UNL     1      44.086   5.866   9.635  0.00  0.00    +0.000 HD
BRANCH  15  20
ATOM     17  C   UNL     1      46.375   2.340   7.787  0.00  0.00    +0.000 A 
ATOM     18  C   UNL     1      46.437   3.707   7.569  0.00  0.00    +0.000 A 
ATOM     19  N   UNL     1      45.597   4.588   8.180  0.00  0.00    +0.000 NA
ATOM     20  C   UNL     1      44.679   4.064   9.021  0.00  0.00    +0.000 A 
ATOM     21  C   UNL     1      44.631   2.675   9.222  0.00  0.00    +0.000 A 
ATOM     22  N   UNL     1      45.456   1.779   8.618  0.00  0.00    +0.000 NA
BRANCH  17  24
ATOM     23  N   UNL     1      48.422   2.045   6.528  0.00  0.00    +0.000 N 
ATOM     24  C   UNL     1      47.349   1.435   7.118  0.00  0.00    +0.000 C 
ATOM     25  O   UNL     1      47.200   0.219   7.090  0.00  0.00    +0.000 OA
ATOM     26  H   UNL     1      49.109   1.484   6.043  0.00  0.00    +0.000 HD
ATOM     27  H   UNL     1      48.514   3.054   6.559  0.00  0.00    +0.000 HD
ENDBRANCH  17  24
ENDBRANCH  15  20
ENDBRANCH   1  15
TORSDOF 5
ENDMDL
MODEL 2
REMARK VINA RESULT:    -8.473      2.459      3.761
REMARK INTER + INTRA:         -11.635
REMARK INTER:                 -11.105
REMARK INTRA:                  -0.530
REMARK UNBOUND:                -0.686
REMARK  Name = 
REMARK  5 active torsions:
REMARK  status: ('A' for Active; 'I' for Inactive)
REMARK    1  A    between atoms: C_2  and  C_4
REMARK    2  A    between atoms: C_7  and  N_8
REMARK    3  A    between atoms: N_8  and  C_9
REMARK    4  A    between atoms: C_9  and  C_10
REMARK    5  A    between atoms: C_15  and  C_16
REMARK                            x       y       z     vdW  Elec       q    Type
REMARK                         _______ _______ _______ _____ _____    ______ ____
ROOT
ATOM      1  C   UNL     1      44.239   4.729  11.464  0.00  0.00    +0.000 C 
ENDROOT
BRANCH   1   2
ATOM      2  C   UNL     1      45.493   5.318  12.077  0.00  0.00    +0.000 A 
ATOM      3  C   UNL     1      46.206   6.329  11.426  0.00  0.00    +0.000 A 
ATOM      4  C   UNL     1      47.348   6.850  12.017  0.00  0.00    +0.000 A 
ATOM      5  F   UNL     1      48.030   7.818  11.387  0.00  0.00    +0.000 F 
ATOM      6  C   UNL     1      47.804   6.391  13.253  0.00  0.00    +0.000 A 
ATOM      7  C   UNL     1      47.127   5.366  13.934  0.00  0.00    +0.000 A 
ATOM      8  C   UNL     1      45.973   4.840  13.313  0.00  0.00    +0.000 A 
BRANCH   7   9
ATOM      9  C   UNL     1      47.599   4.858  15.243  0.00  0.00    +0.000 A 
ATOM     10  C   UNL     1      47.360   3.540  15.666  0.00  0.00    +0.000 A 
ATOM     11  C   UNL     1      47.829   3.087  16.900  0.00  0.00    +0.000 A 
ATOM     12  C   UNL     1      48.524   3.972  17.703  0.00  0.00    +0.000 A 
ATOM     13  N   UNL     1      48.777   5.248  17.355  0.00  0.00    +0.000 NA
ATOM     14  C   UNL     1      48.316   5.652  16.143  0.00  0.00    +0.000 A 
ENDBRANCH   7   9
ENDBRANCH   1   2
BRANCH   1  15
ATOM     15  N   UNL     1      44.211   5.055  10.041  0.00  0.00    +0.000 N 
ATOM     16  H   UNL     1      44.477   6.021   9.873  0.00  0.00    +0.000 HD
BRANCH  15  20
ATOM     17  C   UNL     1      46.447   2.427   7.802  0.00  0.00    +0.000 A 
ATOM     18  C   UNL     1      46.495   3.789   7.549  0.00  0.00    +0.000 A 
ATOM     19  N   UNL     1      45.759   4.693   8.252  0.00  0.00    +0.000 NA
ATOM     20  C   UNL     1      44.959   4.198   9.222  0.00  0.00    +0.000 A 
ATOM     21  C   UNL     1      44.922   2.815   9.456  0.00  0.00    +0.000 A 
ATOM     22  N   UNL     1      45.645   1.895   8.763  0.00  0.00    +0.000 NA
BRANCH  17  24
ATOM     23  N   UNL     1      48.435   2.042   6.473  0.00  0.00    +0.000 N 
ATOM     24  C   UNL     1      47.308   1.494   7.023  0.00  0.00    +0.000 C 
ATOM     25  O   UNL     1      47.026   0.312   6.877  0.00  0.00    +0.000 OA
ATOM     26  H   UNL     1      49.051   1.463   5.920  0.00  0.00    +0.000 HD
ATOM     27  H   UNL     1      48.638   3.027   6.603  0.00  0.00    +0.000 HD
ENDBRANCH  17  24
ENDBRANCH  15  20
ENDBRANCH   1  15
TORSDOF 5
ENDMDL
MODEL 3
REMARK VINA RESULT:    -7.936      3.223      7.024
REMARK INTER + INTRA:         -10.941
REMARK INTER:                 -10.263
REMARK INTRA:                  -0.678
REMARK UNBOUND:                -0.686
REMARK  Name = 
REMARK  5 active torsions:
REMARK  status: ('A' for Active; 'I' for Inactive)
REMARK    1  A    between atoms: C_2  and  C_4
REMARK    2  A    between atoms: C_7  and  N_8
REMARK    3  A    between atoms: N_8  and  C_9
REMARK    4  A    between atoms: C_9  and  C_10
REMARK    5  A    between atoms: C_15  and  C_16
REMARK                            x       y       z     vdW  Elec       q    Type
REMARK                         _______ _______ _______ _____ _____    ______ ____
ROOT
ATOM      1  C   UNL     1      44.596   6.595  11.067  0.00  0.00    +0.000 C 
ENDROOT
BRANCH   1   2
ATOM      2  C   UNL     1      44.522   5.134  10.675  0.00  0.00    +0.000 A 
ATOM      3  C   UNL     1      43.719   4.238  11.385  0.00  0.00    +0.000 A 
ATOM      4  C   UNL     1      43.669   2.907  10.996  0.00  0.00    +0.000 A 
ATOM      5  F   UNL     1      42.899   2.051  11.683  0.00  0.00    +0.000 F 
ATOM      6  C   UNL     1      44.401   2.438   9.906  0.00  0.00    +0.000 A 
ATOM      7  C   UNL     1      45.233   3.300   9.173  0.00  0.00    +0.000 A 
ATOM      8  C   UNL     1      45.279   4.649   9.589  0.00  0.00    +0.000 A 
BRANCH   7   9
ATOM      9  C   UNL     1      46.026   2.822   8.017  0.00  0.00    +0.000 A 
ATOM     10  C   UNL     1      46.322   3.644   6.918  0.00  0.00    +0.000 A 
ATOM     11  C   UNL     1      47.083   3.167   5.850  0.00  0.00    +0.000 A 
ATOM     12  C   UNL     1      47.527   1.859   5.893  0.00  0.00    +0.000 A 
ATOM     13  N   UNL     1      47.268   1.021   6.914  0.00  0.00    +0.000 NA
ATOM     14  C   UNL     1      46.535   1.521   7.942  0.00  0.00    +0.000 A 
ENDBRANCH   7   9
ENDBRANCH   1   2
BRANCH   1  15
ATOM     15  N   UNL     1      44.661   6.691  12.523  0.00  0.00    +0.000 N 
ATOM     16  H   UNL     1      44.187   5.911  12.970  0.00  0.00    +0.000 HD
BRANCH  15  20
ATOM     17  C   UNL     1      48.398   6.986  14.216  0.00  0.00    +0.000 A 
ATOM     18  C   UNL     1      47.764   8.108  13.706  0.00  0.00    +0.000 A 
ATOM     19  N   UNL     1      46.536   8.054  13.120  0.00  0.00    +0.000 NA
ATOM     20  C   UNL     1      45.952   6.838  13.050  0.00  0.00    +0.000 A 
ATOM     21  C   UNL     1      46.616   5.715  13.569  0.00  0.00    +0.000 A 
ATOM     22  N   UNL     1      47.844   5.746  14.153  0.00  0.00    +0.000 NA
BRANCH  17  24
ATOM     23  N   UNL     1      50.492   8.177  14.474  0.00  0.00    +0.000 N 
ATOM     24  C   UNL     1      49.724   7.120  14.881  0.00  0.00    +0.000 C 
ATOM     25  O   UNL     1      50.110   6.330  15.734  0.00  0.00    +0.000 OA
ATOM     26  H   UNL     1      51.409   8.310  14.876  0.00  0.00    +0.000 HD
ATOM     27  H   UNL     1      50.150   8.808  13.757  0.00  0.00    +0.000 HD
ENDBRANCH  17  24
ENDBRANCH  15  20
ENDBRANCH   1  15
TORSDOF 5
ENDMDL
MODEL 4
REMARK VINA RESULT:    -7.877      3.808      7.183
REMARK INTER + INTRA:         -10.865
REMARK INTER:                 -10.567
REMARK INTRA:                  -0.299
REMARK UNBOUND:                -0.686
REMARK  Name = 
REMARK  5 active torsions:
REMARK  status: ('A' for Active; 'I' for Inactive)
REMARK    1  A    between atoms: C_2  and  C_4
REMARK    2  A    between atoms: C_7  and  N_8
REMARK    3  A    between atoms: N_8  and  C_9
REMARK    4  A    between atoms: C_9  and  C_10
REMARK    5  A    between atoms: C_15  and  C_16
REMARK                            x       y       z     vdW  Elec       q    Type
REMARK                         _______ _______ _______ _____ _____    ______ ____
ROOT
ATOM      1  C   UNL     1      46.374   7.279  12.134  0.00  0.00    +0.000 C 
ENDROOT
BRANCH   1   2
ATOM      2  C   UNL     1      45.432   6.310  11.448  0.00  0.00    +0.000 A 
ATOM      3  C   UNL     1      44.071   6.288  11.757  0.00  0.00    +0.000 A 
ATOM      4  C   UNL     1      43.235   5.391  11.106  0.00  0.00    +0.000 A 
ATOM      5  F   UNL     1      41.929   5.373  11.409  0.00  0.00    +0.000 F 
ATOM      6  C   UNL     1      43.722   4.509  10.144  0.00  0.00    +0.000 A 
ATOM      7  C   UNL     1      45.087   4.486   9.813  0.00  0.00    +0.000 A 
ATOM      8  C   UNL     1      45.924   5.398  10.493  0.00  0.00    +0.000 A 
BRANCH   7   9
ATOM      9  C   UNL     1      45.627   3.550   8.799  0.00  0.00    +0.000 A 
ATOM     10  C   UNL     1      46.221   3.996   7.608  0.00  0.00    +0.000 A 
ATOM     11  C   UNL     1      46.732   3.089   6.678  0.00  0.00    +0.000 A 
ATOM     12  C   UNL     1      46.628   1.739   6.953  0.00  0.00    +0.000 A 
ATOM     13  N   UNL     1      46.062   1.252   8.073  0.00  0.00    +0.000 NA
ATOM     14  C   UNL     1      45.585   2.162   8.961  0.00  0.00    +0.000 A 
ENDBRANCH   7   9
ENDBRANCH   1   2
BRANCH   1  15
ATOM     15  N   UNL     1      47.607   6.576  12.477  0.00  0.00    +0.000 N 
ATOM     16  H   UNL     1      48.413   7.193  12.434  0.00  0.00    +0.000 HD
BRANCH  15  20
ATOM     17  C   UNL     1      47.333   4.563  16.054  0.00  0.00    +0.000 A 
ATOM     18  C   UNL     1      48.183   5.649  15.918  0.00  0.00    +0.000 A 
ATOM     19  N   UNL     1      48.320   6.333  14.749  0.00  0.00    +0.000 NA
ATOM     20  C   UNL     1      47.582   5.898  13.704  0.00  0.00    +0.000 A 
ATOM     21  C   UNL     1      46.732   4.793  13.864  0.00  0.00    +0.000 A 
ATOM     22  N   UNL     1      46.585   4.093  15.021  0.00  0.00    +0.000 NA
BRANCH  17  24
ATOM     23  N   UNL     1      47.762   4.532  18.438  0.00  0.00    +0.000 N 
ATOM     24  C   UNL     1      47.199   3.884  17.372  0.00  0.00    +0.000 C 
ATOM     25  O   UNL     1      46.628   2.807  17.498  0.00  0.00    +0.000 OA
ATOM     26  H   UNL     1      47.718   4.112  19.355  0.00  0.00    +0.000 HD
ATOM     27  H   UNL     1      48.237   5.417  18.301  0.00  0.00    +0.000 HD
ENDBRANCH  17  24
ENDBRANCH  15  20
ENDBRANCH   1  15
TORSDOF 5
ENDMDL
MODEL 5
REMARK VINA RESULT:    -7.826      2.073      2.651
REMARK INTER + INTRA:         -10.799
REMARK INTER:                 -10.121
REMARK INTRA:                  -0.678
REMARK UNBOUND:                -0.686
REMARK  Name = 
REMARK  5 active torsions:
REMARK  status: ('A' for Active; 'I' for Inactive)
REMARK    1  A    between atoms: C_2  and  C_4
REMARK    2  A    between atoms: C_7  and  N_8
REMARK    3  A    between atoms: N_8  and  C_9
REMARK    4  A    between atoms: C_9  and  C_10
REMARK    5  A    between atoms: C_15  and  C_16
REMARK                            x       y       z     vdW  Elec       q    Type
REMARK                         _______ _______ _______ _____ _____    ______ ____
ROOT
ATOM      1  C   UNL     1      44.519   4.907  11.443  0.00  0.00    +0.000 C 
ENDROOT
BRANCH   1   2
ATOM      2  C   UNL     1      45.074   6.309  11.592  0.00  0.00    +0.000 A 
ATOM      3  C   UNL     1      44.264   7.429  11.388  0.00  0.00    +0.000 A 
ATOM      4  C   UNL     1      44.803   8.700  11.537  0.00  0.00    +0.000 A 
ATOM      5  F   UNL     1      44.022   9.771  11.338  0.00  0.00    +0.000 F 
ATOM      6  C   UNL     1      46.138   8.887  11.891  0.00  0.00    +0.000 A 
ATOM      7  C   UNL     1      46.992   7.790  12.090  0.00  0.00    +0.000 A 
ATOM      8  C   UNL     1      46.429   6.505  11.924  0.00  0.00    +0.000 A 
BRANCH   7   9
ATOM      9  C   UNL     1      48.416   7.968  12.458  0.00  0.00    +0.000 A 
ATOM     10  C   UNL     1      49.345   8.565  11.592  0.00  0.00    +0.000 A 
ATOM     11  C   UNL     1      50.678   8.730  11.972  0.00  0.00    +0.000 A 
ATOM     12  C   UNL     1      51.065   8.278  13.220  0.00  0.00    +0.000 A 
ATOM     13  N   UNL     1      50.222   7.690  14.090  0.00  0.00    +0.000 NA
ATOM     14  C   UNL     1      48.930   7.557  13.692  0.00  0.00    +0.000 A 
ENDBRANCH   7   9
ENDBRANCH   1   2
BRANCH   1  15
ATOM     15  N   UNL     1      43.994   4.748  10.089  0.00  0.00    +0.000 N 
ATOM     16  H   UNL     1      43.747   5.643   9.677  0.00  0.00    +0.000 HD
BRANCH  15  20
ATOM     17  C   UNL     1      46.459   2.503   7.679  0.00  0.00    +0.000 A 
ATOM     18  C   UNL     1      46.413   3.882   7.553  0.00  0.00    +0.000 A 
ATOM     19  N   UNL     1      45.599   4.663   8.316  0.00  0.00    +0.000 NA
ATOM     20  C   UNL     1      44.819   4.026   9.215  0.00  0.00    +0.000 A 
ATOM     21  C   UNL     1      44.878   2.627   9.321  0.00  0.00    +0.000 A 
ATOM     22  N   UNL     1      45.679   1.829   8.567  0.00  0.00    +0.000 NA
BRANCH  17  24
ATOM     23  N   UNL     1      48.468   2.397   6.331  0.00  0.00    +0.000 N 
ATOM     24  C   UNL     1      47.400   1.710   6.842  0.00  0.00    +0.000 C 
ATOM     25  O   UNL     1      47.231   0.518   6.617  0.00  0.00    +0.000 OA
ATOM     26  H   UNL     1      49.132   1.917   5.741  0.00  0.00    +0.000 HD
ATOM     27  H   UNL     1      48.577   3.386   6.526  0.00  0.00    +0.000 HD
ENDBRANCH  17  24
ENDBRANCH  15  20
ENDBRANCH   1  15
TORSDOF 5
ENDMDL
MODEL 6
REMARK VINA RESULT:    -7.253      4.724      7.821
REMARK INTER + INTRA:         -10.059
REMARK INTER:                  -9.560
REMARK INTRA:                  -0.498
REMARK UNBOUND:                -0.686
REMARK  Name = 
REMARK  5 active torsions:
REMARK  status: ('A' for Active; 'I' for Inactive)
REMARK    1  A    between atoms: C_2  and  C_4
REMARK    2  A    between atoms: C_7  and  N_8
REMARK    3  A    between atoms: N_8  and  C_9
REMARK    4  A    between atoms: C_9  and  C_10
REMARK    5  A    between atoms: C_15  and  C_16
REMARK                            x       y       z     vdW  Elec       q    Type
REMARK                         _______ _______ _______ _____ _____    ______ ____
ROOT
ATOM      1  C   UNL     1      46.192   5.493  13.838  0.00  0.00    +0.000 C 
ENDROOT
BRANCH   1   2
ATOM      2  C   UNL     1      45.254   5.200  12.685  0.00  0.00    +0.000 A 
ATOM      3  C   UNL     1      43.908   5.570  12.739  0.00  0.00    +0.000 A 
ATOM      4  C   UNL     1      43.077   5.292  11.663  0.00  0.00    +0.000 A 
ATOM      5  F   UNL     1      41.786   5.647  11.722  0.00  0.00    +0.000 F 
ATOM      6  C   UNL     1      43.555   4.650  10.521  0.00  0.00    +0.000 A 
ATOM      7  C   UNL     1      44.897   4.246  10.430  0.00  0.00    +0.000 A 
ATOM      8  C   UNL     1      45.725   4.529  11.539  0.00  0.00    +0.000 A 
BRANCH   7   9
ATOM      9  C   UNL     1      45.423   3.556   9.230  0.00  0.00    +0.000 A 
ATOM     10  C   UNL     1      45.876   4.256   8.100  0.00  0.00    +0.000 A 
ATOM     11  C   UNL     1      46.379   3.577   6.989  0.00  0.00    +0.000 A 
ATOM     12  C   UNL     1      46.406   2.195   7.022  0.00  0.00    +0.000 A 
ATOM     13  N   UNL     1      45.978   1.470   8.072  0.00  0.00    +0.000 NA
ATOM     14  C   UNL     1      45.507   2.163   9.140  0.00  0.00    +0.000 A 
ENDBRANCH   7   9
ENDBRANCH   1   2
BRANCH   1  15
ATOM     15  N   UNL     1      46.117   4.395  14.798  0.00  0.00    +0.000 N 
ATOM     16  H   UNL     1      46.000   3.499  14.333  0.00  0.00    +0.000 HD
BRANCH  15  20
ATOM     17  C   UNL     1      49.359   4.282  17.328  0.00  0.00    +0.000 A 
ATOM     18  C   UNL     1      48.414   3.268  17.345  0.00  0.00    +0.000 A 
ATOM     19  N   UNL     1      47.316   3.274  16.540  0.00  0.00    +0.000 NA
ATOM     20  C   UNL     1      47.180   4.331  15.710  0.00  0.00    +0.000 A 
ATOM     21  C   UNL     1      48.147   5.348  15.714  0.00  0.00    +0.000 A 
ATOM     22  N   UNL     1      49.247   5.365  16.513  0.00  0.00    +0.000 NA
BRANCH  17  24
ATOM     23  N   UNL     1      50.318   4.265  19.551  0.00  0.00    +0.000 N 
ATOM     24  C   UNL     1      50.558   4.196  18.206  0.00  0.00    +0.000 C 
ATOM     25  O   UNL     1      51.691   4.079  17.756  0.00  0.00    +0.000 OA
ATOM     26  H   UNL     1      51.094   4.229  20.198  0.00  0.00    +0.000 HD
ATOM     27  H   UNL     1      49.370   4.372  19.895  0.00  0.00    +0.000 HD
ENDBRANCH  17  24
ENDBRANCH  15  20
ENDBRANCH   1  15
TORSDOF 5
ENDMDL
MODEL 7
REMARK VINA RESULT:    -6.905      5.444      7.897
REMARK INTER + INTRA:          -9.609
REMARK INTER:                  -8.937
REMARK INTRA:                  -0.672
REMARK UNBOUND:                -0.686
REMARK  Name = 
REMARK  5 active torsions:
REMARK  status: ('A' for Active; 'I' for Inactive)
REMARK    1  A    between atoms: C_2  and  C_4
REMARK    2  A    between atoms: C_7  and  N_8
REMARK    3  A    between atoms: N_8  and  C_9
REMARK    4  A    between atoms: C_9  and  C_10
REMARK    5  A    between atoms: C_15  and  C_16
REMARK                            x       y       z     vdW  Elec       q    Type
REMARK                         _______ _______ _______ _____ _____    ______ ____
ROOT
ATOM      1  C   UNL     1      48.668   6.551  15.842  0.00  0.00    +0.000 C 
ENDROOT
BRANCH   1   2
ATOM      2  C   UNL     1      48.215   6.624  14.398  0.00  0.00    +0.000 A 
ATOM      3  C   UNL     1      48.855   7.464  13.485  0.00  0.00    +0.000 A 
ATOM      4  C   UNL     1      48.418   7.503  12.168  0.00  0.00    +0.000 A 
ATOM      5  F   UNL     1      49.035   8.314  11.296  0.00  0.00    +0.000 F 
ATOM      6  C   UNL     1      47.353   6.718  11.730  0.00  0.00    +0.000 A 
ATOM      7  C   UNL     1      46.670   5.871  12.618  0.00  0.00    +0.000 A 
ATOM      8  C   UNL     1      47.122   5.852  13.957  0.00  0.00    +0.000 A 
BRANCH   7   9
ATOM      9  C   UNL     1      45.530   5.035  12.176  0.00  0.00    +0.000 A 
ATOM     10  C   UNL     1      44.751   5.362  11.055  0.00  0.00    +0.000 A 
ATOM     11  C   UNL     1      43.690   4.547  10.656  0.00  0.00    +0.000 A 
ATOM     12  C   UNL     1      43.417   3.414  11.401  0.00  0.00    +0.000 A 
ATOM     13  N   UNL     1      44.123   3.054  12.489  0.00  0.00    +0.000 NA
ATOM     14  C   UNL     1      45.155   3.864  12.842  0.00  0.00    +0.000 A 
ENDBRANCH   7   9
ENDBRANCH   1   2
BRANCH   1  15
ATOM     15  N   UNL     1      48.088   5.361  16.459  0.00  0.00    +0.000 N 
ATOM     16  H   UNL     1      47.344   4.969  15.889  0.00  0.00    +0.000 HD
BRANCH  15  20
ATOM     17  C   UNL     1      50.942   2.552  17.399  0.00  0.00    +0.000 A 
ATOM     18  C   UNL     1      49.715   2.166  16.884  0.00  0.00    +0.000 A 
ATOM     19  N   UNL     1      48.734   3.060  16.576  0.00  0.00    +0.000 NA
ATOM     20  C   UNL     1      49.010   4.362  16.803  0.00  0.00    +0.000 A 
ATOM     21  C   UNL     1      50.258   4.728  17.331  0.00  0.00    +0.000 A 
ATOM     22  N   UNL     1      51.248   3.852  17.649  0.00  0.00    +0.000 NA
BRANCH  17  24
ATOM     23  N   UNL     1      51.529   0.301  18.072  0.00  0.00    +0.000 N 
ATOM     24  C   UNL     1      51.987   1.528  17.677  0.00  0.00    +0.000 C 
ATOM     25  O   UNL     1      53.183   1.767  17.565  0.00  0.00    +0.000 OA
ATOM     26  H   UNL     1      52.191  -0.431  18.292  0.00  0.00    +0.000 HD
ATOM     27  H   UNL     1      50.533   0.135  18.165  0.00  0.00    +0.000 HD
ENDBRANCH  17  24
ENDBRANCH  15  20
ENDBRANCH   1  15
TORSDOF 5
ENDMDL
MODEL 8
REMARK VINA RESULT:    -6.496      5.695      7.417
REMARK INTER + INTRA:          -9.080
REMARK INTER:                  -8.549
REMARK INTRA:                  -0.532
REMARK UNBOUND:                -0.686
REMARK  Name = 
REMARK  5 active torsions:
REMARK  status: ('A' for Active; 'I' for Inactive)
REMARK    1  A    between atoms: C_2  and  C_4
REMARK    2  A    between atoms: C_7  and  N_8
REMARK    3  A    between atoms: N_8  and  C_9
REMARK    4  A    between atoms: C_9  and  C_10
REMARK    5  A    between atoms: C_15  and  C_16
REMARK                            x       y       z     vdW  Elec       q    Type
REMARK                         _______ _______ _______ _____ _____    ______ ____
ROOT
ATOM      1  C   UNL     1      47.154   4.163  16.204  0.00  0.00    +0.000 C 
ENDROOT
BRANCH   1   2
ATOM      2  C   UNL     1      48.331   4.413  17.125  0.00  0.00    +0.000 A 
ATOM      3  C   UNL     1      48.317   5.467  18.041  0.00  0.00    +0.000 A 
ATOM      4  C   UNL     1      49.409   5.665  18.874  0.00  0.00    +0.000 A 
ATOM      5  F   UNL     1      49.391   6.680  19.750  0.00  0.00    +0.000 F 
ATOM      6  C   UNL     1      50.526   4.831  18.822  0.00  0.00    +0.000 A 
ATOM      7  C   UNL     1      50.589   3.769  17.905  0.00  0.00    +0.000 A 
ATOM      8  C   UNL     1      49.473   3.589  17.058  0.00  0.00    +0.000 A 
BRANCH   7   9
ATOM      9  C   UNL     1      51.769   2.877  17.827  0.00  0.00    +0.000 A 
ATOM     10  C   UNL     1      51.660   1.515  17.503  0.00  0.00    +0.000 A 
ATOM     11  C   UNL     1      52.793   0.704  17.424  0.00  0.00    +0.000 A 
ATOM     12  C   UNL     1      54.026   1.271  17.686  0.00  0.00    +0.000 A 
ATOM     13  N   UNL     1      54.192   2.567  18.009  0.00  0.00    +0.000 NA
ATOM     14  C   UNL     1      53.070   3.330  18.066  0.00  0.00    +0.000 A 
ENDBRANCH   7   9
ENDBRANCH   1   2
BRANCH   1  15
ATOM     15  N   UNL     1      47.195   5.132  15.112  0.00  0.00    +0.000 N 
ATOM     16  H   UNL     1      48.150   5.375  14.864  0.00  0.00    +0.000 HD
BRANCH  15  20
ATOM     17  C   UNL     1      44.948   4.196  11.796  0.00  0.00    +0.000 A 
ATOM     18  C   UNL     1      45.582   3.201  12.523  0.00  0.00    +0.000 A 
ATOM     19  N   UNL     1      46.351   3.466  13.616  0.00  0.00    +0.000 NA
ATOM     20  C   UNL     1      46.477   4.765  13.966  0.00  0.00    +0.000 A 
ATOM     21  C   UNL     1      45.830   5.756  13.211  0.00  0.00    +0.000 A 
ATOM     22  N   UNL     1      45.062   5.513  12.114  0.00  0.00    +0.000 NA
BRANCH  17  24
ATOM     23  N   UNL     1      43.785   4.858   9.778  0.00  0.00    +0.000 N 
ATOM     24  C   UNL     1      44.088   3.835  10.635  0.00  0.00    +0.000 C 
ATOM     25  O   UNL     1      43.671   2.698  10.458  0.00  0.00    +0.000 OA
ATOM     26  H   UNL     1      43.192   4.679   8.980  0.00  0.00    +0.000 HD
ATOM     27  H   UNL     1      44.137   5.792   9.955  0.00  0.00    +0.000 HD
ENDBRANCH  17  24
ENDBRANCH  15  20
ENDBRANCH   1  15
TORSDOF 5
ENDMDL
MODEL 9
REMARK VINA RESULT:    -6.464      4.413      7.569
REMARK INTER + INTRA:          -9.039
REMARK INTER:                  -8.456
REMARK INTRA:                  -0.583
REMARK UNBOUND:                -0.686
REMARK  Name = 
REMARK  5 active torsions:
REMARK  status: ('A' for Active; 'I' for Inactive)
REMARK    1  A    between atoms: C_2  and  C_4
REMARK    2  A    between atoms: C_7  and  N_8
REMARK    3  A    between atoms: N_8  and  C_9
REMARK    4  A    between atoms: C_9  and  C_10
REMARK    5  A    between atoms: C_15  and  C_16
REMARK                            x       y       z     vdW  Elec       q    Type
REMARK                         _______ _______ _______ _____ _____    ______ ____
ROOT
ATOM      1  C   UNL     1      48.911   7.535  13.242  0.00  0.00    +0.000 C 
ENDROOT
BRANCH   1   2
ATOM      2  C   UNL     1      47.522   7.534  12.638  0.00  0.00    +0.000 A 
ATOM      3  C   UNL     1      46.653   8.610  12.829  0.00  0.00    +0.000 A 
ATOM      4  C   UNL     1      45.388   8.580  12.258  0.00  0.00    +0.000 A 
ATOM      5  F   UNL     1      44.557   9.615  12.447  0.00  0.00    +0.000 F 
ATOM      6  C   UNL     1      44.962   7.496  11.491  0.00  0.00    +0.000 A 
ATOM      7  C   UNL     1      45.797   6.386  11.286  0.00  0.00    +0.000 A 
ATOM      8  C   UNL     1      47.076   6.430  11.883  0.00  0.00    +0.000 A 
BRANCH   7   9
ATOM      9  C   UNL     1      45.360   5.221  10.482  0.00  0.00    +0.000 A 
ATOM     10  C   UNL     1      45.676   5.089   9.120  0.00  0.00    +0.000 A 
ATOM     11  C   UNL     1      45.261   3.972   8.392  0.00  0.00    +0.000 A 
ATOM     12  C   UNL     1      44.518   3.004   9.043  0.00  0.00    +0.000 A 
ATOM     13  N   UNL     1      44.178   3.080  10.343  0.00  0.00    +0.000 NA
ATOM     14  C   UNL     1      44.608   4.174  11.023  0.00  0.00    +0.000 A 
ENDBRANCH   7   9
ENDBRANCH   1   2
BRANCH   1  15
ATOM     15  N   UNL     1      48.803   7.796  14.675  0.00  0.00    +0.000 N 
ATOM     16  H   UNL     1      47.996   8.374  14.889  0.00  0.00    +0.000 HD
BRANCH  15  20
ATOM     17  C   UNL     1      49.018   4.421  17.017  0.00  0.00    +0.000 A 
ATOM     18  C   UNL     1      47.903   4.665  16.231  0.00  0.00    +0.000 A 
ATOM     19  N   UNL     1      47.781   5.777  15.455  0.00  0.00    +0.000 NA
ATOM     20  C   UNL     1      48.809   6.653  15.487  0.00  0.00    +0.000 A 
ATOM     21  C   UNL     1      49.925   6.388  16.295  0.00  0.00    +0.000 A 
ATOM     22  N   UNL     1      50.065   5.287  17.081  0.00  0.00    +0.000 NA
BRANCH  17  24
ATOM     23  N   UNL     1      48.470   3.179  19.023  0.00  0.00    +0.000 N 
ATOM     24  C   UNL     1      49.108   3.166  17.812  0.00  0.00    +0.000 C 
ATOM     25  O   UNL     1      49.719   2.181  17.415  0.00  0.00    +0.000 OA
ATOM     26  H   UNL     1      48.509   2.363  19.616  0.00  0.00    +0.000 HD
ATOM     27  H   UNL     1      47.980   4.013  19.331  0.00  0.00    +0.000 HD
ENDBRANCH  17  24
ENDBRANCH  15  20
ENDBRANCH   1  15
TORSDOF 5
ENDMDL
