MODEL 1
REMARK VINA RESULT:    -8.045      0.000      0.000
REMARK INTER + INTRA:         -11.091
REMARK INTER:                 -11.102
REMARK INTRA:                   0.011
REMARK UNBOUND:                 0.011
REMARK  Name = 
REMARK  10 active torsions:
REMARK  status: ('A' for Active; 'I' for Inactive)
REMARK    1  A    between atoms: C_1  and  C_2
REMARK    2  A    between atoms: C_2  and  C_3
REMARK    3  A    between atoms: C_2  and  C_4
REMARK    4  A    between atoms: C_2  and  O_5
REMARK    5  A    between atoms: O_5  and  C_6
REMARK    6  A    between atoms: C_6  and  C_7
REMARK    7  A    between atoms: N_15  and  C_16
REMARK    8  A    between atoms: C_16  and  C_17
REMARK    9  A    between atoms: C_20  and  C_21
REMARK   10  A    between atoms: C_21  and  N_22
REMARK                            x       y       z     vdW  Elec       q    Type
REMARK                         _______ _______ _______ _____ _____    ______ ____
ROOT
ATOM      1  C   UNL     1      46.888   4.838  14.006  0.00  0.00    +0.000 A 
ATOM      2  C   UNL     1      46.548   3.534  13.641  0.00  0.00    +0.000 A 
ATOM      3  N   UNL     1      45.667   3.215  12.659  0.00  0.00    +0.000 NA
ATOM      4  C   UNL     1      45.111   4.247  12.012  0.00  0.00    +0.000 A 
ATOM      5  C   UNL     1      45.438   5.571  12.268  0.00  0.00    +0.000 A 
ATOM      6  C   UNL     1      46.329   5.888  13.275  0.00  0.00    +0.000 A 
ATOM      7  C   UNL     1      44.647   6.476  11.391  0.00  0.00    +0.000 C 
ATOM      8  C   UNL     1      43.965   5.463  10.448  0.00  0.00    +0.000 C 
ATOM      9  N   UNL     1      44.072   4.152  11.077  0.00  0.00    +0.000 N 
ENDROOT
BRANCH   1  10
ATOM     10  C   UNL     1      47.719   5.103  15.228  0.00  0.00    +0.000 C 
BRANCH  10  11
ATOM     11  O   UNL     1      48.274   3.897  15.742  0.00  0.00    +0.000 OA
BRANCH  11  13
ATOM     12  C   UNL     1      48.138   5.165  17.842  0.00  0.00    +0.000 C 
ATOM     13  C   UNL     1      48.328   3.795  17.177  0.00  0.00    +0.000 C 
ATOM     14  C   UNL     1      49.630   3.134  17.647  0.00  0.00    +0.000 C 
ATOM     15  C   UNL     1      47.152   2.891  17.580  0.00  0.00    +0.000 C 
ENDBRANCH  11  13
ENDBRANCH  10  11
ENDBRANCH   1  10
BRANCH   9  16
ATOM     16  C   UNL     1      43.882   2.915  10.352  0.00  0.00    +0.000 C 
BRANCH  16  17
ATOM     17  C   UNL     1      44.820   2.875   9.174  0.00  0.00    +0.000 A 
ATOM     18  C   UNL     1      45.538   1.718   8.858  0.00  0.00    +0.000 A 
ATOM     19  C   UNL     1      46.399   1.712   7.765  0.00  0.00    +0.000 A 
ATOM     20  C   UNL     1      46.534   2.874   7.009  0.00  0.00    +0.000 A 
ATOM     21  N   UNL     1      45.862   4.017   7.304  0.00  0.00    +0.000 NA
ATOM     22  C   UNL     1      45.027   3.988   8.371  0.00  0.00    +0.000 A 
BRANCH  20  23
ATOM     23  C   UNL     1      47.440   2.892   5.798  0.00  0.00    +0.000 C 
BRANCH  23  24
ATOM     24  N   UNL     1      48.381   1.766   5.763  0.00  0.00    +0.000 NA
ATOM     25  H   UNL     1      48.858   1.735   6.664  0.00  0.00    +0.000 HD
ATOM     26  H   UNL     1      49.098   1.966   5.070  0.00  0.00    +0.000 HD
ENDBRANCH  23  24
ENDBRANCH  20  23
ENDBRANCH  16  17
ENDBRANCH   9  16
TORSDOF 7
ENDMDL
MODEL 2
REMARK VINA RESULT:    -7.776      1.886      2.628
REMARK INTER + INTRA:         -10.720
REMARK INTER:                  -9.917
REMARK INTRA:                  -0.803
REMARK UNBOUND:                 0.011
REMARK  Name = 
REMARK  10 active torsions:
REMARK  status: ('A' for Active; 'I' for Inactive)
REMARK    1  A    between atoms: C_1  and  C_2
REMARK    2  A    between atoms: C_2  and  C_3
REMARK    3  A    between atoms: C_2  and  C_4
REMARK    4  A    between atoms: C_2  and  O_5
REMARK    5  A    between atoms: O_5  and  C_6
REMARK    6  A    between atoms: C_6  and  C_7
REMARK    7  A    between atoms: N_15  and  C_16
REMARK    8  A    between atoms: C_16  and  C_17
REMARK    9  A    between atoms: C_20  and  C_21
REMARK   10  A    between atoms: C_21  and  N_22
REMARK                            x       y       z     vdW  Elec       q    Type
REMARK                         _______ _______ _______ _____ _____    ______ ____
ROOT
ATOM      1  C   UNL     1      47.019   6.738  12.907  0.00  0.00    +0.000 A 
ATOM      2  C   UNL     1      46.993   6.627  11.516  0.00  0.00    +0.000 A 
ATOM      3  N   UNL     1      46.112   5.864  10.821  0.00  0.00    +0.000 NA
ATOM      4  C   UNL     1      45.215   5.191  11.552  0.00  0.00    +0.000 A 
ATOM      5  C   UNL     1      45.130   5.291  12.934  0.00  0.00    +0.000 A 
ATOM      6  C   UNL     1      46.036   6.063  13.635  0.00  0.00    +0.000 A 
ATOM      7  C   UNL     1      44.039   4.418  13.447  0.00  0.00    +0.000 C 
ATOM      8  C   UNL     1      43.376   3.958  12.133  0.00  0.00    +0.000 C 
ATOM      9  N   UNL     1      44.320   4.233  11.057  0.00  0.00    +0.000 N 
ENDROOT
BRANCH   1  10
ATOM     10  C   UNL     1      48.144   7.447  13.602  0.00  0.00    +0.000 C 
BRANCH  10  11
ATOM     11  O   UNL     1      48.980   6.525  14.296  0.00  0.00    +0.000 OA
BRANCH  11  13
ATOM     12  C   UNL     1      50.868   6.998  15.796  0.00  0.00    +0.000 C 
ATOM     13  C   UNL     1      49.344   6.900  15.637  0.00  0.00    +0.000 C 
ATOM     14  C   UNL     1      48.746   5.939  16.674  0.00  0.00    +0.000 C 
ATOM     15  C   UNL     1      48.741   8.295  15.864  0.00  0.00    +0.000 C 
ENDBRANCH  11  13
ENDBRANCH  10  11
ENDBRANCH   1  10
BRANCH   9  16
ATOM     16  C   UNL     1      43.931   4.280   9.664  0.00  0.00    +0.000 C 
BRANCH  16  17
ATOM     17  C   UNL     1      44.914   3.490   8.842  0.00  0.00    +0.000 A 
ATOM     18  C   UNL     1      45.558   4.057   7.739  0.00  0.00    +0.000 A 
ATOM     19  C   UNL     1      46.459   3.300   6.997  0.00  0.00    +0.000 A 
ATOM     20  C   UNL     1      46.694   1.978   7.368  0.00  0.00    +0.000 A 
ATOM     21  N   UNL     1      46.068   1.397   8.424  0.00  0.00    +0.000 NA
ATOM     22  C   UNL     1      45.201   2.162   9.130  0.00  0.00    +0.000 A 
BRANCH  20  23
ATOM     23  C   UNL     1      47.689   1.137   6.598  0.00  0.00    +0.000 C 
BRANCH  23  24
ATOM     24  N   UNL     1      48.479   1.913   5.636  0.00  0.00    +0.000 NA
ATOM     25  H   UNL     1      48.099   2.860   5.617  0.00  0.00    +0.000 HD
ATOM     26  H   UNL     1      48.324   1.528   4.706  0.00  0.00    +0.000 HD
ENDBRANCH  23  24
ENDBRANCH  20  23
ENDBRANCH  16  17
ENDBRANCH   9  16
TORSDOF 7
ENDMDL
MODEL 3
REMARK VINA RESULT:    -7.559      2.639      4.146
REMARK INTER + INTRA:         -10.421
REMARK INTER:                  -9.516
REMARK INTRA:                  -0.904
REMARK UNBOUND:                 0.011
REMARK  Name = 
REMARK  10 active torsions:
REMARK  status: ('A' for Active; 'I' for Inactive)
REMARK    1  A    between atoms: C_1  and  C_2
REMARK    2  A    between atoms: C_2  and  C_3
REMARK    3  A    between atoms: C_2  and  C_4
REMARK    4  A    between atoms: C_2  and  O_5
REMARK    5  A    between atoms: O_5  and  C_6
REMARK    6  A    between atoms: C_6  and  C_7
REMARK    7  A    between atoms: N_15  and  C_16
REMARK    8  A    between atoms: C_16  and  C_17
REMARK    9  A    between atoms: C_20  and  C_21
REMARK   10  A    between atoms: C_21  and  N_22
REMARK                            x       y       z     vdW  Elec       q    Type
REMARK                         _______ _______ _______ _____ _____    ______ ____
ROOT
ATOM      1  C   UNL     1      45.888   7.644  12.583  0.00  0.00    +0.000 A 
ATOM      2  C   UNL     1      45.267   7.365  11.363  0.00  0.00    +0.000 A 
ATOM      3  N   UNL     1      45.002   6.117  10.903  0.00  0.00    +0.000 NA
ATOM      4  C   UNL     1      45.367   5.107  11.703  0.00  0.00    +0.000 A 
ATOM      5  C   UNL     1      45.932   5.296  12.957  0.00  0.00    +0.000 A 
ATOM      6  C   UNL     1      46.208   6.569  13.415  0.00  0.00    +0.000 A 
ATOM      7  C   UNL     1      46.229   3.981  13.590  0.00  0.00    +0.000 C 
ATOM      8  C   UNL     1      45.560   3.009  12.597  0.00  0.00    +0.000 C 
ATOM      9  N   UNL     1      45.328   3.749  11.363  0.00  0.00    +0.000 N 
ENDROOT
BRANCH   1  10
ATOM     10  C   UNL     1      46.318   9.041  12.926  0.00  0.00    +0.000 C 
BRANCH  10  11
ATOM     11  O   UNL     1      47.209   9.558  11.943  0.00  0.00    +0.000 OA
BRANCH  11  13
ATOM     12  C   UNL     1      49.307   8.292  11.748  0.00  0.00    +0.000 C 
ATOM     13  C   UNL     1      48.605   9.543  12.294  0.00  0.00    +0.000 C 
ATOM     14  C   UNL     1      48.806   9.665  13.811  0.00  0.00    +0.000 C 
ATOM     15  C   UNL     1      49.222  10.779  11.622  0.00  0.00    +0.000 C 
ENDBRANCH  11  13
ENDBRANCH  10  11
ENDBRANCH   1  10
BRANCH   9  16
ATOM     16  C   UNL     1      44.409   3.300  10.340  0.00  0.00    +0.000 C 
BRANCH  16  17
ATOM     17  C   UNL     1      45.165   3.038   9.065  0.00  0.00    +0.000 A 
ATOM     18  C   UNL     1      45.714   1.782   8.793  0.00  0.00    +0.000 A 
ATOM     19  C   UNL     1      46.410   1.571   7.607  0.00  0.00    +0.000 A 
ATOM     20  C   UNL     1      46.553   2.629   6.713  0.00  0.00    +0.000 A 
ATOM     21  N   UNL     1      46.046   3.864   6.960  0.00  0.00    +0.000 NA
ATOM     22  C   UNL     1      45.368   4.036   8.121  0.00  0.00    +0.000 A 
BRANCH  20  23
ATOM     23  C   UNL     1      47.280   2.424   5.402  0.00  0.00    +0.000 C 
BRANCH  23  24
ATOM     24  N   UNL     1      48.614   1.835   5.567  0.00  0.00    +0.000 NA
ATOM     25  H   UNL     1      48.529   0.830   5.413  0.00  0.00    +0.000 HD
ATOM     26  H   UNL     1      48.899   1.949   6.537  0.00  0.00    +0.000 HD
ENDBRANCH  23  24
ENDBRANCH  20  23
ENDBRANCH  16  17
ENDBRANCH   9  16
TORSDOF 7
ENDMDL
MODEL 4
REMARK VINA RESULT:    -7.546      2.731      3.761
REMARK INTER + INTRA:         -10.403
REMARK INTER:                  -9.667
REMARK INTRA:                  -0.736
REMARK UNBOUND:                 0.011
REMARK  Name = 
REMARK  10 active torsions:
REMARK  status: ('A' for Active; 'I' for Inactive)
REMARK    1  A    between atoms: C_1  and  C_2
REMARK    2  A    between atoms: C_2  and  C_3
REMARK    3  A    between atoms: C_2  and  C_4
REMARK    4  A    between atoms: C_2  and  O_5
REMARK    5  A    between atoms: O_5  and  C_6
REMARK    6  A    between atoms: C_6  and  C_7
REMARK    7  A    between atoms: N_15  and  C_16
REMARK    8  A    between atoms: C_16  and  C_17
REMARK    9  A    between atoms: C_20  and  C_21
REMARK   10  A    between atoms: C_21  and  N_22
REMARK                            x       y       z     vdW  Elec       q    Type
REMARK                         _______ _______ _______ _____ _____    ______ ____
ROOT
ATOM      1  C   UNL     1      46.973   6.847  12.753  0.00  0.00    +0.000 A 
ATOM      2  C   UNL     1      46.915   6.689  11.366  0.00  0.00    +0.000 A 
ATOM      3  N   UNL     1      46.030   5.890  10.720  0.00  0.00    +0.000 NA
ATOM      4  C   UNL     1      45.161   5.229  11.495  0.00  0.00    +0.000 A 
ATOM      5  C   UNL     1      45.109   5.375  12.875  0.00  0.00    +0.000 A 
ATOM      6  C   UNL     1      46.019   6.183  13.527  0.00  0.00    +0.000 A 
ATOM      7  C   UNL     1      44.044   4.504  13.444  0.00  0.00    +0.000 C 
ATOM      8  C   UNL     1      43.356   3.990  12.163  0.00  0.00    +0.000 C 
ATOM      9  N   UNL     1      44.269   4.242  11.055  0.00  0.00    +0.000 N 
ENDROOT
BRANCH   1  10
ATOM     10  C   UNL     1      48.105   7.595  13.395  0.00  0.00    +0.000 C 
BRANCH  10  11
ATOM     11  O   UNL     1      49.361   7.160  12.886  0.00  0.00    +0.000 OA
BRANCH  11  13
ATOM     12  C   UNL     1      49.389   9.460  12.019  0.00  0.00    +0.000 C 
ATOM     13  C   UNL     1      50.194   8.187  12.317  0.00  0.00    +0.000 C 
ATOM     14  C   UNL     1      50.920   7.692  11.058  0.00  0.00    +0.000 C 
ATOM     15  C   UNL     1      51.247   8.517  13.386  0.00  0.00    +0.000 C 
ENDBRANCH  11  13
ENDBRANCH  10  11
ENDBRANCH   1  10
BRANCH   9  16
ATOM     16  C   UNL     1      43.846   4.236   9.671  0.00  0.00    +0.000 C 
BRANCH  16  17
ATOM     17  C   UNL     1      44.826   3.441   8.850  0.00  0.00    +0.000 A 
ATOM     18  C   UNL     1      45.447   3.994   7.726  0.00  0.00    +0.000 A 
ATOM     19  C   UNL     1      46.346   3.233   6.986  0.00  0.00    +0.000 A 
ATOM     20  C   UNL     1      46.603   1.922   7.380  0.00  0.00    +0.000 A 
ATOM     21  N   UNL     1      46.000   1.355   8.456  0.00  0.00    +0.000 NA
ATOM     22  C   UNL     1      45.134   2.123   9.159  0.00  0.00    +0.000 A 
BRANCH  20  23
ATOM     23  C   UNL     1      47.596   1.078   6.611  0.00  0.00    +0.000 C 
BRANCH  23  24
ATOM     24  N   UNL     1      48.550   1.875   5.831  0.00  0.00    +0.000 NA
ATOM     25  H   UNL     1      49.334   2.103   6.443  0.00  0.00    +0.000 HD
ATOM     26  H   UNL     1      48.110   2.762   5.593  0.00  0.00    +0.000 HD
ENDBRANCH  23  24
ENDBRANCH  20  23
ENDBRANCH  16  17
ENDBRANCH   9  16
TORSDOF 7
ENDMDL
MODEL 5
REMARK VINA RESULT:    -7.328      2.936      8.103
REMARK INTER + INTRA:         -10.102
REMARK INTER:                  -9.375
REMARK INTRA:                  -0.726
REMARK UNBOUND:                 0.011
REMARK  Name = 
REMARK  10 active torsions:
REMARK  status: ('A' for Active; 'I' for Inactive)
REMARK    1  A    between atoms: C_1  and  C_2
REMARK    2  A    between atoms: C_2  and  C_3
REMARK    3  A    between atoms: C_2  and  C_4
REMARK    4  A    between atoms: C_2  and  O_5
REMARK    5  A    between atoms: O_5  and  C_6
REMARK    6  A    between atoms: C_6  and  C_7
REMARK    7  A    between atoms: N_15  and  C_16
REMARK    8  A    between atoms: C_16  and  C_17
REMARK    9  A    between atoms: C_20  and  C_21
REMARK   10  A    between atoms: C_21  and  N_22
REMARK                            x       y       z     vdW  Elec       q    Type
REMARK                         _______ _______ _______ _____ _____    ______ ____
ROOT
ATOM      1  C   UNL     1      45.299   4.908  11.481  0.00  0.00    +0.000 A 
ATOM      2  C   UNL     1      45.176   3.953  12.492  0.00  0.00    +0.000 A 
ATOM      3  N   UNL     1      45.852   3.984  13.668  0.00  0.00    +0.000 NA
ATOM      4  C   UNL     1      46.681   5.022  13.840  0.00  0.00    +0.000 A 
ATOM      5  C   UNL     1      46.818   6.047  12.915  0.00  0.00    +0.000 A 
ATOM      6  C   UNL     1      46.133   6.004  11.716  0.00  0.00    +0.000 A 
ATOM      7  C   UNL     1      47.817   7.042  13.394  0.00  0.00    +0.000 C 
ATOM      8  C   UNL     1      48.080   6.539  14.828  0.00  0.00    +0.000 C 
ATOM      9  N   UNL     1      47.583   5.171  14.901  0.00  0.00    +0.000 N 
ENDROOT
BRANCH   1  10
ATOM     10  C   UNL     1      44.664   4.695  10.138  0.00  0.00    +0.000 C 
BRANCH  10  11
ATOM     11  O   UNL     1      45.647   4.647   9.109  0.00  0.00    +0.000 OA
BRANCH  11  13
ATOM     12  C   UNL     1      45.599   2.190   9.078  0.00  0.00    +0.000 C 
ATOM     13  C   UNL     1      45.604   3.487   8.257  0.00  0.00    +0.000 C 
ATOM     14  C   UNL     1      46.756   3.489   7.243  0.00  0.00    +0.000 C 
ATOM     15  C   UNL     1      44.278   3.579   7.486  0.00  0.00    +0.000 C 
ENDBRANCH  11  13
ENDBRANCH  10  11
ENDBRANCH   1  10
BRANCH   9  16
ATOM     16  C   UNL     1      47.321   4.496  16.154  0.00  0.00    +0.000 C 
BRANCH  16  17
ATOM     17  C   UNL     1      48.553   3.747  16.588  0.00  0.00    +0.000 A 
ATOM     18  C   UNL     1      49.547   4.366  17.352  0.00  0.00    +0.000 A 
ATOM     19  C   UNL     1      50.675   3.648  17.735  0.00  0.00    +0.000 A 
ATOM     20  C   UNL     1      50.794   2.318  17.337  0.00  0.00    +0.000 A 
ATOM     21  N   UNL     1      49.853   1.699  16.580  0.00  0.00    +0.000 NA
ATOM     22  C   UNL     1      48.764   2.423  16.228  0.00  0.00    +0.000 A 
BRANCH  20  23
ATOM     23  C   UNL     1      51.996   1.503  17.762  0.00  0.00    +0.000 C 
BRANCH  23  24
ATOM     24  N   UNL     1      51.656   0.128  18.145  0.00  0.00    +0.000 NA
ATOM     25  H   UNL     1      52.500  -0.436  18.051  0.00  0.00    +0.000 HD
ATOM     26  H   UNL     1      50.993  -0.241  17.467  0.00  0.00    +0.000 HD
ENDBRANCH  23  24
ENDBRANCH  20  23
ENDBRANCH  16  17
ENDBRANCH   9  16
TORSDOF 7
ENDMDL
MODEL 6
REMARK VINA RESULT:    -6.709      3.687      8.484
REMARK INTER + INTRA:          -9.248
REMARK INTER:                  -8.476
REMARK INTRA:                  -0.771
REMARK UNBOUND:                 0.011
REMARK  Name = 
REMARK  10 active torsions:
REMARK  status: ('A' for Active; 'I' for Inactive)
REMARK    1  A    between atoms: C_1  and  C_2
REMARK    2  A    between atoms: C_2  and  C_3
REMARK    3  A    between atoms: C_2  and  C_4
REMARK    4  A    between atoms: C_2  and  O_5
REMARK    5  A    between atoms: O_5  and  C_6
REMARK    6  A    between atoms: C_6  and  C_7
REMARK    7  A    between atoms: N_15  and  C_16
REMARK    8  A    between atoms: C_16  and  C_17
REMARK    9  A    between atoms: C_20  and  C_21
REMARK   10  A    between atoms: C_21  and  N_22
REMARK                            x       y       z     vdW  Elec       q    Type
REMARK                         _______ _______ _______ _____ _____    ______ ____
ROOT
ATOM      1  C   UNL     1      46.720   5.583  13.289  0.00  0.00    +0.000 A 
ATOM      2  C   UNL     1      46.728   4.503  14.175  0.00  0.00    +0.000 A 
ATOM      3  N   UNL     1      47.498   4.428  15.289  0.00  0.00    +0.000 NA
ATOM      4  C   UNL     1      48.287   5.483  15.530  0.00  0.00    +0.000 A 
ATOM      5  C   UNL     1      48.297   6.622  14.737  0.00  0.00    +0.000 A 
ATOM      6  C   UNL     1      47.517   6.688  13.599  0.00  0.00    +0.000 A 
ATOM      7  C   UNL     1      49.283   7.606  15.263  0.00  0.00    +0.000 C 
ATOM      8  C   UNL     1      49.689   6.944  16.596  0.00  0.00    +0.000 C 
ATOM      9  N   UNL     1      49.267   5.551  16.529  0.00  0.00    +0.000 N 
ENDROOT
BRANCH   1  10
ATOM     10  C   UNL     1      45.987   5.502  11.983  0.00  0.00    +0.000 C 
BRANCH  10  11
ATOM     11  O   UNL     1      45.398   4.218  11.805  0.00  0.00    +0.000 OA
BRANCH  11  13
ATOM     12  C   UNL     1      43.266   5.441  11.774  0.00  0.00    +0.000 C 
ATOM     13  C   UNL     1      44.052   4.213  11.294  0.00  0.00    +0.000 C 
ATOM     14  C   UNL     1      43.315   2.916  11.657  0.00  0.00    +0.000 C 
ATOM     15  C   UNL     1      44.181   4.286   9.765  0.00  0.00    +0.000 C 
ENDBRANCH  11  13
ENDBRANCH  10  11
ENDBRANCH   1  10
BRANCH   9  16
ATOM     16  C   UNL     1      49.144   4.711  17.701  0.00  0.00    +0.000 C 
BRANCH  16  17
ATOM     17  C   UNL     1      50.227   3.665  17.685  0.00  0.00    +0.000 A 
ATOM     18  C   UNL     1      51.538   3.973  18.059  0.00  0.00    +0.000 A 
ATOM     19  C   UNL     1      52.517   2.985  18.031  0.00  0.00    +0.000 A 
ATOM     20  C   UNL     1      52.167   1.702  17.618  0.00  0.00    +0.000 A 
ATOM     21  N   UNL     1      50.906   1.380  17.232  0.00  0.00    +0.000 NA
ATOM     22  C   UNL     1      49.974   2.362  17.276  0.00  0.00    +0.000 A 
BRANCH  20  23
ATOM     23  C   UNL     1      53.203   0.599  17.604  0.00  0.00    +0.000 C 
BRANCH  23  24
ATOM     24  N   UNL     1      52.829  -0.557  18.425  0.00  0.00    +0.000 NA
ATOM     25  H   UNL     1      51.834  -0.477  18.636  0.00  0.00    +0.000 HD
ATOM     26  H   UNL     1      53.312  -0.489  19.318  0.00  0.00    +0.000 HD
ENDBRANCH  23  24
ENDBRANCH  20  23
ENDBRANCH  16  17
ENDBRANCH   9  16
TORSDOF 7
ENDMDL
MODEL 7
REMARK VINA RESULT:    -5.941      3.000      3.934
REMARK INTER + INTRA:          -8.189
REMARK INTER:                  -8.284
REMARK INTRA:                   0.096
REMARK UNBOUND:                 0.011
REMARK  Name = 
REMARK  10 active torsions:
REMARK  status: ('A' for Active; 'I' for Inactive)
REMARK    1  A    between atoms: C_1  and  C_2
REMARK    2  A    between atoms: C_2  and  C_3
REMARK    3  A    between atoms: C_2  and  C_4
REMARK    4  A    between atoms: C_2  and  O_5
REMARK    5  A    between atoms: O_5  and  C_6
REMARK    6  A    between atoms: C_6  and  C_7
REMARK    7  A    between atoms: N_15  and  C_16
REMARK    8  A    between atoms: C_16  and  C_17
REMARK    9  A    between atoms: C_20  and  C_21
REMARK   10  A    between atoms: C_21  and  N_22
REMARK                            x       y       z     vdW  Elec       q    Type
REMARK                         _______ _______ _______ _____ _____    ______ ____
ROOT
ATOM      1  C   UNL     1      48.008   7.519  13.741  0.00  0.00    +0.000 A 
ATOM      2  C   UNL     1      47.676   6.175  13.922  0.00  0.00    +0.000 A 
ATOM      3  N   UNL     1      46.540   5.594  13.458  0.00  0.00    +0.000 NA
ATOM      4  C   UNL     1      45.708   6.393  12.779  0.00  0.00    +0.000 A 
ATOM      5  C   UNL     1      45.989   7.724  12.501  0.00  0.00    +0.000 A 
ATOM      6  C   UNL     1      47.142   8.310  12.983  0.00  0.00    +0.000 A 
ATOM      7  C   UNL     1      44.867   8.338  11.738  0.00  0.00    +0.000 C 
ATOM      8  C   UNL     1      43.991   7.103  11.442  0.00  0.00    +0.000 C 
ATOM      9  N   UNL     1      44.421   6.045  12.348  0.00  0.00    +0.000 N 
ENDROOT
BRANCH   1  10
ATOM     10  C   UNL     1      49.185   8.123  14.450  0.00  0.00    +0.000 C 
BRANCH  10  11
ATOM     11  O   UNL     1      50.411   7.686  13.874  0.00  0.00    +0.000 OA
BRANCH  11  13
ATOM     12  C   UNL     1      50.784   8.619  11.631  0.00  0.00    +0.000 C 
ATOM     13  C   UNL     1      51.137   8.677  13.124  0.00  0.00    +0.000 C 
ATOM     14  C   UNL     1      52.652   8.545  13.334  0.00  0.00    +0.000 C 
ATOM     15  C   UNL     1      50.687  10.038  13.677  0.00  0.00    +0.000 C 
ENDBRANCH  11  13
ENDBRANCH  10  11
ENDBRANCH   1  10
BRANCH   9  16
ATOM     16  C   UNL     1      44.099   4.650  12.136  0.00  0.00    +0.000 C 
BRANCH  16  17
ATOM     17  C   UNL     1      44.537   4.238  10.755  0.00  0.00    +0.000 A 
ATOM     18  C   UNL     1      44.243   2.969  10.250  0.00  0.00    +0.000 A 
ATOM     19  C   UNL     1      44.664   2.616   8.972  0.00  0.00    +0.000 A 
ATOM     20  C   UNL     1      45.384   3.542   8.220  0.00  0.00    +0.000 A 
ATOM     21  N   UNL     1      45.699   4.775   8.694  0.00  0.00    +0.000 NA
ATOM     22  C   UNL     1      45.270   5.091   9.940  0.00  0.00    +0.000 A 
BRANCH  20  23
ATOM     23  C   UNL     1      45.831   3.199   6.817  0.00  0.00    +0.000 C 
BRANCH  23  24
ATOM     24  N   UNL     1      46.931   4.044   6.338  0.00  0.00    +0.000 NA
ATOM     25  H   UNL     1      47.374   4.467   7.154  0.00  0.00    +0.000 HD
ATOM     26  H   UNL     1      46.537   4.813   5.800  0.00  0.00    +0.000 HD
ENDBRANCH  23  24
ENDBRANCH  20  23
ENDBRANCH  16  17
ENDBRANCH   9  16
TORSDOF 7
ENDMDL
MODEL 8
REMARK VINA RESULT:    -5.918      4.183      8.966
REMARK INTER + INTRA:          -8.156
REMARK INTER:                  -8.184
REMARK INTRA:                   0.028
REMARK UNBOUND:                 0.011
REMARK  Name = 
REMARK  10 active torsions:
REMARK  status: ('A' for Active; 'I' for Inactive)
REMARK    1  A    between atoms: C_1  and  C_2
REMARK    2  A    between atoms: C_2  and  C_3
REMARK    3  A    between atoms: C_2  and  C_4
REMARK    4  A    between atoms: C_2  and  O_5
REMARK    5  A    between atoms: O_5  and  C_6
REMARK    6  A    between atoms: C_6  and  C_7
REMARK    7  A    between atoms: N_15  and  C_16
REMARK    8  A    between atoms: C_16  and  C_17
REMARK    9  A    between atoms: C_20  and  C_21
REMARK   10  A    between atoms: C_21  and  N_22
REMARK                            x       y       z     vdW  Elec       q    Type
REMARK                         _______ _______ _______ _____ _____    ______ ____
ROOT
ATOM      1  C   UNL     1      47.158   5.427  14.242  0.00  0.00    +0.000 A 
ATOM      2  C   UNL     1      48.309   6.124  14.615  0.00  0.00    +0.000 A 
ATOM      3  N   UNL     1      48.999   5.911  15.764  0.00  0.00    +0.000 NA
ATOM      4  C   UNL     1      48.519   4.954  16.568  0.00  0.00    +0.000 A 
ATOM      5  C   UNL     1      47.418   4.172  16.246  0.00  0.00    +0.000 A 
ATOM      6  C   UNL     1      46.716   4.400  15.079  0.00  0.00    +0.000 A 
ATOM      7  C   UNL     1      47.135   3.207  17.344  0.00  0.00    +0.000 C 
ATOM      8  C   UNL     1      48.363   3.414  18.254  0.00  0.00    +0.000 C 
ATOM      9  N   UNL     1      48.980   4.675  17.861  0.00  0.00    +0.000 N 
ENDROOT
BRANCH   1  10
ATOM     10  C   UNL     1      46.349   5.857  13.054  0.00  0.00    +0.000 C 
BRANCH  10  11
ATOM     11  O   UNL     1      45.070   5.230  13.051  0.00  0.00    +0.000 OA
BRANCH  11  13
ATOM     12  C   UNL     1      45.426   5.446  10.629  0.00  0.00    +0.000 C 
ATOM     13  C   UNL     1      44.546   4.887  11.755  0.00  0.00    +0.000 C 
ATOM     14  C   UNL     1      43.091   5.350  11.594  0.00  0.00    +0.000 C 
ATOM     15  C   UNL     1      44.577   3.352  11.681  0.00  0.00    +0.000 C 
ENDBRANCH  11  13
ENDBRANCH  10  11
ENDBRANCH   1  10
BRANCH   9  16
ATOM     16  C   UNL     1      50.334   5.032  18.223  0.00  0.00    +0.000 C 
BRANCH  16  17
ATOM     17  C   UNL     1      51.207   3.807  18.174  0.00  0.00    +0.000 A 
ATOM     18  C   UNL     1      50.877   2.713  17.369  0.00  0.00    +0.000 A 
ATOM     19  C   UNL     1      51.702   1.593  17.347  0.00  0.00    +0.000 A 
ATOM     20  C   UNL     1      52.846   1.583  18.142  0.00  0.00    +0.000 A 
ATOM     21  N   UNL     1      53.180   2.625  18.947  0.00  0.00    +0.000 NA
ATOM     22  C   UNL     1      52.360   3.703  18.942  0.00  0.00    +0.000 A 
BRANCH  20  23
ATOM     23  C   UNL     1      53.778   0.392  18.119  0.00  0.00    +0.000 C 
BRANCH  23  24
ATOM     24  N   UNL     1      53.136  -0.852  18.558  0.00  0.00    +0.000 NA
ATOM     25  H   UNL     1      52.127  -0.706  18.531  0.00  0.00    +0.000 HD
ATOM     26  H   UNL     1      53.372  -1.010  19.536  0.00  0.00    +0.000 HD
ENDBRANCH  23  24
ENDBRANCH  20  23
ENDBRANCH  16  17
ENDBRANCH   9  16
TORSDOF 7
ENDMDL
MODEL 9
REMARK VINA RESULT:    -5.615      5.092      7.021
REMARK INTER + INTRA:          -7.738
REMARK INTER:                  -6.857
REMARK INTRA:                  -0.882
REMARK UNBOUND:                 0.011
REMARK  Name = 
REMARK  10 active torsions:
REMARK  status: ('A' for Active; 'I' for Inactive)
REMARK    1  A    between atoms: C_1  and  C_2
REMARK    2  A    between atoms: C_2  and  C_3
REMARK    3  A    between atoms: C_2  and  C_4
REMARK    4  A    between atoms: C_2  and  O_5
REMARK    5  A    between atoms: O_5  and  C_6
REMARK    6  A    between atoms: C_6  and  C_7
REMARK    7  A    between atoms: N_15  and  C_16
REMARK    8  A    between atoms: C_16  and  C_17
REMARK    9  A    between atoms: C_20  and  C_21
REMARK   10  A    between atoms: C_21  and  N_22
REMARK                            x       y       z     vdW  Elec       q    Type
REMARK                         _______ _______ _______ _____ _____    ______ ____
ROOT
ATOM      1  C   UNL     1      51.172   9.155  12.007  0.00  0.00    +0.000 A 
ATOM      2  C   UNL     1      49.944   9.279  11.355  0.00  0.00    +0.000 A 
ATOM      3  N   UNL     1      48.784   8.722  11.785  0.00  0.00    +0.000 NA
ATOM      4  C   UNL     1      48.858   8.017  12.921  0.00  0.00    +0.000 A 
ATOM      5  C   UNL     1      50.023   7.894  13.666  0.00  0.00    +0.000 A 
ATOM      6  C   UNL     1      51.202   8.457  13.217  0.00  0.00    +0.000 A 
ATOM      7  C   UNL     1      49.780   7.046  14.865  0.00  0.00    +0.000 C 
ATOM      8  C   UNL     1      48.249   6.870  14.806  0.00  0.00    +0.000 C 
ATOM      9  N   UNL     1      47.826   7.237  13.460  0.00  0.00    +0.000 N 
ENDROOT
BRANCH   1  10
ATOM     10  C   UNL     1      52.439   9.637  11.363  0.00  0.00    +0.000 C 
BRANCH  10  11
ATOM     11  O   UNL     1      53.429   8.614  11.349  0.00  0.00    +0.000 OA
BRANCH  11  13
ATOM     12  C   UNL     1      52.821   6.776   9.835  0.00  0.00    +0.000 C 
ATOM     13  C   UNL     1      53.693   8.018  10.066  0.00  0.00    +0.000 C 
ATOM     14  C   UNL     1      55.181   7.681   9.896  0.00  0.00    +0.000 C 
ATOM     15  C   UNL     1      53.314   9.079   9.021  0.00  0.00    +0.000 C 
ENDBRANCH  11  13
ENDBRANCH  10  11
ENDBRANCH   1  10
BRANCH   9  16
ATOM     16  C   UNL     1      46.454   7.549  13.125  0.00  0.00    +0.000 C 
BRANCH  16  17
ATOM     17  C   UNL     1      45.817   6.358  12.459  0.00  0.00    +0.000 A 
ATOM     18  C   UNL     1      45.769   6.246  11.066  0.00  0.00    +0.000 A 
ATOM     19  C   UNL     1      45.171   5.135  10.480  0.00  0.00    +0.000 A 
ATOM     20  C   UNL     1      44.621   4.154  11.302  0.00  0.00    +0.000 A 
ATOM     21  N   UNL     1      44.637   4.247  12.656  0.00  0.00    +0.000 NA
ATOM     22  C   UNL     1      45.232   5.338  13.197  0.00  0.00    +0.000 A 
BRANCH  20  23
ATOM     23  C   UNL     1      43.989   2.921  10.695  0.00  0.00    +0.000 C 
BRANCH  23  24
ATOM     24  N   UNL     1      43.049   2.248  11.600  0.00  0.00    +0.000 NA
ATOM     25  H   UNL     1      42.120   2.314  11.184  0.00  0.00    +0.000 HD
ATOM     26  H   UNL     1      43.007   2.774  12.470  0.00  0.00    +0.000 HD
ENDBRANCH  23  24
ENDBRANCH  20  23
ENDBRANCH  16  17
ENDBRANCH   9  16
TORSDOF 7
ENDMDL
