MODEL 1
REMARK VINA RESULT:    -8.300      0.000      0.000
REMARK INTER + INTRA:         -11.259
REMARK INTER:                 -10.726
REMARK INTRA:                  -0.533
REMARK UNBOUND:                -0.533
REMARK  Name = 
REMARK  6 active torsions:
REMARK  status: ('A' for Active; 'I' for Inactive)
REMARK    1  A    between atoms: C_1  and  O_2
REMARK    2  A    between atoms: O_2  and  C_3
REMARK    3  A    between atoms: C_6  and  C_7
REMARK    4  A    between atoms: C_7  and  N_8
REMARK    5  A    between atoms: N_8  and  C_9
REMARK    6  A    between atoms: C_12  and  C_13
REMARK                            x       y       z     vdW  Elec       q    Type
REMARK                         _______ _______ _______ _____ _____    ______ ____
ROOT
ATOM      1  N   UNL     1      43.659   3.732  10.556  0.00  0.00    +0.000 N 
ATOM      2  H   UNL     1      43.206   2.965  11.050  0.00  0.00    +0.000 HD
ENDROOT
BRANCH   1   3
ATOM      3  C   UNL     1      44.486   3.305   9.504  0.00  0.00    +0.000 A 
ATOM      4  C   UNL     1      44.865   1.981   9.280  0.00  0.00    +0.000 A 
ATOM      5  C   UNL     1      45.854   1.666   8.336  0.00  0.00    +0.000 A 
ATOM      6  C   UNL     1      46.459   2.672   7.575  0.00  0.00    +0.000 A 
ATOM      7  C   UNL     1      46.060   3.996   7.759  0.00  0.00    +0.000 A 
ATOM      8  C   UNL     1      45.090   4.302   8.718  0.00  0.00    +0.000 A 
BRANCH   6   9
ATOM      9  C   UNL     1      47.556   2.308   6.641  0.00  0.00    +0.000 C 
ATOM     10  N   UNL     1      47.643   3.007   5.469  0.00  0.00    +0.000 N 
ATOM     11  O   UNL     1      48.344   1.406   6.896  0.00  0.00    +0.000 OA
ATOM     12  H   UNL     1      46.899   3.594   5.122  0.00  0.00    +0.000 HD
ATOM     13  H   UNL     1      48.346   2.696   4.811  0.00  0.00    +0.000 HD
ENDBRANCH   6   9
ENDBRANCH   1   3
BRANCH   1  14
ATOM     14  C   UNL     1      43.756   4.971  11.349  0.00  0.00    +0.000 C 
ATOM     15  C   UNL     1      43.129   6.300  10.971  0.00  0.00    +0.000 C 
ATOM     16  C   UNL     1      42.419   5.420  11.939  0.00  0.00    +0.000 C 
BRANCH  14  20
ATOM     17  C   UNL     1      46.999   4.947  14.092  0.00  0.00    +0.000 A 
ATOM     18  C   UNL     1      46.717   6.071  13.335  0.00  0.00    +0.000 A 
ATOM     19  N   UNL     1      45.698   6.115  12.436  0.00  0.00    +0.000 NA
ATOM     20  C   UNL     1      44.967   4.973  12.288  0.00  0.00    +0.000 A 
ATOM     21  C   UNL     1      45.281   3.851  13.062  0.00  0.00    +0.000 A 
ATOM     22  N   UNL     1      46.290   3.806  13.966  0.00  0.00    +0.000 NA
BRANCH  17  24
ATOM     23  C   UNL     1      47.706   4.460  16.260  0.00  0.00    +0.000 C 
ATOM     24  O   UNL     1      48.038   5.023  14.993  0.00  0.00    +0.000 OA
ENDBRANCH  17  24
ENDBRANCH  14  20
ENDBRANCH   1  14
TORSDOF 5
ENDMDL
MODEL 2
REMARK VINA RESULT:    -8.111      1.401      1.745
REMARK INTER + INTRA:         -11.015
REMARK INTER:                 -11.043
REMARK INTRA:                   0.028
REMARK UNBOUND:                -0.533
REMARK  Name = 
REMARK  6 active torsions:
REMARK  status: ('A' for Active; 'I' for Inactive)
REMARK    1  A    between atoms: C_1  and  O_2
REMARK    2  A    between atoms: O_2  and  C_3
REMARK    3  A    between atoms: C_6  and  C_7
REMARK    4  A    between atoms: C_7  and  N_8
REMARK    5  A    between atoms: N_8  and  C_9
REMARK    6  A    between atoms: C_12  and  C_13
REMARK                            x       y       z     vdW  Elec       q    Type
REMARK                         _______ _______ _______ _____ _____    ______ ____
ROOT
ATOM      1  N   UNL     1      43.847   4.713  10.238  0.00  0.00    +0.000 N 
ATOM      2  H   UNL     1      42.911   4.937   9.904  0.00  0.00    +0.000 HD
ENDROOT
BRANCH   1   3
ATOM      3  C   UNL     1      44.558   3.864   9.374  0.00  0.00    +0.000 A 
ATOM      4  C   UNL     1      44.590   2.473   9.476  0.00  0.00    +0.000 A 
ATOM      5  C   UNL     1      45.483   1.714   8.706  0.00  0.00    +0.000 A 
ATOM      6  C   UNL     1      46.341   2.336   7.792  0.00  0.00    +0.000 A 
ATOM      7  C   UNL     1      46.292   3.723   7.650  0.00  0.00    +0.000 A 
ATOM      8  C   UNL     1      45.414   4.472   8.438  0.00  0.00    +0.000 A 
BRANCH   6   9
ATOM      9  C   UNL     1      47.328   1.508   7.051  0.00  0.00    +0.000 C 
ATOM     10  N   UNL     1      48.427   2.143   6.543  0.00  0.00    +0.000 N 
ATOM     11  O   UNL     1      47.160   0.307   6.881  0.00  0.00    +0.000 OA
ATOM     12  H   UNL     1      48.495   3.146   6.465  0.00  0.00    +0.000 HD
ATOM     13  H   UNL     1      49.048   1.581   5.974  0.00  0.00    +0.000 HD
ENDBRANCH   6   9
ENDBRANCH   1   3
BRANCH   1  14
ATOM     14  C   UNL     1      44.014   4.881  11.693  0.00  0.00    +0.000 C 
ATOM     15  C   UNL     1      42.888   5.138  12.677  0.00  0.00    +0.000 C 
ATOM     16  C   UNL     1      43.391   3.747  12.509  0.00  0.00    +0.000 C 
BRANCH  14  20
ATOM     17  C   UNL     1      47.891   6.109  12.919  0.00  0.00    +0.000 A 
ATOM     18  C   UNL     1      47.200   6.806  11.942  0.00  0.00    +0.000 A 
ATOM     19  N   UNL     1      45.965   6.437  11.512  0.00  0.00    +0.000 NA
ATOM     20  C   UNL     1      45.433   5.313  12.075  0.00  0.00    +0.000 A 
ATOM     21  C   UNL     1      46.159   4.627  13.053  0.00  0.00    +0.000 A 
ATOM     22  N   UNL     1      47.387   4.997  13.493  0.00  0.00    +0.000 NA
BRANCH  17  24
ATOM     23  C   UNL     1      49.718   7.422  12.306  0.00  0.00    +0.000 C 
ATOM     24  O   UNL     1      49.125   6.588  13.299  0.00  0.00    +0.000 OA
ENDBRANCH  17  24
ENDBRANCH  14  20
ENDBRANCH   1  14
TORSDOF 5
ENDMDL
MODEL 3
REMARK VINA RESULT:    -6.749      2.328      6.771
REMARK INTER + INTRA:          -9.254
REMARK INTER:                  -8.783
REMARK INTRA:                  -0.471
REMARK UNBOUND:                -0.533
REMARK  Name = 
REMARK  6 active torsions:
REMARK  status: ('A' for Active; 'I' for Inactive)
REMARK    1  A    between atoms: C_1  and  O_2
REMARK    2  A    between atoms: O_2  and  C_3
REMARK    3  A    between atoms: C_6  and  C_7
REMARK    4  A    between atoms: C_7  and  N_8
REMARK    5  A    between atoms: N_8  and  C_9
REMARK    6  A    between atoms: C_12  and  C_13
REMARK                            x       y       z     vdW  Elec       q    Type
REMARK                         _______ _______ _______ _____ _____    ______ ____
ROOT
ATOM      1  N   UNL     1      44.759   6.373  10.838  0.00  0.00    +0.000 N 
ATOM      2  H   UNL     1      44.646   6.789   9.915  0.00  0.00    +0.000 HD
ENDROOT
BRANCH   1   3
ATOM      3  C   UNL     1      45.715   7.028  11.632  0.00  0.00    +0.000 A 
ATOM      4  C   UNL     1      46.968   6.507  11.957  0.00  0.00    +0.000 A 
ATOM      5  C   UNL     1      47.779   7.128  12.918  0.00  0.00    +0.000 A 
ATOM      6  C   UNL     1      47.360   8.304  13.550  0.00  0.00    +0.000 A 
ATOM      7  C   UNL     1      46.127   8.858  13.206  0.00  0.00    +0.000 A 
ATOM      8  C   UNL     1      45.317   8.219  12.263  0.00  0.00    +0.000 A 
BRANCH   6   9
ATOM      9  C   UNL     1      48.210   8.890  14.619  0.00  0.00    +0.000 C 
ATOM     10  N   UNL     1      47.604   9.207  15.803  0.00  0.00    +0.000 N 
ATOM     11  O   UNL     1      49.404   9.101  14.447  0.00  0.00    +0.000 OA
ATOM     12  H   UNL     1      46.602   9.258  15.911  0.00  0.00    +0.000 HD
ATOM     13  H   UNL     1      48.178   9.676  16.491  0.00  0.00    +0.000 HD
ENDBRANCH   6   9
ENDBRANCH   1   3
BRANCH   1  14
ATOM     14  C   UNL     1      44.320   4.967  10.912  0.00  0.00    +0.000 C 
ATOM     15  C   UNL     1      43.815   4.274  12.164  0.00  0.00    +0.000 C 
ATOM     16  C   UNL     1      42.825   4.813  11.192  0.00  0.00    +0.000 C 
BRANCH  14  20
ATOM     17  C   UNL     1      46.070   2.521   7.913  0.00  0.00    +0.000 A 
ATOM     18  C   UNL     1      46.102   3.901   7.812  0.00  0.00    +0.000 A 
ATOM     19  N   UNL     1      45.541   4.719   8.742  0.00  0.00    +0.000 NA
ATOM     20  C   UNL     1      44.909   4.110   9.787  0.00  0.00    +0.000 A 
ATOM     21  C   UNL     1      44.888   2.713   9.856  0.00  0.00    +0.000 A 
ATOM     22  N   UNL     1      45.454   1.894   8.937  0.00  0.00    +0.000 NA
BRANCH  17  24
ATOM     23  C   UNL     1      47.941   2.358   6.530  0.00  0.00    +0.000 C 
ATOM     24  O   UNL     1      46.694   1.790   6.926  0.00  0.00    +0.000 OA
ENDBRANCH  17  24
ENDBRANCH  14  20
ENDBRANCH   1  14
TORSDOF 5
ENDMDL
MODEL 4
REMARK VINA RESULT:    -6.596      1.754      6.715
REMARK INTER + INTRA:          -9.057
REMARK INTER:                  -8.649
REMARK INTRA:                  -0.408
REMARK UNBOUND:                -0.533
REMARK  Name = 
REMARK  6 active torsions:
REMARK  status: ('A' for Active; 'I' for Inactive)
REMARK    1  A    between atoms: C_1  and  O_2
REMARK    2  A    between atoms: O_2  and  C_3
REMARK    3  A    between atoms: C_6  and  C_7
REMARK    4  A    between atoms: C_7  and  N_8
REMARK    5  A    between atoms: N_8  and  C_9
REMARK    6  A    between atoms: C_12  and  C_13
REMARK                            x       y       z     vdW  Elec       q    Type
REMARK                         _______ _______ _______ _____ _____    ______ ____
ROOT
ATOM      1  N   UNL     1      45.394   5.776  11.620  0.00  0.00    +0.000 N 
ATOM      2  H   UNL     1      45.704   6.474  10.945  0.00  0.00    +0.000 HD
ENDROOT
BRANCH   1   3
ATOM      3  C   UNL     1      46.277   5.616  12.700  0.00  0.00    +0.000 A 
ATOM      4  C   UNL     1      46.222   4.568  13.621  0.00  0.00    +0.000 A 
ATOM      5  C   UNL     1      47.005   4.591  14.784  0.00  0.00    +0.000 A 
ATOM      6  C   UNL     1      47.885   5.651  15.030  0.00  0.00    +0.000 A 
ATOM      7  C   UNL     1      47.980   6.685  14.098  0.00  0.00    +0.000 A 
ATOM      8  C   UNL     1      47.179   6.663  12.953  0.00  0.00    +0.000 A 
BRANCH   6   9
ATOM      9  C   UNL     1      48.640   5.679  16.309  0.00  0.00    +0.000 C 
ATOM     10  N   UNL     1      48.288   6.630  17.228  0.00  0.00    +0.000 N 
ATOM     11  O   UNL     1      49.556   4.898  16.532  0.00  0.00    +0.000 OA
ATOM     12  H   UNL     1      47.703   7.421  17.003  0.00  0.00    +0.000 HD
ATOM     13  H   UNL     1      48.862   6.687  18.059  0.00  0.00    +0.000 HD
ENDBRANCH   6   9
ENDBRANCH   1   3
BRANCH   1  14
ATOM     14  C   UNL     1      44.443   4.795  11.064  0.00  0.00    +0.000 C 
ATOM     15  C   UNL     1      43.326   4.125  11.843  0.00  0.00    +0.000 C 
ATOM     16  C   UNL     1      43.005   5.312  11.003  0.00  0.00    +0.000 C 
BRANCH  14  20
ATOM     17  C   UNL     1      46.069   2.778   7.699  0.00  0.00    +0.000 A 
ATOM     18  C   UNL     1      46.090   4.160   7.777  0.00  0.00    +0.000 A 
ATOM     19  N   UNL     1      45.568   4.844   8.829  0.00  0.00    +0.000 NA
ATOM     20  C   UNL     1      44.986   4.097   9.813  0.00  0.00    +0.000 A 
ATOM     21  C   UNL     1      44.974   2.704   9.701  0.00  0.00    +0.000 A 
ATOM     22  N   UNL     1      45.502   2.017   8.658  0.00  0.00    +0.000 NA
BRANCH  17  24
ATOM     23  C   UNL     1      47.980   1.739   6.859  0.00  0.00    +0.000 C 
ATOM     24  O   UNL     1      46.652   2.188   6.599  0.00  0.00    +0.000 OA
ENDBRANCH  17  24
ENDBRANCH  14  20
ENDBRANCH   1  14
TORSDOF 5
ENDMDL
MODEL 5
REMARK VINA RESULT:    -5.981      2.423      4.127
REMARK INTER + INTRA:          -8.262
REMARK INTER:                  -8.143
REMARK INTRA:                  -0.119
REMARK UNBOUND:                -0.533
REMARK  Name = 
REMARK  6 active torsions:
REMARK  status: ('A' for Active; 'I' for Inactive)
REMARK    1  A    between atoms: C_1  and  O_2
REMARK    2  A    between atoms: O_2  and  C_3
REMARK    3  A    between atoms: C_6  and  C_7
REMARK    4  A    between atoms: C_7  and  N_8
REMARK    5  A    between atoms: N_8  and  C_9
REMARK    6  A    between atoms: C_12  and  C_13
REMARK                            x       y       z     vdW  Elec       q    Type
REMARK                         _______ _______ _______ _____ _____    ______ ____
ROOT
ATOM      1  N   UNL     1      46.133   6.089  13.500  0.00  0.00    +0.000 N 
ATOM      2  H   UNL     1      45.482   6.234  14.269  0.00  0.00    +0.000 HD
ENDROOT
BRANCH   1   3
ATOM      3  C   UNL     1      45.601   5.313  12.457  0.00  0.00    +0.000 A 
ATOM      4  C   UNL     1      45.139   4.003  12.599  0.00  0.00    +0.000 A 
ATOM      5  C   UNL     1      44.815   3.229  11.475  0.00  0.00    +0.000 A 
ATOM      6  C   UNL     1      44.918   3.766  10.186  0.00  0.00    +0.000 A 
ATOM      7  C   UNL     1      45.340   5.087  10.032  0.00  0.00    +0.000 A 
ATOM      8  C   UNL     1      45.681   5.842  11.158  0.00  0.00    +0.000 A 
BRANCH   6   9
ATOM      9  C   UNL     1      44.642   2.891   9.017  0.00  0.00    +0.000 C 
ATOM     10  N   UNL     1      44.333   3.502   7.833  0.00  0.00    +0.000 N 
ATOM     11  O   UNL     1      44.668   1.670   9.107  0.00  0.00    +0.000 OA
ATOM     12  H   UNL     1      44.084   4.478   7.767  0.00  0.00    +0.000 HD
ATOM     13  H   UNL     1      44.071   2.894   7.068  0.00  0.00    +0.000 HD
ENDBRANCH   6   9
ENDBRANCH   1   3
BRANCH   1  14
ATOM     14  C   UNL     1      47.548   6.257  13.881  0.00  0.00    +0.000 C 
ATOM     15  C   UNL     1      48.659   6.690  12.944  0.00  0.00    +0.000 C 
ATOM     16  C   UNL     1      48.022   7.710  13.822  0.00  0.00    +0.000 C 
BRANCH  14  20
ATOM     17  C   UNL     1      48.410   4.081  17.425  0.00  0.00    +0.000 A 
ATOM     18  C   UNL     1      49.205   5.144  17.033  0.00  0.00    +0.000 A 
ATOM     19  N   UNL     1      48.972   5.856  15.899  0.00  0.00    +0.000 NA
ATOM     20  C   UNL     1      47.916   5.455  15.134  0.00  0.00    +0.000 A 
ATOM     21  C   UNL     1      47.136   4.373  15.553  0.00  0.00    +0.000 A 
ATOM     22  N   UNL     1      47.359   3.666  16.688  0.00  0.00    +0.000 NA
BRANCH  17  24
ATOM     23  C   UNL     1      48.700   4.332  19.725  0.00  0.00    +0.000 C 
ATOM     24  O   UNL     1      48.722   3.447  18.608  0.00  0.00    +0.000 OA
ENDBRANCH  17  24
ENDBRANCH  14  20
ENDBRANCH   1  14
TORSDOF 5
ENDMDL
MODEL 6
REMARK VINA RESULT:    -5.666      2.983      5.236
REMARK INTER + INTRA:          -7.855
REMARK INTER:                  -7.490
REMARK INTRA:                  -0.365
REMARK UNBOUND:                -0.533
REMARK  Name = 
REMARK  6 active torsions:
REMARK  status: ('A' for Active; 'I' for Inactive)
REMARK    1  A    between atoms: C_1  and  O_2
REMARK    2  A    between atoms: O_2  and  C_3
REMARK    3  A    between atoms: C_6  and  C_7
REMARK    4  A    between atoms: C_7  and  N_8
REMARK    5  A    between atoms: N_8  and  C_9
REMARK    6  A    between atoms: C_12  and  C_13
REMARK                            x       y       z     vdW  Elec       q    Type
REMARK                         _______ _______ _______ _____ _____    ______ ____
ROOT
ATOM      1  N   UNL     1      47.017   6.848  13.958  0.00  0.00    +0.000 N 
ATOM      2  H   UNL     1      46.403   6.912  14.769  0.00  0.00    +0.000 HD
ENDROOT
BRANCH   1   3
ATOM      3  C   UNL     1      46.484   6.073  12.916  0.00  0.00    +0.000 A 
ATOM      4  C   UNL     1      46.373   6.496  11.590  0.00  0.00    +0.000 A 
ATOM      5  C   UNL     1      45.645   5.746  10.655  0.00  0.00    +0.000 A 
ATOM      6  C   UNL     1      45.039   4.540  11.024  0.00  0.00    +0.000 A 
ATOM      7  C   UNL     1      45.177   4.085  12.336  0.00  0.00    +0.000 A 
ATOM      8  C   UNL     1      45.886   4.850  13.266  0.00  0.00    +0.000 A 
BRANCH   6   9
ATOM      9  C   UNL     1      44.211   3.814  10.027  0.00  0.00    +0.000 C 
ATOM     10  N   UNL     1      44.083   4.375   8.786  0.00  0.00    +0.000 N 
ATOM     11  O   UNL     1      43.647   2.763  10.303  0.00  0.00    +0.000 OA
ATOM     12  H   UNL     1      44.339   5.331   8.586  0.00  0.00    +0.000 HD
ATOM     13  H   UNL     1      43.453   3.911   8.145  0.00  0.00    +0.000 HD
ENDBRANCH   6   9
ENDBRANCH   1   3
BRANCH   1  14
ATOM     14  C   UNL     1      48.435   7.113  14.266  0.00  0.00    +0.000 C 
ATOM     15  C   UNL     1      49.462   7.626  13.274  0.00  0.00    +0.000 C 
ATOM     16  C   UNL     1      48.804   8.595  14.193  0.00  0.00    +0.000 C 
BRANCH  14  20
ATOM     17  C   UNL     1      49.678   5.049  17.764  0.00  0.00    +0.000 A 
ATOM     18  C   UNL     1      50.576   5.798  17.024  0.00  0.00    +0.000 A 
ATOM     19  N   UNL     1      50.222   6.461  15.892  0.00  0.00    +0.000 NA
ATOM     20  C   UNL     1      48.924   6.333  15.491  0.00  0.00    +0.000 A 
ATOM     21  C   UNL     1      48.042   5.563  16.256  0.00  0.00    +0.000 A 
ATOM     22  N   UNL     1      48.388   4.909  17.391  0.00  0.00    +0.000 NA
BRANCH  17  24
ATOM     23  C   UNL     1      49.362   4.777  20.058  0.00  0.00    +0.000 C 
ATOM     24  O   UNL     1      50.139   4.441  18.911  0.00  0.00    +0.000 OA
ENDBRANCH  17  24
ENDBRANCH  14  20
ENDBRANCH   1  14
TORSDOF 5
ENDMDL
MODEL 7
REMARK VINA RESULT:    -5.570      4.598      9.069
REMARK INTER + INTRA:          -7.731
REMARK INTER:                  -7.219
REMARK INTRA:                  -0.512
REMARK UNBOUND:                -0.533
REMARK  Name = 
REMARK  6 active torsions:
REMARK  status: ('A' for Active; 'I' for Inactive)
REMARK    1  A    between atoms: C_1  and  O_2
REMARK    2  A    between atoms: O_2  and  C_3
REMARK    3  A    between atoms: C_6  and  C_7
REMARK    4  A    between atoms: C_7  and  N_8
REMARK    5  A    between atoms: N_8  and  C_9
REMARK    6  A    between atoms: C_12  and  C_13
REMARK                            x       y       z     vdW  Elec       q    Type
REMARK                         _______ _______ _______ _____ _____    ______ ____
ROOT
ATOM      1  N   UNL     1      50.439   4.960  17.387  0.00  0.00    +0.000 N 
ATOM      2  H   UNL     1      50.846   5.523  16.641  0.00  0.00    +0.000 HD
ENDROOT
BRANCH   1   3
ATOM      3  C   UNL     1      51.181   3.804  17.679  0.00  0.00    +0.000 A 
ATOM      4  C   UNL     1      52.490   3.803  18.164  0.00  0.00    +0.000 A 
ATOM      5  C   UNL     1      53.231   2.614  18.235  0.00  0.00    +0.000 A 
ATOM      6  C   UNL     1      52.660   1.396  17.850  0.00  0.00    +0.000 A 
ATOM      7  C   UNL     1      51.339   1.376  17.402  0.00  0.00    +0.000 A 
ATOM      8  C   UNL     1      50.617   2.570  17.315  0.00  0.00    +0.000 A 
BRANCH   6   9
ATOM      9  C   UNL     1      53.500   0.170  17.865  0.00  0.00    +0.000 C 
ATOM     10  N   UNL     1      53.916  -0.323  16.659  0.00  0.00    +0.000 N 
ATOM     11  O   UNL     1      53.796  -0.394  18.911  0.00  0.00    +0.000 OA
ATOM     12  H   UNL     1      53.520  -0.029  15.779  0.00  0.00    +0.000 HD
ATOM     13  H   UNL     1      54.419  -1.201  16.682  0.00  0.00    +0.000 HD
ENDBRANCH   6   9
ENDBRANCH   1   3
BRANCH   1  14
ATOM     14  C   UNL     1      48.997   5.194  17.587  0.00  0.00    +0.000 C 
ATOM     15  C   UNL     1      48.245   4.946  18.882  0.00  0.00    +0.000 C 
ATOM     16  C   UNL     1      48.698   6.329  18.568  0.00  0.00    +0.000 C 
BRANCH  14  20
ATOM     17  C   UNL     1      46.896   5.012  13.901  0.00  0.00    +0.000 A 
ATOM     18  C   UNL     1      47.829   6.006  14.139  0.00  0.00    +0.000 A 
ATOM     19  N   UNL     1      48.512   6.108  15.309  0.00  0.00    +0.000 NA
ATOM     20  C   UNL     1      48.214   5.187  16.271  0.00  0.00    +0.000 A 
ATOM     21  C   UNL     1      47.260   4.200  16.003  0.00  0.00    +0.000 A 
ATOM     22  N   UNL     1      46.584   4.088  14.834  0.00  0.00    +0.000 NA
BRANCH  17  24
ATOM     23  C   UNL     1      45.172   4.095  12.627  0.00  0.00    +0.000 C 
ATOM     24  O   UNL     1      46.283   4.987  12.668  0.00  0.00    +0.000 OA
ENDBRANCH  17  24
ENDBRANCH  14  20
ENDBRANCH   1  14
TORSDOF 5
ENDMDL
MODEL 8
REMARK VINA RESULT:    -5.455      3.306      5.218
REMARK INTER + INTRA:          -7.583
REMARK INTER:                  -7.158
REMARK INTRA:                  -0.425
REMARK UNBOUND:                -0.533
REMARK  Name = 
REMARK  6 active torsions:
REMARK  status: ('A' for Active; 'I' for Inactive)
REMARK    1  A    between atoms: C_1  and  O_2
REMARK    2  A    between atoms: O_2  and  C_3
REMARK    3  A    between atoms: C_6  and  C_7
REMARK    4  A    between atoms: C_7  and  N_8
REMARK    5  A    between atoms: N_8  and  C_9
REMARK    6  A    between atoms: C_12  and  C_13
REMARK                            x       y       z     vdW  Elec       q    Type
REMARK                         _______ _______ _______ _____ _____    ______ ____
ROOT
ATOM      1  N   UNL     1      46.716   7.571  12.735  0.00  0.00    +0.000 N 
ATOM      2  H   UNL     1      46.213   8.305  13.231  0.00  0.00    +0.000 HD
ENDROOT
BRANCH   1   3
ATOM      3  C   UNL     1      45.902   6.487  12.369  0.00  0.00    +0.000 A 
ATOM      4  C   UNL     1      45.364   5.561  13.264  0.00  0.00    +0.000 A 
ATOM      5  C   UNL     1      44.736   4.395  12.802  0.00  0.00    +0.000 A 
ATOM      6  C   UNL     1      44.606   4.151  11.430  0.00  0.00    +0.000 A 
ATOM      7  C   UNL     1      45.103   5.089  10.524  0.00  0.00    +0.000 A 
ATOM      8  C   UNL     1      45.747   6.236  10.995  0.00  0.00    +0.000 A 
BRANCH   6   9
ATOM      9  C   UNL     1      44.005   2.869  10.979  0.00  0.00    +0.000 C 
ATOM     10  N   UNL     1      44.587   2.242   9.913  0.00  0.00    +0.000 N 
ATOM     11  O   UNL     1      43.015   2.397  11.524  0.00  0.00    +0.000 OA
ATOM     12  H   UNL     1      45.251   2.695   9.304  0.00  0.00    +0.000 HD
ATOM     13  H   UNL     1      44.119   1.413   9.569  0.00  0.00    +0.000 HD
ENDBRANCH   6   9
ENDBRANCH   1   3
BRANCH   1  14
ATOM     14  C   UNL     1      48.170   7.579  12.982  0.00  0.00    +0.000 C 
ATOM     15  C   UNL     1      49.226   7.132  11.989  0.00  0.00    +0.000 C 
ATOM     16  C   UNL     1      48.927   8.585  12.115  0.00  0.00    +0.000 C 
BRANCH  14  20
ATOM     17  C   UNL     1      49.227   7.644  17.095  0.00  0.00    +0.000 A 
ATOM     18  C   UNL     1      49.466   6.524  16.318  0.00  0.00    +0.000 A 
ATOM     19  N   UNL     1      49.130   6.457  15.003  0.00  0.00    +0.000 NA
ATOM     20  C   UNL     1      48.510   7.553  14.476  0.00  0.00    +0.000 A 
ATOM     21  C   UNL     1      48.276   8.666  15.289  0.00  0.00    +0.000 A 
ATOM     22  N   UNL     1      48.619   8.741  16.598  0.00  0.00    +0.000 NA
BRANCH  17  24
ATOM     23  C   UNL     1      48.583   7.249  19.301  0.00  0.00    +0.000 C 
ATOM     24  O   UNL     1      49.635   7.612  18.411  0.00  0.00    +0.000 OA
ENDBRANCH  17  24
ENDBRANCH  14  20
ENDBRANCH   1  14
TORSDOF 5
ENDMDL
MODEL 9
REMARK VINA RESULT:    -5.391      2.722      7.863
REMARK INTER + INTRA:          -7.500
REMARK INTER:                  -7.517
REMARK INTRA:                   0.018
REMARK UNBOUND:                -0.533
REMARK  Name = 
REMARK  6 active torsions:
REMARK  status: ('A' for Active; 'I' for Inactive)
REMARK    1  A    between atoms: C_1  and  O_2
REMARK    2  A    between atoms: O_2  and  C_3
REMARK    3  A    between atoms: C_6  and  C_7
REMARK    4  A    between atoms: C_7  and  N_8
REMARK    5  A    between atoms: N_8  and  C_9
REMARK    6  A    between atoms: C_12  and  C_13
REMARK                            x       y       z     vdW  Elec       q    Type
REMARK                         _______ _______ _______ _____ _____    ______ ____
ROOT
ATOM      1  N   UNL     1      47.879   5.890  13.631  0.00  0.00    +0.000 N 
ATOM      2  H   UNL     1      48.482   5.255  13.111  0.00  0.00    +0.000 HD
ENDROOT
BRANCH   1   3
ATOM      3  C   UNL     1      47.927   5.691  15.021  0.00  0.00    +0.000 A 
ATOM      4  C   UNL     1      48.706   6.441  15.903  0.00  0.00    +0.000 A 
ATOM      5  C   UNL     1      48.857   6.050  17.241  0.00  0.00    +0.000 A 
ATOM      6  C   UNL     1      48.201   4.914  17.729  0.00  0.00    +0.000 A 
ATOM      7  C   UNL     1      47.386   4.178  16.868  0.00  0.00    +0.000 A 
ATOM      8  C   UNL     1      47.260   4.565  15.531  0.00  0.00    +0.000 A 
BRANCH   6   9
ATOM      9  C   UNL     1      48.446   4.486  19.131  0.00  0.00    +0.000 C 
ATOM     10  N   UNL     1      48.389   3.146  19.399  0.00  0.00    +0.000 N 
ATOM     11  O   UNL     1      48.672   5.297  20.020  0.00  0.00    +0.000 OA
ATOM     12  H   UNL     1      47.994   2.474  18.759  0.00  0.00    +0.000 HD
ATOM     13  H   UNL     1      48.480   2.878  20.371  0.00  0.00    +0.000 HD
ENDBRANCH   6   9
ENDBRANCH   1   3
BRANCH   1  14
ATOM     14  C   UNL     1      46.779   6.455  12.827  0.00  0.00    +0.000 C 
ATOM     15  C   UNL     1      46.061   7.758  13.124  0.00  0.00    +0.000 C 
ATOM     16  C   UNL     1      47.155   7.755  12.115  0.00  0.00    +0.000 C 
BRANCH  14  20
ATOM     17  C   UNL     1      44.632   3.620  10.505  0.00  0.00    +0.000 A 
ATOM     18  C   UNL     1      44.967   3.353  11.822  0.00  0.00    +0.000 A 
ATOM     19  N   UNL     1      45.665   4.226  12.594  0.00  0.00    +0.000 NA
ATOM     20  C   UNL     1      46.054   5.391  11.997  0.00  0.00    +0.000 A 
ATOM     21  C   UNL     1      45.707   5.628  10.664  0.00  0.00    +0.000 A 
ATOM     22  N   UNL     1      45.002   4.764   9.893  0.00  0.00    +0.000 NA
BRANCH  17  24
ATOM     23  C   UNL     1      44.695   1.903   8.929  0.00  0.00    +0.000 C 
ATOM     24  O   UNL     1      43.897   2.675   9.824  0.00  0.00    +0.000 OA
ENDBRANCH  17  24
ENDBRANCH  14  20
ENDBRANCH   1  14
TORSDOF 5
ENDMDL
