MODEL 1
REMARK VINA RESULT:    -7.413      0.000      0.000
REMARK INTER + INTRA:         -13.051
REMARK INTER:                 -11.313
REMARK INTRA:                  -1.738
REMARK UNBOUND:                -1.738
REMARK  Name = 
REMARK  10 active torsions:
REMARK  status: ('A' for Active; 'I' for Inactive)
REMARK    1  A    between atoms: C_1  and  C_2
REMARK    2  A    between atoms: C_2  and  O_3
REMARK    3  A    between atoms: O_3  and  C_4
REMARK    4  A    between atoms: C_4  and  C_5
REMARK    5  A    between atoms: C_5  and  N_6
REMARK    6  A    between atoms: N_6  and  C_7
REMARK    7  A    between atoms: C_7  and  C_8
REMARK    8  A    between atoms: C_11  and  C_12
REMARK    9  A    between atoms: C_12  and  C_13
REMARK   10  A    between atoms: C_21  and  C_23
REMARK                            x       y       z     vdW  Elec       q    Type
REMARK                         _______ _______ _______ _____ _____    ______ ____
ROOT
ATOM      1  N   UNL     1      46.265   7.059  12.278  0.00  0.00    +0.000 N 
ATOM      2  C   UNL     1      45.013   6.728  11.711  0.00  0.00    +0.000 C 
ATOM      3  O   UNL     1      44.244   7.606  11.325  0.00  0.00    +0.000 OA
ENDROOT
BRANCH   2   4
ATOM      4  C   UNL     1      44.604   5.312  11.593  0.00  0.00    +0.000 A 
ATOM      5  C   UNL     1      43.839   4.626  12.525  0.00  0.00    +0.000 A 
ATOM      6  S   UNL     1      43.489   3.014  12.080  0.00  0.00    +0.000 S 
ATOM      7  C   UNL     1      44.213   3.223  10.558  0.00  0.00    +0.000 A 
ATOM      8  N   UNL     1      44.163   2.241   9.620  0.00  0.00    +0.000 NA
ATOM      9  C   UNL     1      44.693   2.562   8.488  0.00  0.00    +0.000 A 
ATOM     10  N   UNL     1      45.308   3.760   8.223  0.00  0.00    +0.000 N 
ATOM     11  C   UNL     1      45.502   4.726   9.181  0.00  0.00    +0.000 A 
ATOM     12  O   UNL     1      46.260   5.670   8.988  0.00  0.00    +0.000 OA
ATOM     13  C   UNL     1      44.806   4.468  10.435  0.00  0.00    +0.000 A 
ATOM     14  H   UNL     1      45.765   3.917   7.339  0.00  0.00    +0.000 HD
ENDBRANCH   2   4
BRANCH   1  15
ATOM     15  C   UNL     1      46.611   8.489  12.374  0.00  0.00    +0.000 C 
BRANCH  15  16
ATOM     16  C   UNL     1      48.049   8.894  11.987  0.00  0.00    +0.000 C 
BRANCH  16  17
ATOM     17  O   UNL     1      48.917   9.142  13.108  0.00  0.00    +0.000 OA
BRANCH  17  19
ATOM     18  C   UNL     1      50.241   7.813  11.531  0.00  0.00    +0.000 C 
ATOM     19  C   UNL     1      50.137   8.403  12.926  0.00  0.00    +0.000 C 
ENDBRANCH  17  19
ENDBRANCH  16  17
ENDBRANCH  15  16
ENDBRANCH   1  15
BRANCH   1  20
ATOM     20  C   UNL     1      47.245   6.037  12.637  0.00  0.00    +0.000 C 
BRANCH  20  21
ATOM     21  C   UNL     1      47.372   5.547  14.051  0.00  0.00    +0.000 A 
ATOM     22  C   UNL     1      48.129   6.223  15.009  0.00  0.00    +0.000 A 
ATOM     23  C   UNL     1      48.427   5.595  16.219  0.00  0.00    +0.000 A 
ATOM     24  C   UNL     1      47.962   4.300  16.438  0.00  0.00    +0.000 A 
ATOM     25  N   UNL     1      47.151   3.664  15.557  0.00  0.00    +0.000 NA
ATOM     26  C   UNL     1      46.868   4.299  14.400  0.00  0.00    +0.000 A 
BRANCH  24  27
ATOM     27  C   UNL     1      48.420   3.504  17.641  0.00  0.00    +0.000 C 
BRANCH  27  28
ATOM     28  C   UNL     1      49.878   3.112  17.638  0.00  0.00    +0.000 A 
ATOM     29  C   UNL     1      50.864   4.026  18.037  0.00  0.00    +0.000 A 
ATOM     30  C   UNL     1      52.209   3.655  18.061  0.00  0.00    +0.000 A 
ATOM     31  C   UNL     1      52.580   2.362  17.699  0.00  0.00    +0.000 A 
ATOM     32  C   UNL     1      51.608   1.437  17.322  0.00  0.00    +0.000 A 
ATOM     33  C   UNL     1      50.263   1.809  17.294  0.00  0.00    +0.000 A 
ENDBRANCH  27  28
ENDBRANCH  24  27
ENDBRANCH  20  21
ENDBRANCH   1  20
TORSDOF 9
ENDMDL
MODEL 2
REMARK VINA RESULT:    -6.781      1.387      2.200
REMARK INTER + INTRA:         -12.087
REMARK INTER:                 -10.638
REMARK INTRA:                  -1.449
REMARK UNBOUND:                -1.738
REMARK  Name = 
REMARK  10 active torsions:
REMARK  status: ('A' for Active; 'I' for Inactive)
REMARK    1  A    between atoms: C_1  and  C_2
REMARK    2  A    between atoms: C_2  and  O_3
REMARK    3  A    between atoms: O_3  and  C_4
REMARK    4  A    between atoms: C_4  and  C_5
REMARK    5  A    between atoms: C_5  and  N_6
REMARK    6  A    between atoms: N_6  and  C_7
REMARK    7  A    between atoms: C_7  and  C_8
REMARK    8  A    between atoms: C_11  and  C_12
REMARK    9  A    between atoms: C_12  and  C_13
REMARK   10  A    between atoms: C_21  and  C_23
REMARK                            x       y       z     vdW  Elec       q    Type
REMARK                         _______ _______ _______ _____ _____    ______ ____
ROOT
ATOM      1  N   UNL     1      46.465   7.342  12.320  0.00  0.00    +0.000 N 
ATOM      2  C   UNL     1      45.393   7.243  11.405  0.00  0.00    +0.000 C 
ATOM      3  O   UNL     1      44.674   8.212  11.167  0.00  0.00    +0.000 OA
ENDROOT
BRANCH   2   4
ATOM      4  C   UNL     1      45.110   5.956  10.732  0.00  0.00    +0.000 A 
ATOM      5  C   UNL     1      45.609   5.581   9.493  0.00  0.00    +0.000 A 
ATOM      6  S   UNL     1      45.141   4.012   9.006  0.00  0.00    +0.000 S 
ATOM      7  C   UNL     1      44.386   3.718  10.499  0.00  0.00    +0.000 A 
ATOM      8  N   UNL     1      43.866   2.497  10.790  0.00  0.00    +0.000 NA
ATOM      9  C   UNL     1      43.385   2.397  11.982  0.00  0.00    +0.000 A 
ATOM     10  N   UNL     1      43.337   3.420  12.896  0.00  0.00    +0.000 N 
ATOM     11  C   UNL     1      43.726   4.704  12.599  0.00  0.00    +0.000 A 
ATOM     12  O   UNL     1      43.448   5.641  13.339  0.00  0.00    +0.000 OA
ATOM     13  C   UNL     1      44.398   4.838  11.312  0.00  0.00    +0.000 A 
ATOM     14  H   UNL     1      42.882   3.292  13.786  0.00  0.00    +0.000 HD
ENDBRANCH   2   4
BRANCH   1  15
ATOM     15  C   UNL     1      46.691   8.650  12.963  0.00  0.00    +0.000 C 
BRANCH  15  16
ATOM     16  C   UNL     1      47.874   9.495  12.447  0.00  0.00    +0.000 C 
BRANCH  16  17
ATOM     17  O   UNL     1      48.833   9.853  13.459  0.00  0.00    +0.000 OA
BRANCH  17  19
ATOM     18  C   UNL     1      50.855   9.100  14.620  0.00  0.00    +0.000 C 
ATOM     19  C   UNL     1      49.732   8.749  13.662  0.00  0.00    +0.000 C 
ENDBRANCH  17  19
ENDBRANCH  16  17
ENDBRANCH  15  16
ENDBRANCH   1  15
BRANCH   1  20
ATOM     20  C   UNL     1      47.404   6.243  12.534  0.00  0.00    +0.000 C 
BRANCH  20  21
ATOM     21  C   UNL     1      47.371   5.431  13.797  0.00  0.00    +0.000 A 
ATOM     22  C   UNL     1      47.751   5.957  15.033  0.00  0.00    +0.000 A 
ATOM     23  C   UNL     1      47.953   5.097  16.113  0.00  0.00    +0.000 A 
ATOM     24  C   UNL     1      47.774   3.728  15.928  0.00  0.00    +0.000 A 
ATOM     25  N   UNL     1      47.319   3.210  14.760  0.00  0.00    +0.000 NA
ATOM     26  C   UNL     1      47.120   4.064  13.734  0.00  0.00    +0.000 A 
BRANCH  24  27
ATOM     27  C   UNL     1      48.170   2.741  17.004  0.00  0.00    +0.000 C 
BRANCH  27  28
ATOM     28  C   UNL     1      49.631   2.750  17.382  0.00  0.00    +0.000 A 
ATOM     29  C   UNL     1      50.464   1.676  17.039  0.00  0.00    +0.000 A 
ATOM     30  C   UNL     1      51.821   1.697  17.364  0.00  0.00    +0.000 A 
ATOM     31  C   UNL     1      52.362   2.799  18.022  0.00  0.00    +0.000 A 
ATOM     32  C   UNL     1      51.549   3.884  18.348  0.00  0.00    +0.000 A 
ATOM     33  C   UNL     1      50.191   3.861  18.027  0.00  0.00    +0.000 A 
ENDBRANCH  27  28
ENDBRANCH  24  27
ENDBRANCH  20  21
ENDBRANCH   1  20
TORSDOF 9
ENDMDL
MODEL 3
REMARK VINA RESULT:    -6.749      3.381      7.639
REMARK INTER + INTRA:         -12.038
REMARK INTER:                 -10.186
REMARK INTRA:                  -1.852
REMARK UNBOUND:                -1.738
REMARK  Name = 
REMARK  10 active torsions:
REMARK  status: ('A' for Active; 'I' for Inactive)
REMARK    1  A    between atoms: C_1  and  C_2
REMARK    2  A    between atoms: C_2  and  O_3
REMARK    3  A    between atoms: O_3  and  C_4
REMARK    4  A    between atoms: C_4  and  C_5
REMARK    5  A    between atoms: C_5  and  N_6
REMARK    6  A    between atoms: N_6  and  C_7
REMARK    7  A    between atoms: C_7  and  C_8
REMARK    8  A    between atoms: C_11  and  C_12
REMARK    9  A    between atoms: C_12  and  C_13
REMARK   10  A    between atoms: C_21  and  C_23
REMARK                            x       y       z     vdW  Elec       q    Type
REMARK                         _______ _______ _______ _____ _____    ______ ____
ROOT
ATOM      1  N   UNL     1      48.826   7.399  13.745  0.00  0.00    +0.000 N 
ATOM      2  C   UNL     1      49.704   7.556  14.841  0.00  0.00    +0.000 C 
ATOM      3  O   UNL     1      50.917   7.408  14.703  0.00  0.00    +0.000 OA
ENDROOT
BRANCH   2   4
ATOM      4  C   UNL     1      49.168   7.884  16.180  0.00  0.00    +0.000 A 
ATOM      5  C   UNL     1      49.049   9.166  16.696  0.00  0.00    +0.000 A 
ATOM      6  S   UNL     1      48.346   9.222  18.252  0.00  0.00    +0.000 S 
ATOM      7  C   UNL     1      48.034   7.552  18.227  0.00  0.00    +0.000 A 
ATOM      8  N   UNL     1      47.337   6.957  19.230  0.00  0.00    +0.000 NA
ATOM      9  C   UNL     1      47.114   5.700  19.047  0.00  0.00    +0.000 A 
ATOM     10  N   UNL     1      47.562   4.974  17.973  0.00  0.00    +0.000 N 
ATOM     11  C   UNL     1      48.384   5.502  17.006  0.00  0.00    +0.000 A 
ATOM     12  O   UNL     1      48.965   4.783  16.201  0.00  0.00    +0.000 OA
ATOM     13  C   UNL     1      48.554   6.947  17.096  0.00  0.00    +0.000 A 
ATOM     14  H   UNL     1      47.413   3.978  17.929  0.00  0.00    +0.000 HD
ENDBRANCH   2   4
BRANCH   1  15
ATOM     15  C   UNL     1      49.421   7.066  12.438  0.00  0.00    +0.000 C 
BRANCH  15  16
ATOM     16  C   UNL     1      49.348   8.141  11.334  0.00  0.00    +0.000 C 
BRANCH  16  17
ATOM     17  O   UNL     1      49.755   9.455  11.760  0.00  0.00    +0.000 OA
BRANCH  17  19
ATOM     18  C   UNL     1      47.621  10.660  11.793  0.00  0.00    +0.000 C 
ATOM     19  C   UNL     1      48.945  10.435  11.087  0.00  0.00    +0.000 C 
ENDBRANCH  17  19
ENDBRANCH  16  17
ENDBRANCH  15  16
ENDBRANCH   1  15
BRANCH   1  20
ATOM     20  C   UNL     1      47.396   7.682  13.853  0.00  0.00    +0.000 C 
BRANCH  20  21
ATOM     21  C   UNL     1      46.376   6.765  13.243  0.00  0.00    +0.000 A 
ATOM     22  C   UNL     1      46.476   5.375  13.328  0.00  0.00    +0.000 A 
ATOM     23  C   UNL     1      45.658   4.576  12.528  0.00  0.00    +0.000 A 
ATOM     24  C   UNL     1      44.760   5.190  11.657  0.00  0.00    +0.000 A 
ATOM     25  N   UNL     1      44.586   6.535  11.628  0.00  0.00    +0.000 NA
ATOM     26  C   UNL     1      45.381   7.284  12.420  0.00  0.00    +0.000 A 
BRANCH  24  27
ATOM     27  C   UNL     1      43.995   4.381  10.633  0.00  0.00    +0.000 C 
BRANCH  27  28
ATOM     28  C   UNL     1      44.838   3.750   9.551  0.00  0.00    +0.000 A 
ATOM     29  C   UNL     1      45.546   4.547   8.641  0.00  0.00    +0.000 A 
ATOM     30  C   UNL     1      46.346   3.964   7.658  0.00  0.00    +0.000 A 
ATOM     31  C   UNL     1      46.459   2.577   7.584  0.00  0.00    +0.000 A 
ATOM     32  C   UNL     1      45.778   1.774   8.498  0.00  0.00    +0.000 A 
ATOM     33  C   UNL     1      44.974   2.357   9.478  0.00  0.00    +0.000 A 
ENDBRANCH  27  28
ENDBRANCH  24  27
ENDBRANCH  20  21
ENDBRANCH   1  20
TORSDOF 9
ENDMDL
MODEL 4
REMARK VINA RESULT:    -6.634      3.083      7.807
REMARK INTER + INTRA:         -11.863
REMARK INTER:                 -10.631
REMARK INTRA:                  -1.232
REMARK UNBOUND:                -1.738
REMARK  Name = 
REMARK  10 active torsions:
REMARK  status: ('A' for Active; 'I' for Inactive)
REMARK    1  A    between atoms: C_1  and  C_2
REMARK    2  A    between atoms: C_2  and  O_3
REMARK    3  A    between atoms: O_3  and  C_4
REMARK    4  A    between atoms: C_4  and  C_5
REMARK    5  A    between atoms: C_5  and  N_6
REMARK    6  A    between atoms: N_6  and  C_7
REMARK    7  A    between atoms: C_7  and  C_8
REMARK    8  A    between atoms: C_11  and  C_12
REMARK    9  A    between atoms: C_12  and  C_13
REMARK   10  A    between atoms: C_21  and  C_23
REMARK                            x       y       z     vdW  Elec       q    Type
REMARK                         _______ _______ _______ _____ _____    ______ ____
ROOT
ATOM      1  N   UNL     1      47.439   5.651  14.933  0.00  0.00    +0.000 N 
ATOM      2  C   UNL     1      48.573   6.419  15.282  0.00  0.00    +0.000 C 
ATOM      3  O   UNL     1      49.462   5.947  15.989  0.00  0.00    +0.000 OA
ENDROOT
BRANCH   2   4
ATOM      4  C   UNL     1      48.694   7.817  14.814  0.00  0.00    +0.000 A 
ATOM      5  C   UNL     1      48.426   8.939  15.586  0.00  0.00    +0.000 A 
ATOM      6  S   UNL     1      48.709  10.417  14.777  0.00  0.00    +0.000 S 
ATOM      7  C   UNL     1      49.346   9.613  13.423  0.00  0.00    +0.000 A 
ATOM      8  N   UNL     1      49.885  10.309  12.388  0.00  0.00    +0.000 NA
ATOM      9  C   UNL     1      50.392   9.570  11.460  0.00  0.00    +0.000 A 
ATOM     10  N   UNL     1      50.370   8.198  11.452  0.00  0.00    +0.000 N 
ATOM     11  C   UNL     1      49.717   7.457  12.407  0.00  0.00    +0.000 A 
ATOM     12  O   UNL     1      49.502   6.261  12.249  0.00  0.00    +0.000 OA
ATOM     13  C   UNL     1      49.244   8.238  13.544  0.00  0.00    +0.000 A 
ATOM     14  H   UNL     1      50.722   7.684  10.660  0.00  0.00    +0.000 HD
ENDBRANCH   2   4
BRANCH   1  15
ATOM     15  C   UNL     1      47.374   4.266  15.436  0.00  0.00    +0.000 C 
BRANCH  15  16
ATOM     16  C   UNL     1      47.079   4.075  16.938  0.00  0.00    +0.000 C 
BRANCH  16  17
ATOM     17  O   UNL     1      47.635   2.873  17.503  0.00  0.00    +0.000 OA
BRANCH  17  19
ATOM     18  C   UNL     1      50.055   2.497  17.401  0.00  0.00    +0.000 C 
ATOM     19  C   UNL     1      48.723   2.428  16.675  0.00  0.00    +0.000 C 
ENDBRANCH  17  19
ENDBRANCH  16  17
ENDBRANCH  15  16
ENDBRANCH   1  15
BRANCH   1  20
ATOM     20  C   UNL     1      46.427   6.146  14.002  0.00  0.00    +0.000 C 
BRANCH  20  21
ATOM     21  C   UNL     1      46.203   5.481  12.674  0.00  0.00    +0.000 A 
ATOM     22  C   UNL     1      46.225   6.189  11.472  0.00  0.00    +0.000 A 
ATOM     23  C   UNL     1      45.755   5.581  10.307  0.00  0.00    +0.000 A 
ATOM     24  C   UNL     1      45.269   4.277  10.376  0.00  0.00    +0.000 A 
ATOM     25  N   UNL     1      45.325   3.544  11.516  0.00  0.00    +0.000 NA
ATOM     26  C   UNL     1      45.795   4.151  12.626  0.00  0.00    +0.000 A 
BRANCH  24  27
ATOM     27  C   UNL     1      44.570   3.646   9.192  0.00  0.00    +0.000 C 
BRANCH  27  28
ATOM     28  C   UNL     1      45.471   2.920   8.223  0.00  0.00    +0.000 A 
ATOM     29  C   UNL     1      45.970   3.573   7.087  0.00  0.00    +0.000 A 
ATOM     30  C   UNL     1      46.825   2.910   6.206  0.00  0.00    +0.000 A 
ATOM     31  C   UNL     1      47.201   1.593   6.459  0.00  0.00    +0.000 A 
ATOM     32  C   UNL     1      46.730   0.941   7.597  0.00  0.00    +0.000 A 
ATOM     33  C   UNL     1      45.871   1.601   8.477  0.00  0.00    +0.000 A 
ENDBRANCH  27  28
ENDBRANCH  24  27
ENDBRANCH  20  21
ENDBRANCH   1  20
TORSDOF 9
ENDMDL
MODEL 5
REMARK VINA RESULT:    -6.617      2.599      7.522
REMARK INTER + INTRA:         -11.837
REMARK INTER:                 -10.147
REMARK INTRA:                  -1.690
REMARK UNBOUND:                -1.738
REMARK  Name = 
REMARK  10 active torsions:
REMARK  status: ('A' for Active; 'I' for Inactive)
REMARK    1  A    between atoms: C_1  and  C_2
REMARK    2  A    between atoms: C_2  and  O_3
REMARK    3  A    between atoms: O_3  and  C_4
REMARK    4  A    between atoms: C_4  and  C_5
REMARK    5  A    between atoms: C_5  and  N_6
REMARK    6  A    between atoms: N_6  and  C_7
REMARK    7  A    between atoms: C_7  and  C_8
REMARK    8  A    between atoms: C_11  and  C_12
REMARK    9  A    between atoms: C_12  and  C_13
REMARK   10  A    between atoms: C_21  and  C_23
REMARK                            x       y       z     vdW  Elec       q    Type
REMARK                         _______ _______ _______ _____ _____    ______ ____
ROOT
ATOM      1  N   UNL     1      48.641   7.320  15.580  0.00  0.00    +0.000 N 
ATOM      2  C   UNL     1      48.501   6.848  16.904  0.00  0.00    +0.000 C 
ATOM      3  O   UNL     1      48.396   7.632  17.845  0.00  0.00    +0.000 OA
ENDROOT
BRANCH   2   4
ATOM      4  C   UNL     1      48.500   5.394  17.177  0.00  0.00    +0.000 A 
ATOM      5  C   UNL     1      47.376   4.582  17.151  0.00  0.00    +0.000 A 
ATOM      6  S   UNL     1      47.706   2.935  17.460  0.00  0.00    +0.000 S 
ATOM      7  C   UNL     1      49.380   3.222  17.486  0.00  0.00    +0.000 A 
ATOM      8  N   UNL     1      50.263   2.196  17.600  0.00  0.00    +0.000 NA
ATOM      9  C   UNL     1      51.501   2.553  17.536  0.00  0.00    +0.000 A 
ATOM     10  N   UNL     1      51.937   3.848  17.413  0.00  0.00    +0.000 N 
ATOM     11  C   UNL     1      51.086   4.926  17.432  0.00  0.00    +0.000 A 
ATOM     12  O   UNL     1      51.508   6.069  17.567  0.00  0.00    +0.000 OA
ATOM     13  C   UNL     1      49.674   4.570  17.367  0.00  0.00    +0.000 A 
ATOM     14  H   UNL     1      52.921   4.062  17.442  0.00  0.00    +0.000 HD
ENDBRANCH   2   4
BRANCH   1  15
ATOM     15  C   UNL     1      48.642   8.781  15.374  0.00  0.00    +0.000 C 
BRANCH  15  16
ATOM     16  C   UNL     1      49.336   9.314  14.104  0.00  0.00    +0.000 C 
BRANCH  16  17
ATOM     17  O   UNL     1      48.494  10.125  13.264  0.00  0.00    +0.000 OA
BRANCH  17  19
ATOM     18  C   UNL     1      49.747   8.685  11.727  0.00  0.00    +0.000 C 
ATOM     19  C   UNL     1      48.850   9.899  11.889  0.00  0.00    +0.000 C 
ENDBRANCH  17  19
ENDBRANCH  16  17
ENDBRANCH  15  16
ENDBRANCH   1  15
BRANCH   1  20
ATOM     20  C   UNL     1      48.652   6.414  14.433  0.00  0.00    +0.000 C 
BRANCH  20  21
ATOM     21  C   UNL     1      47.378   6.034  13.733  0.00  0.00    +0.000 A 
ATOM     22  C   UNL     1      46.907   4.721  13.705  0.00  0.00    +0.000 A 
ATOM     23  C   UNL     1      45.874   4.380  12.830  0.00  0.00    +0.000 A 
ATOM     24  C   UNL     1      45.341   5.364  12.000  0.00  0.00    +0.000 A 
ATOM     25  N   UNL     1      45.725   6.662  12.080  0.00  0.00    +0.000 NA
ATOM     26  C   UNL     1      46.718   6.968  12.942  0.00  0.00    +0.000 A 
BRANCH  24  27
ATOM     27  C   UNL     1      44.365   5.007  10.901  0.00  0.00    +0.000 C 
BRANCH  27  28
ATOM     28  C   UNL     1      44.919   4.129   9.806  0.00  0.00    +0.000 A 
ATOM     29  C   UNL     1      45.675   4.680   8.762  0.00  0.00    +0.000 A 
ATOM     30  C   UNL     1      46.211   3.865   7.765  0.00  0.00    +0.000 A 
ATOM     31  C   UNL     1      46.008   2.487   7.809  0.00  0.00    +0.000 A 
ATOM     32  C   UNL     1      45.279   1.924   8.855  0.00  0.00    +0.000 A 
ATOM     33  C   UNL     1      44.738   2.739   9.850  0.00  0.00    +0.000 A 
ENDBRANCH  27  28
ENDBRANCH  24  27
ENDBRANCH  20  21
ENDBRANCH   1  20
TORSDOF 9
ENDMDL
MODEL 6
REMARK VINA RESULT:    -6.473      1.203      2.049
REMARK INTER + INTRA:         -11.618
REMARK INTER:                 -11.244
REMARK INTRA:                  -0.373
REMARK UNBOUND:                -1.738
REMARK  Name = 
REMARK  10 active torsions:
REMARK  status: ('A' for Active; 'I' for Inactive)
REMARK    1  A    between atoms: C_1  and  C_2
REMARK    2  A    between atoms: C_2  and  O_3
REMARK    3  A    between atoms: O_3  and  C_4
REMARK    4  A    between atoms: C_4  and  C_5
REMARK    5  A    between atoms: C_5  and  N_6
REMARK    6  A    between atoms: N_6  and  C_7
REMARK    7  A    between atoms: C_7  and  C_8
REMARK    8  A    between atoms: C_11  and  C_12
REMARK    9  A    between atoms: C_12  and  C_13
REMARK   10  A    between atoms: C_21  and  C_23
REMARK                            x       y       z     vdW  Elec       q    Type
REMARK                         _______ _______ _______ _____ _____    ______ ____
ROOT
ATOM      1  N   UNL     1      46.206   7.029  12.039  0.00  0.00    +0.000 N 
ATOM      2  C   UNL     1      44.962   6.680  11.467  0.00  0.00    +0.000 C 
ATOM      3  O   UNL     1      44.198   7.546  11.043  0.00  0.00    +0.000 OA
ENDROOT
BRANCH   2   4
ATOM      4  C   UNL     1      44.553   5.261  11.389  0.00  0.00    +0.000 A 
ATOM      5  C   UNL     1      43.765   4.609  12.326  0.00  0.00    +0.000 A 
ATOM      6  S   UNL     1      43.423   2.983  11.930  0.00  0.00    +0.000 S 
ATOM      7  C   UNL     1      44.184   3.138  10.419  0.00  0.00    +0.000 A 
ATOM      8  N   UNL     1      44.154   2.123   9.515  0.00  0.00    +0.000 NA
ATOM      9  C   UNL     1      44.712   2.403   8.386  0.00  0.00    +0.000 A 
ATOM     10  N   UNL     1      45.335   3.591   8.094  0.00  0.00    +0.000 N 
ATOM     11  C   UNL     1      45.507   4.590   9.021  0.00  0.00    +0.000 A 
ATOM     12  O   UNL     1      46.271   5.526   8.813  0.00  0.00    +0.000 OA
ATOM     13  C   UNL     1      44.781   4.377  10.267  0.00  0.00    +0.000 A 
ATOM     14  H   UNL     1      45.813   3.716   7.216  0.00  0.00    +0.000 HD
ENDBRANCH   2   4
BRANCH   1  15
ATOM     15  C   UNL     1      46.552   8.462  12.093  0.00  0.00    +0.000 C 
BRANCH  15  16
ATOM     16  C   UNL     1      45.397   9.458  12.325  0.00  0.00    +0.000 C 
BRANCH  16  17
ATOM     17  O   UNL     1      45.760  10.839  12.140  0.00  0.00    +0.000 OA
BRANCH  17  19
ATOM     18  C   UNL     1      44.159  10.680  10.291  0.00  0.00    +0.000 C 
ATOM     19  C   UNL     1      44.697  11.511  11.442  0.00  0.00    +0.000 C 
ENDBRANCH  17  19
ENDBRANCH  16  17
ENDBRANCH  15  16
ENDBRANCH   1  15
BRANCH   1  20
ATOM     20  C   UNL     1      47.181   6.019  12.443  0.00  0.00    +0.000 C 
BRANCH  20  21
ATOM     21  C   UNL     1      47.276   5.560  13.871  0.00  0.00    +0.000 A 
ATOM     22  C   UNL     1      48.020   6.252  14.828  0.00  0.00    +0.000 A 
ATOM     23  C   UNL     1      48.288   5.648  16.058  0.00  0.00    +0.000 A 
ATOM     24  C   UNL     1      47.808   4.362  16.296  0.00  0.00    +0.000 A 
ATOM     25  N   UNL     1      47.008   3.714  15.413  0.00  0.00    +0.000 NA
ATOM     26  C   UNL     1      46.754   4.324  14.237  0.00  0.00    +0.000 A 
BRANCH  24  27
ATOM     27  C   UNL     1      48.235   3.589  17.525  0.00  0.00    +0.000 C 
BRANCH  27  28
ATOM     28  C   UNL     1      49.709   3.277  17.610  0.00  0.00    +0.000 A 
ATOM     29  C   UNL     1      50.189   2.000  17.287  0.00  0.00    +0.000 A 
ATOM     30  C   UNL     1      51.554   1.720  17.339  0.00  0.00    +0.000 A 
ATOM     31  C   UNL     1      52.457   2.718  17.701  0.00  0.00    +0.000 A 
ATOM     32  C   UNL     1      51.995   3.998  18.002  0.00  0.00    +0.000 A 
ATOM     33  C   UNL     1      50.628   4.278  17.955  0.00  0.00    +0.000 A 
ENDBRANCH  27  28
ENDBRANCH  24  27
ENDBRANCH  20  21
ENDBRANCH   1  20
TORSDOF 9
ENDMDL
MODEL 7
REMARK VINA RESULT:    -6.438      2.940      7.920
REMARK INTER + INTRA:         -11.563
REMARK INTER:                 -10.413
REMARK INTRA:                  -1.151
REMARK UNBOUND:                -1.738
REMARK  Name = 
REMARK  10 active torsions:
REMARK  status: ('A' for Active; 'I' for Inactive)
REMARK    1  A    between atoms: C_1  and  C_2
REMARK    2  A    between atoms: C_2  and  O_3
REMARK    3  A    between atoms: O_3  and  C_4
REMARK    4  A    between atoms: C_4  and  C_5
REMARK    5  A    between atoms: C_5  and  N_6
REMARK    6  A    between atoms: N_6  and  C_7
REMARK    7  A    between atoms: C_7  and  C_8
REMARK    8  A    between atoms: C_11  and  C_12
REMARK    9  A    between atoms: C_12  and  C_13
REMARK   10  A    between atoms: C_21  and  C_23
REMARK                            x       y       z     vdW  Elec       q    Type
REMARK                         _______ _______ _______ _____ _____    ______ ____
ROOT
ATOM      1  N   UNL     1      48.051   6.390  13.716  0.00  0.00    +0.000 N 
ATOM      2  C   UNL     1      49.004   6.694  14.713  0.00  0.00    +0.000 C 
ATOM      3  O   UNL     1      50.105   7.155  14.415  0.00  0.00    +0.000 OA
ENDROOT
BRANCH   2   4
ATOM      4  C   UNL     1      48.694   6.441  16.138  0.00  0.00    +0.000 A 
ATOM      5  C   UNL     1      48.725   5.196  16.748  0.00  0.00    +0.000 A 
ATOM      6  S   UNL     1      48.367   5.237  18.418  0.00  0.00    +0.000 S 
ATOM      7  C   UNL     1      48.310   6.934  18.417  0.00  0.00    +0.000 A 
ATOM      8  N   UNL     1      48.150   7.628  19.574  0.00  0.00    +0.000 NA
ATOM      9  C   UNL     1      48.194   8.910  19.434  0.00  0.00    +0.000 A 
ATOM     10  N   UNL     1      48.340   9.562  18.235  0.00  0.00    +0.000 N 
ATOM     11  C   UNL     1      48.368   8.905  17.028  0.00  0.00    +0.000 A 
ATOM     12  O   UNL     1      48.252   9.513  15.970  0.00  0.00    +0.000 OA
ATOM     13  C   UNL     1      48.456   7.455  17.143  0.00  0.00    +0.000 A 
ATOM     14  H   UNL     1      48.294  10.567  18.189  0.00  0.00    +0.000 HD
ENDBRANCH   2   4
BRANCH   1  15
ATOM     15  C   UNL     1      48.423   6.659  12.315  0.00  0.00    +0.000 C 
BRANCH  15  16
ATOM     16  C   UNL     1      48.337   8.121  11.830  0.00  0.00    +0.000 C 
BRANCH  16  17
ATOM     17  O   UNL     1      47.197   8.844  12.329  0.00  0.00    +0.000 OA
BRANCH  17  19
ATOM     18  C   UNL     1      46.018  10.906  11.722  0.00  0.00    +0.000 C 
ATOM     19  C   UNL     1      47.351  10.237  12.007  0.00  0.00    +0.000 C 
ENDBRANCH  17  19
ENDBRANCH  16  17
ENDBRANCH  15  16
ENDBRANCH   1  15
BRANCH   1  20
ATOM     20  C   UNL     1      46.697   5.952  14.048  0.00  0.00    +0.000 C 
BRANCH  20  21
ATOM     21  C   UNL     1      45.843   5.240  13.039  0.00  0.00    +0.000 A 
ATOM     22  C   UNL     1      45.789   3.848  12.956  0.00  0.00    +0.000 A 
ATOM     23  C   UNL     1      45.195   3.248  11.845  0.00  0.00    +0.000 A 
ATOM     24  C   UNL     1      44.672   4.059  10.839  0.00  0.00    +0.000 A 
ATOM     25  N   UNL     1      44.635   5.410  10.947  0.00  0.00    +0.000 NA
ATOM     26  C   UNL     1      45.205   5.965  12.037  0.00  0.00    +0.000 A 
BRANCH  24  27
ATOM     27  C   UNL     1      44.199   3.465   9.530  0.00  0.00    +0.000 C 
BRANCH  27  28
ATOM     28  C   UNL     1      45.292   2.970   8.615  0.00  0.00    +0.000 A 
ATOM     29  C   UNL     1      46.001   3.864   7.800  0.00  0.00    +0.000 A 
ATOM     30  C   UNL     1      47.030   3.410   6.974  0.00  0.00    +0.000 A 
ATOM     31  C   UNL     1      47.370   2.059   6.965  0.00  0.00    +0.000 A 
ATOM     32  C   UNL     1      46.688   1.164   7.788  0.00  0.00    +0.000 A 
ATOM     33  C   UNL     1      45.656   1.616   8.610  0.00  0.00    +0.000 A 
ENDBRANCH  27  28
ENDBRANCH  24  27
ENDBRANCH  20  21
ENDBRANCH   1  20
TORSDOF 9
ENDMDL
MODEL 8
REMARK VINA RESULT:    -6.291      3.372      7.772
REMARK INTER + INTRA:         -11.339
REMARK INTER:                  -9.637
REMARK INTRA:                  -1.702
REMARK UNBOUND:                -1.738
REMARK  Name = 
REMARK  10 active torsions:
REMARK  status: ('A' for Active; 'I' for Inactive)
REMARK    1  A    between atoms: C_1  and  C_2
REMARK    2  A    between atoms: C_2  and  O_3
REMARK    3  A    between atoms: O_3  and  C_4
REMARK    4  A    between atoms: C_4  and  C_5
REMARK    5  A    between atoms: C_5  and  N_6
REMARK    6  A    between atoms: N_6  and  C_7
REMARK    7  A    between atoms: C_7  and  C_8
REMARK    8  A    between atoms: C_11  and  C_12
REMARK    9  A    between atoms: C_12  and  C_13
REMARK   10  A    between atoms: C_21  and  C_23
REMARK                            x       y       z     vdW  Elec       q    Type
REMARK                         _______ _______ _______ _____ _____    ______ ____
ROOT
ATOM      1  N   UNL     1      48.757   7.578  14.990  0.00  0.00    +0.000 N 
ATOM      2  C   UNL     1      48.939   8.973  14.857  0.00  0.00    +0.000 C 
ATOM      3  O   UNL     1      49.032   9.694  15.848  0.00  0.00    +0.000 OA
ENDROOT
BRANCH   2   4
ATOM      4  C   UNL     1      49.000   9.589  13.513  0.00  0.00    +0.000 A 
ATOM      5  C   UNL     1      47.953  10.262  12.900  0.00  0.00    +0.000 A 
ATOM      6  S   UNL     1      48.349  10.905  11.367  0.00  0.00    +0.000 S 
ATOM      7  C   UNL     1      49.974  10.442  11.536  0.00  0.00    +0.000 A 
ATOM      8  N   UNL     1      50.901  10.793  10.606  0.00  0.00    +0.000 NA
ATOM      9  C   UNL     1      52.105  10.434  10.896  0.00  0.00    +0.000 A 
ATOM     10  N   UNL     1      52.462   9.717  12.011  0.00  0.00    +0.000 N 
ATOM     11  C   UNL     1      51.543   9.224  12.906  0.00  0.00    +0.000 A 
ATOM     12  O   UNL     1      51.857   8.390  13.747  0.00  0.00    +0.000 OA
ATOM     13  C   UNL     1      50.186   9.715  12.695  0.00  0.00    +0.000 A 
ATOM     14  H   UNL     1      53.412   9.408  12.139  0.00  0.00    +0.000 HD
ENDBRANCH   2   4
BRANCH   1  15
ATOM     15  C   UNL     1      48.698   7.027  16.356  0.00  0.00    +0.000 C 
BRANCH  15  16
ATOM     16  C   UNL     1      49.931   6.246  16.856  0.00  0.00    +0.000 C 
BRANCH  16  17
ATOM     17  O   UNL     1      49.821   4.817  16.724  0.00  0.00    +0.000 OA
BRANCH  17  19
ATOM     18  C   UNL     1      47.964   3.226  16.557  0.00  0.00    +0.000 C 
ATOM     19  C   UNL     1      48.581   4.388  17.314  0.00  0.00    +0.000 C 
ENDBRANCH  17  19
ENDBRANCH  16  17
ENDBRANCH  15  16
ENDBRANCH   1  15
BRANCH   1  20
ATOM     20  C   UNL     1      48.759   6.685  13.833  0.00  0.00    +0.000 C 
BRANCH  20  21
ATOM     21  C   UNL     1      47.474   6.242  13.193  0.00  0.00    +0.000 A 
ATOM     22  C   UNL     1      46.824   5.063  13.562  0.00  0.00    +0.000 A 
ATOM     23  C   UNL     1      45.791   4.570  12.765  0.00  0.00    +0.000 A 
ATOM     24  C   UNL     1      45.436   5.268  11.613  0.00  0.00    +0.000 A 
ATOM     25  N   UNL     1      45.994   6.461  11.290  0.00  0.00    +0.000 NA
ATOM     26  C   UNL     1      46.984   6.922  12.083  0.00  0.00    +0.000 A 
BRANCH  24  27
ATOM     27  C   UNL     1      44.464   4.677  10.615  0.00  0.00    +0.000 C 
BRANCH  27  28
ATOM     28  C   UNL     1      45.090   3.850   9.518  0.00  0.00    +0.000 A 
ATOM     29  C   UNL     1      45.753   4.466   8.448  0.00  0.00    +0.000 A 
ATOM     30  C   UNL     1      46.355   3.700   7.449  0.00  0.00    +0.000 A 
ATOM     31  C   UNL     1      46.314   2.310   7.518  0.00  0.00    +0.000 A 
ATOM     32  C   UNL     1      45.678   1.684   8.589  0.00  0.00    +0.000 A 
ATOM     33  C   UNL     1      45.071   2.449   9.586  0.00  0.00    +0.000 A 
ENDBRANCH  27  28
ENDBRANCH  24  27
ENDBRANCH  20  21
ENDBRANCH   1  20
TORSDOF 9
ENDMDL
MODEL 9
REMARK VINA RESULT:    -6.173      3.217      7.917
REMARK INTER + INTRA:         -11.160
REMARK INTER:                  -9.562
REMARK INTRA:                  -1.598
REMARK UNBOUND:                -1.738
REMARK  Name = 
REMARK  10 active torsions:
REMARK  status: ('A' for Active; 'I' for Inactive)
REMARK    1  A    between atoms: C_1  and  C_2
REMARK    2  A    between atoms: C_2  and  O_3
REMARK    3  A    between atoms: O_3  and  C_4
REMARK    4  A    between atoms: C_4  and  C_5
REMARK    5  A    between atoms: C_5  and  N_6
REMARK    6  A    between atoms: N_6  and  C_7
REMARK    7  A    between atoms: C_7  and  C_8
REMARK    8  A    between atoms: C_11  and  C_12
REMARK    9  A    between atoms: C_12  and  C_13
REMARK   10  A    between atoms: C_21  and  C_23
REMARK                            x       y       z     vdW  Elec       q    Type
REMARK                         _______ _______ _______ _____ _____    ______ ____
ROOT
ATOM      1  N   UNL     1      49.520   7.381  14.738  0.00  0.00    +0.000 N 
ATOM      2  C   UNL     1      49.997   6.716  15.890  0.00  0.00    +0.000 C 
ATOM      3  O   UNL     1      51.202   6.654  16.130  0.00  0.00    +0.000 OA
ENDROOT
BRANCH   2   4
ATOM      4  C   UNL     1      49.047   6.063  16.817  0.00  0.00    +0.000 A 
ATOM      5  C   UNL     1      48.596   4.756  16.703  0.00  0.00    +0.000 A 
ATOM      6  S   UNL     1      47.542   4.277  17.958  0.00  0.00    +0.000 S 
ATOM      7  C   UNL     1      47.771   5.745  18.781  0.00  0.00    +0.000 A 
ATOM      8  N   UNL     1      47.227   5.949  20.009  0.00  0.00    +0.000 NA
ATOM      9  C   UNL     1      47.539   7.080  20.545  0.00  0.00    +0.000 A 
ATOM     10  N   UNL     1      48.310   8.045  19.946  0.00  0.00    +0.000 N 
ATOM     11  C   UNL     1      48.767   7.938  18.655  0.00  0.00    +0.000 A 
ATOM     12  O   UNL     1      49.237   8.903  18.064  0.00  0.00    +0.000 OA
ATOM     13  C   UNL     1      48.554   6.626  18.056  0.00  0.00    +0.000 A 
ATOM     14  H   UNL     1      48.455   8.936  20.393  0.00  0.00    +0.000 HD
ENDBRANCH   2   4
BRANCH   1  15
ATOM     15  C   UNL     1      50.519   8.005  13.851  0.00  0.00    +0.000 C 
BRANCH  15  16
ATOM     16  C   UNL     1      50.891   9.476  14.131  0.00  0.00    +0.000 C 
BRANCH  16  17
ATOM     17  O   UNL     1      50.190  10.430  13.312  0.00  0.00    +0.000 OA
BRANCH  17  19
ATOM     18  C   UNL     1      48.782  10.333  11.309  0.00  0.00    +0.000 C 
ATOM     19  C   UNL     1      50.075   9.905  11.978  0.00  0.00    +0.000 C 
ENDBRANCH  17  19
ENDBRANCH  16  17
ENDBRANCH  15  16
ENDBRANCH   1  15
BRANCH   1  20
ATOM     20  C   UNL     1      48.093   7.569  14.489  0.00  0.00    +0.000 C 
BRANCH  20  21
ATOM     21  C   UNL     1      47.389   6.809  13.401  0.00  0.00    +0.000 A 
ATOM     22  C   UNL     1      46.983   7.415  12.211  0.00  0.00    +0.000 A 
ATOM     23  C   UNL     1      46.111   6.739  11.358  0.00  0.00    +0.000 A 
ATOM     24  C   UNL     1      45.661   5.471  11.720  0.00  0.00    +0.000 A 
ATOM     25  N   UNL     1      46.116   4.832  12.826  0.00  0.00    +0.000 NA
ATOM     26  C   UNL     1      46.969   5.503  13.629  0.00  0.00    +0.000 A 
BRANCH  24  27
ATOM     27  C   UNL     1      44.568   4.781  10.935  0.00  0.00    +0.000 C 
BRANCH  27  28
ATOM     28  C   UNL     1      45.039   3.950   9.766  0.00  0.00    +0.000 A 
ATOM     29  C   UNL     1      45.651   4.555   8.660  0.00  0.00    +0.000 A 
ATOM     30  C   UNL     1      46.112   3.783   7.592  0.00  0.00    +0.000 A 
ATOM     31  C   UNL     1      45.978   2.397   7.627  0.00  0.00    +0.000 A 
ATOM     32  C   UNL     1      45.393   1.781   8.732  0.00  0.00    +0.000 A 
ATOM     33  C   UNL     1      44.928   2.552   9.798  0.00  0.00    +0.000 A 
ENDBRANCH  27  28
ENDBRANCH  24  27
ENDBRANCH  20  21
ENDBRANCH   1  20
TORSDOF 9
ENDMDL
