MODEL 1
REMARK VINA RESULT:    -7.409      0.000      0.000
REMARK INTER + INTRA:          -9.919
REMARK INTER:                  -9.358
REMARK INTRA:                  -0.561
REMARK UNBOUND:                -0.561
REMARK  Name = 
REMARK  5 active torsions:
REMARK  status: ('A' for Active; 'I' for Inactive)
REMARK    1  A    between atoms: N_1  and  C_2
REMARK    2  A    between atoms: C_5  and  O_6
REMARK    3  A    between atoms: O_6  and  C_7
REMARK    4  A    between atoms: C_7  and  C_8
REMARK    5  A    between atoms: C_11  and  C_12
REMARK                            x       y       z     vdW  Elec       q    Type
REMARK                         _______ _______ _______ _____ _____    ______ ____
ROOT
ATOM      1  C   UNL     1      44.056   4.794  10.698  0.00  0.00    +0.000 C 
ENDROOT
BRANCH   1   2
ATOM      2  C   UNL     1      44.846   4.038   9.666  0.00  0.00    +0.000 A 
ATOM      3  C   UNL     1      44.854   2.650   9.575  0.00  0.00    +0.000 A 
ATOM      4  C   UNL     1      45.582   2.023   8.568  0.00  0.00    +0.000 A 
ATOM      5  C   UNL     1      46.292   2.803   7.650  0.00  0.00    +0.000 A 
ATOM      6  N   UNL     1      46.289   4.164   7.720  0.00  0.00    +0.000 NA
ATOM      7  C   UNL     1      45.577   4.743   8.711  0.00  0.00    +0.000 A 
BRANCH   5   8
ATOM      8  C   UNL     1      47.084   2.132   6.537  0.00  0.00    +0.000 C 
ATOM      9  F   UNL     1      46.742   2.570   5.288  0.00  0.00    +0.000 F 
ATOM     10  F   UNL     1      48.427   2.345   6.636  0.00  0.00    +0.000 F 
ATOM     11  F   UNL     1      46.919   0.778   6.503  0.00  0.00    +0.000 F 
ENDBRANCH   5   8
ENDBRANCH   1   2
BRANCH   1  12
ATOM     12  O   UNL     1      44.739   5.987  11.081  0.00  0.00    +0.000 OA
BRANCH  12  16
ATOM     13  C   UNL     1      47.430   6.333  13.327  0.00  0.00    +0.000 C 
ATOM     14  C   UNL     1      46.826   7.493  12.528  0.00  0.00    +0.000 C 
ATOM     15  C   UNL     1      45.333   7.624  12.828  0.00  0.00    +0.000 C 
ATOM     16  C   UNL     1      44.588   6.332  12.465  0.00  0.00    +0.000 C 
ATOM     17  C   UNL     1      45.168   5.172  13.289  0.00  0.00    +0.000 C 
ATOM     18  C   UNL     1      46.680   5.019  13.075  0.00  0.00    +0.000 C 
BRANCH  13  19
ATOM     19  N   UNL     1      48.845   6.172  13.001  0.00  0.00    +0.000 NA
ATOM     20  H   UNL     1      49.416   6.635  13.707  0.00  0.00    +0.000 HD
ATOM     21  H   UNL     1      49.050   6.648  12.122  0.00  0.00    +0.000 HD
ENDBRANCH  13  19
ENDBRANCH  12  16
ENDBRANCH   1  12
TORSDOF 5
ENDMDL
MODEL 2
REMARK VINA RESULT:    -6.655      4.086      6.758
REMARK INTER + INTRA:          -8.967
REMARK INTER:                  -8.282
REMARK INTRA:                  -0.685
REMARK UNBOUND:                -0.561
REMARK  Name = 
REMARK  5 active torsions:
REMARK  status: ('A' for Active; 'I' for Inactive)
REMARK    1  A    between atoms: N_1  and  C_2
REMARK    2  A    between atoms: C_5  and  O_6
REMARK    3  A    between atoms: O_6  and  C_7
REMARK    4  A    between atoms: C_7  and  C_8
REMARK    5  A    between atoms: C_11  and  C_12
REMARK                            x       y       z     vdW  Elec       q    Type
REMARK                         _______ _______ _______ _____ _____    ______ ____
ROOT
ATOM      1  C   UNL     1      44.912   3.669  12.365  0.00  0.00    +0.000 C 
ENDROOT
BRANCH   1   2
ATOM      2  C   UNL     1      45.993   4.612  12.818  0.00  0.00    +0.000 A 
ATOM      3  C   UNL     1      46.282   5.810  12.173  0.00  0.00    +0.000 A 
ATOM      4  C   UNL     1      47.273   6.648  12.675  0.00  0.00    +0.000 A 
ATOM      5  C   UNL     1      47.963   6.276  13.833  0.00  0.00    +0.000 A 
ATOM      6  N   UNL     1      47.687   5.109  14.481  0.00  0.00    +0.000 NA
ATOM      7  C   UNL     1      46.722   4.315  13.967  0.00  0.00    +0.000 A 
BRANCH   5   8
ATOM      8  C   UNL     1      49.042   7.187  14.399  0.00  0.00    +0.000 C 
ATOM      9  F   UNL     1      48.557   8.375  14.870  0.00  0.00    +0.000 F 
ATOM     10  F   UNL     1      49.711   6.631  15.450  0.00  0.00    +0.000 F 
ATOM     11  F   UNL     1      49.994   7.525  13.483  0.00  0.00    +0.000 F 
ENDBRANCH   5   8
ENDBRANCH   1   2
BRANCH   1  12
ATOM     12  O   UNL     1      45.302   2.994  11.169  0.00  0.00    +0.000 OA
BRANCH  12  16
ATOM     13  C   UNL     1      45.763   3.663   7.742  0.00  0.00    +0.000 C 
ATOM     14  C   UNL     1      45.897   2.271   8.369  0.00  0.00    +0.000 C 
ATOM     15  C   UNL     1      44.601   1.883   9.082  0.00  0.00    +0.000 C 
ATOM     16  C   UNL     1      44.262   2.893  10.186  0.00  0.00    +0.000 C 
ATOM     17  C   UNL     1      44.094   4.284   9.557  0.00  0.00    +0.000 C 
ATOM     18  C   UNL     1      45.344   4.714   8.778  0.00  0.00    +0.000 C 
BRANCH  13  19
ATOM     19  N   UNL     1      47.019   4.059   7.107  0.00  0.00    +0.000 NA
ATOM     20  H   UNL     1      46.877   4.170   6.104  0.00  0.00    +0.000 HD
ATOM     21  H   UNL     1      47.705   3.311   7.210  0.00  0.00    +0.000 HD
ENDBRANCH  13  19
ENDBRANCH  12  16
ENDBRANCH   1  12
TORSDOF 5
ENDMDL
MODEL 3
REMARK VINA RESULT:    -6.552      4.153      6.803
REMARK INTER + INTRA:          -8.837
REMARK INTER:                  -8.219
REMARK INTRA:                  -0.618
REMARK UNBOUND:                -0.561
REMARK  Name = 
REMARK  5 active torsions:
REMARK  status: ('A' for Active; 'I' for Inactive)
REMARK    1  A    between atoms: N_1  and  C_2
REMARK    2  A    between atoms: C_5  and  O_6
REMARK    3  A    between atoms: O_6  and  C_7
REMARK    4  A    between atoms: C_7  and  C_8
REMARK    5  A    between atoms: C_11  and  C_12
REMARK                            x       y       z     vdW  Elec       q    Type
REMARK                         _______ _______ _______ _____ _____    ______ ____
ROOT
ATOM      1  C   UNL     1      44.839   3.281  11.314  0.00  0.00    +0.000 C 
ENDROOT
BRANCH   1   2
ATOM      2  C   UNL     1      45.115   4.724  11.636  0.00  0.00    +0.000 A 
ATOM      3  C   UNL     1      44.426   5.782  11.051  0.00  0.00    +0.000 A 
ATOM      4  C   UNL     1      44.712   7.091  11.429  0.00  0.00    +0.000 A 
ATOM      5  C   UNL     1      45.688   7.324  12.402  0.00  0.00    +0.000 A 
ATOM      6  N   UNL     1      46.367   6.298  12.989  0.00  0.00    +0.000 NA
ATOM      7  C   UNL     1      46.069   5.040  12.599  0.00  0.00    +0.000 A 
BRANCH   5   8
ATOM      8  C   UNL     1      46.005   8.749  12.833  0.00  0.00    +0.000 C 
ATOM      9  F   UNL     1      46.547   8.830  14.085  0.00  0.00    +0.000 F 
ATOM     10  F   UNL     1      46.902   9.367  12.012  0.00  0.00    +0.000 F 
ATOM     11  F   UNL     1      44.905   9.557  12.863  0.00  0.00    +0.000 F 
ENDBRANCH   5   8
ENDBRANCH   1   2
BRANCH   1  12
ATOM     12  O   UNL     1      45.600   2.863  10.181  0.00  0.00    +0.000 OA
BRANCH  12  16
ATOM     13  C   UNL     1      46.919   2.478   6.937  0.00  0.00    +0.000 C 
ATOM     14  C   UNL     1      46.720   1.323   7.924  0.00  0.00    +0.000 C 
ATOM     15  C   UNL     1      45.256   1.240   8.356  0.00  0.00    +0.000 C 
ATOM     16  C   UNL     1      44.810   2.547   9.026  0.00  0.00    +0.000 C 
ATOM     17  C   UNL     1      44.977   3.703   8.029  0.00  0.00    +0.000 C 
ATOM     18  C   UNL     1      46.418   3.809   7.513  0.00  0.00    +0.000 C 
BRANCH  13  19
ATOM     19  N   UNL     1      48.329   2.593   6.566  0.00  0.00    +0.000 NA
ATOM     20  H   UNL     1      48.715   1.665   6.394  0.00  0.00    +0.000 HD
ATOM     21  H   UNL     1      48.859   2.975   7.349  0.00  0.00    +0.000 HD
ENDBRANCH  13  19
ENDBRANCH  12  16
ENDBRANCH   1  12
TORSDOF 5
ENDMDL
MODEL 4
REMARK VINA RESULT:    -6.290      4.955      7.118
REMARK INTER + INTRA:          -8.505
REMARK INTER:                  -8.039
REMARK INTRA:                  -0.466
REMARK UNBOUND:                -0.561
REMARK  Name = 
REMARK  5 active torsions:
REMARK  status: ('A' for Active; 'I' for Inactive)
REMARK    1  A    between atoms: N_1  and  C_2
REMARK    2  A    between atoms: C_5  and  O_6
REMARK    3  A    between atoms: O_6  and  C_7
REMARK    4  A    between atoms: C_7  and  C_8
REMARK    5  A    between atoms: C_11  and  C_12
REMARK                            x       y       z     vdW  Elec       q    Type
REMARK                         _______ _______ _______ _____ _____    ______ ____
ROOT
ATOM      1  C   UNL     1      46.607   6.361  12.740  0.00  0.00    +0.000 C 
ENDROOT
BRANCH   1   2
ATOM      2  C   UNL     1      47.118   5.525  13.881  0.00  0.00    +0.000 A 
ATOM      3  C   UNL     1      47.809   6.055  14.966  0.00  0.00    +0.000 A 
ATOM      4  C   UNL     1      48.218   5.221  16.003  0.00  0.00    +0.000 A 
ATOM      5  C   UNL     1      47.919   3.856  15.943  0.00  0.00    +0.000 A 
ATOM      6  N   UNL     1      47.237   3.323  14.890  0.00  0.00    +0.000 NA
ATOM      7  C   UNL     1      46.857   4.157  13.898  0.00  0.00    +0.000 A 
BRANCH   5   8
ATOM      8  C   UNL     1      48.351   2.934  17.074  0.00  0.00    +0.000 C 
ATOM      9  F   UNL     1      49.101   3.561  18.029  0.00  0.00    +0.000 F 
ATOM     10  F   UNL     1      47.298   2.387  17.746  0.00  0.00    +0.000 F 
ATOM     11  F   UNL     1      49.112   1.885  16.649  0.00  0.00    +0.000 F 
ENDBRANCH   5   8
ENDBRANCH   1   2
BRANCH   1  12
ATOM     12  O   UNL     1      45.185   6.274  12.649  0.00  0.00    +0.000 OA
BRANCH  12  16
ATOM     13  C   UNL     1      43.393   3.677  11.083  0.00  0.00    +0.000 C 
ATOM     14  C   UNL     1      42.737   4.828  11.853  0.00  0.00    +0.000 C 
ATOM     15  C   UNL     1      43.153   6.172  11.255  0.00  0.00    +0.000 C 
ATOM     16  C   UNL     1      44.677   6.345  11.309  0.00  0.00    +0.000 C 
ATOM     17  C   UNL     1      45.338   5.212  10.510  0.00  0.00    +0.000 C 
ATOM     18  C   UNL     1      44.918   3.829  11.026  0.00  0.00    +0.000 C 
BRANCH  13  19
ATOM     19  N   UNL     1      43.039   2.394  11.687  0.00  0.00    +0.000 NA
ATOM     20  H   UNL     1      43.805   1.733  11.562  0.00  0.00    +0.000 HD
ATOM     21  H   UNL     1      42.241   1.992  11.195  0.00  0.00    +0.000 HD
ENDBRANCH  13  19
ENDBRANCH  12  16
ENDBRANCH   1  12
TORSDOF 5
ENDMDL
MODEL 5
REMARK VINA RESULT:    -6.074      4.170      5.400
REMARK INTER + INTRA:          -8.233
REMARK INTER:                  -7.766
REMARK INTRA:                  -0.467
REMARK UNBOUND:                -0.561
REMARK  Name = 
REMARK  5 active torsions:
REMARK  status: ('A' for Active; 'I' for Inactive)
REMARK    1  A    between atoms: N_1  and  C_2
REMARK    2  A    between atoms: C_5  and  O_6
REMARK    3  A    between atoms: O_6  and  C_7
REMARK    4  A    between atoms: C_7  and  C_8
REMARK    5  A    between atoms: C_11  and  C_12
REMARK                            x       y       z     vdW  Elec       q    Type
REMARK                         _______ _______ _______ _____ _____    ______ ____
ROOT
ATOM      1  C   UNL     1      47.763   6.070  14.328  0.00  0.00    +0.000 C 
ENDROOT
BRANCH   1   2
ATOM      2  C   UNL     1      46.811   5.433  13.354  0.00  0.00    +0.000 A 
ATOM      3  C   UNL     1      46.328   6.082  12.222  0.00  0.00    +0.000 A 
ATOM      4  C   UNL     1      45.477   5.413  11.347  0.00  0.00    +0.000 A 
ATOM      5  C   UNL     1      45.125   4.087  11.614  0.00  0.00    +0.000 A 
ATOM      6  N   UNL     1      45.595   3.434  12.715  0.00  0.00    +0.000 NA
ATOM      7  C   UNL     1      46.415   4.111  13.547  0.00  0.00    +0.000 A 
BRANCH   5   8
ATOM      8  C   UNL     1      44.205   3.339  10.660  0.00  0.00    +0.000 C 
ATOM      9  F   UNL     1      43.180   2.690  11.291  0.00  0.00    +0.000 F 
ATOM     10  F   UNL     1      43.605   4.156   9.748  0.00  0.00    +0.000 F 
ATOM     11  F   UNL     1      44.849   2.378   9.937  0.00  0.00    +0.000 F 
ENDBRANCH   5   8
ENDBRANCH   1   2
BRANCH   1  12
ATOM     12  O   UNL     1      48.312   5.091  15.209  0.00  0.00    +0.000 OA
BRANCH  12  16
ATOM     13  C   UNL     1      49.596   3.141  17.847  0.00  0.00    +0.000 C 
ATOM     14  C   UNL     1      50.220   4.458  17.372  0.00  0.00    +0.000 C 
ATOM     15  C   UNL     1      49.198   5.591  17.456  0.00  0.00    +0.000 C 
ATOM     16  C   UNL     1      47.969   5.283  16.588  0.00  0.00    +0.000 C 
ATOM     17  C   UNL     1      47.321   3.981  17.083  0.00  0.00    +0.000 C 
ATOM     18  C   UNL     1      48.313   2.810  17.075  0.00  0.00    +0.000 C 
BRANCH  13  19
ATOM     19  N   UNL     1      50.556   2.046  17.715  0.00  0.00    +0.000 NA
ATOM     20  H   UNL     1      51.314   2.171  18.385  0.00  0.00    +0.000 HD
ATOM     21  H   UNL     1      50.991   2.081  16.793  0.00  0.00    +0.000 HD
ENDBRANCH  13  19
ENDBRANCH  12  16
ENDBRANCH   1  12
TORSDOF 5
ENDMDL
MODEL 6
REMARK VINA RESULT:    -5.851      2.280      3.177
REMARK INTER + INTRA:          -7.951
REMARK INTER:                  -7.256
REMARK INTRA:                  -0.695
REMARK UNBOUND:                -0.561
REMARK  Name = 
REMARK  5 active torsions:
REMARK  status: ('A' for Active; 'I' for Inactive)
REMARK    1  A    between atoms: N_1  and  C_2
REMARK    2  A    between atoms: C_5  and  O_6
REMARK    3  A    between atoms: O_6  and  C_7
REMARK    4  A    between atoms: C_7  and  C_8
REMARK    5  A    between atoms: C_11  and  C_12
REMARK                            x       y       z     vdW  Elec       q    Type
REMARK                         _______ _______ _______ _____ _____    ______ ____
ROOT
ATOM      1  C   UNL     1      45.352   6.512  12.904  0.00  0.00    +0.000 C 
ENDROOT
BRANCH   1   2
ATOM      2  C   UNL     1      45.270   5.523  11.775  0.00  0.00    +0.000 A 
ATOM      3  C   UNL     1      45.593   5.837  10.458  0.00  0.00    +0.000 A 
ATOM      4  C   UNL     1      45.528   4.855   9.474  0.00  0.00    +0.000 A 
ATOM      5  C   UNL     1      45.145   3.557   9.825  0.00  0.00    +0.000 A 
ATOM      6  N   UNL     1      44.832   3.231  11.111  0.00  0.00    +0.000 NA
ATOM      7  C   UNL     1      44.901   4.207  12.043  0.00  0.00    +0.000 A 
BRANCH   5   8
ATOM      8  C   UNL     1      45.079   2.471   8.761  0.00  0.00    +0.000 C 
ATOM      9  F   UNL     1      44.527   2.896   7.585  0.00  0.00    +0.000 F 
ATOM     10  F   UNL     1      46.306   1.981   8.425  0.00  0.00    +0.000 F 
ATOM     11  F   UNL     1      44.334   1.393   9.141  0.00  0.00    +0.000 F 
ENDBRANCH   5   8
ENDBRANCH   1   2
BRANCH   1  12
ATOM     12  O   UNL     1      46.706   6.696  13.316  0.00  0.00    +0.000 OA
BRANCH  12  16
ATOM     13  C   UNL     1      49.830   8.022  12.372  0.00  0.00    +0.000 C 
ATOM     14  C   UNL     1      48.586   8.036  11.476  0.00  0.00    +0.000 C 
ATOM     15  C   UNL     1      47.435   8.758  12.176  0.00  0.00    +0.000 C 
ATOM     16  C   UNL     1      47.083   8.067  13.501  0.00  0.00    +0.000 C 
ATOM     17  C   UNL     1      48.317   8.082  14.415  0.00  0.00    +0.000 C 
ATOM     18  C   UNL     1      49.530   7.417  13.749  0.00  0.00    +0.000 C 
BRANCH  13  19
ATOM     19  N   UNL     1      50.915   7.285  11.726  0.00  0.00    +0.000 NA
ATOM     20  H   UNL     1      50.642   7.033  10.777  0.00  0.00    +0.000 HD
ATOM     21  H   UNL     1      51.069   6.404  12.216  0.00  0.00    +0.000 HD
ENDBRANCH  13  19
ENDBRANCH  12  16
ENDBRANCH   1  12
TORSDOF 5
ENDMDL
MODEL 7
REMARK VINA RESULT:    -5.571      4.483      5.793
REMARK INTER + INTRA:          -7.597
REMARK INTER:                  -7.162
REMARK INTRA:                  -0.434
REMARK UNBOUND:                -0.561
REMARK  Name = 
REMARK  5 active torsions:
REMARK  status: ('A' for Active; 'I' for Inactive)
REMARK    1  A    between atoms: N_1  and  C_2
REMARK    2  A    between atoms: C_5  and  O_6
REMARK    3  A    between atoms: O_6  and  C_7
REMARK    4  A    between atoms: C_7  and  C_8
REMARK    5  A    between atoms: C_11  and  C_12
REMARK                            x       y       z     vdW  Elec       q    Type
REMARK                         _______ _______ _______ _____ _____    ______ ____
ROOT
ATOM      1  C   UNL     1      47.961   6.078  14.439  0.00  0.00    +0.000 C 
ENDROOT
BRANCH   1   2
ATOM      2  C   UNL     1      46.964   5.341  13.589  0.00  0.00    +0.000 A 
ATOM      3  C   UNL     1      46.826   3.956  13.600  0.00  0.00    +0.000 A 
ATOM      4  C   UNL     1      45.854   3.348  12.811  0.00  0.00    +0.000 A 
ATOM      5  C   UNL     1      45.017   4.142  12.022  0.00  0.00    +0.000 A 
ATOM      6  N   UNL     1      45.134   5.501  12.005  0.00  0.00    +0.000 NA
ATOM      7  C   UNL     1      46.089   6.061  12.778  0.00  0.00    +0.000 A 
BRANCH   5   8
ATOM      8  C   UNL     1      43.942   3.492  11.163  0.00  0.00    +0.000 C 
ATOM      9  F   UNL     1      44.446   2.728  10.148  0.00  0.00    +0.000 F 
ATOM     10  F   UNL     1      43.128   2.658  11.870  0.00  0.00    +0.000 F 
ATOM     11  F   UNL     1      43.119   4.398  10.559  0.00  0.00    +0.000 F 
ENDBRANCH   5   8
ENDBRANCH   1   2
BRANCH   1  12
ATOM     12  O   UNL     1      48.245   5.348  15.631  0.00  0.00    +0.000 OA
BRANCH  12  16
ATOM     13  C   UNL     1      48.882   4.252  18.918  0.00  0.00    +0.000 C 
ATOM     14  C   UNL     1      49.760   3.900  17.712  0.00  0.00    +0.000 C 
ATOM     15  C   UNL     1      50.266   5.173  17.034  0.00  0.00    +0.000 C 
ATOM     16  C   UNL     1      49.093   6.041  16.557  0.00  0.00    +0.000 C 
ATOM     17  C   UNL     1      48.229   6.424  17.768  0.00  0.00    +0.000 C 
ATOM     18  C   UNL     1      47.730   5.187  18.528  0.00  0.00    +0.000 C 
BRANCH  13  19
ATOM     19  N   UNL     1      48.353   3.036  19.534  0.00  0.00    +0.000 NA
ATOM     20  H   UNL     1      49.120   2.472  19.896  0.00  0.00    +0.000 HD
ATOM     21  H   UNL     1      47.896   2.463  18.824  0.00  0.00    +0.000 HD
ENDBRANCH  13  19
ENDBRANCH  12  16
ENDBRANCH   1  12
TORSDOF 5
ENDMDL
MODEL 8
REMARK VINA RESULT:    -5.341      3.706      5.154
REMARK INTER + INTRA:          -7.307
REMARK INTER:                  -6.865
REMARK INTRA:                  -0.442
REMARK UNBOUND:                -0.561
REMARK  Name = 
REMARK  5 active torsions:
REMARK  status: ('A' for Active; 'I' for Inactive)
REMARK    1  A    between atoms: N_1  and  C_2
REMARK    2  A    between atoms: C_5  and  O_6
REMARK    3  A    between atoms: O_6  and  C_7
REMARK    4  A    between atoms: C_7  and  C_8
REMARK    5  A    between atoms: C_11  and  C_12
REMARK                            x       y       z     vdW  Elec       q    Type
REMARK                         _______ _______ _______ _____ _____    ______ ____
ROOT
ATOM      1  C   UNL     1      47.924   6.054  14.282  0.00  0.00    +0.000 C 
ENDROOT
BRANCH   1   2
ATOM      2  C   UNL     1      46.889   5.379  13.425  0.00  0.00    +0.000 A 
ATOM      3  C   UNL     1      46.177   6.038  12.426  0.00  0.00    +0.000 A 
ATOM      4  C   UNL     1      45.261   5.336  11.649  0.00  0.00    +0.000 A 
ATOM      5  C   UNL     1      45.074   3.969  11.876  0.00  0.00    +0.000 A 
ATOM      6  N   UNL     1      45.769   3.308  12.846  0.00  0.00    +0.000 NA
ATOM      7  C   UNL     1      46.648   4.017  13.586  0.00  0.00    +0.000 A 
BRANCH   5   8
ATOM      8  C   UNL     1      44.084   3.186  11.027  0.00  0.00    +0.000 C 
ATOM      9  F   UNL     1      43.278   2.358  11.757  0.00  0.00    +0.000 F 
ATOM     10  F   UNL     1      43.233   3.989  10.325  0.00  0.00    +0.000 F 
ATOM     11  F   UNL     1      44.687   2.382  10.105  0.00  0.00    +0.000 F 
ENDBRANCH   5   8
ENDBRANCH   1   2
BRANCH   1  12
ATOM     12  O   UNL     1      48.998   6.547  13.482  0.00  0.00    +0.000 OA
BRANCH  12  16
ATOM     13  C   UNL     1      51.642   8.449  12.140  0.00  0.00    +0.000 C 
ATOM     14  C   UNL     1      50.582   7.737  11.293  0.00  0.00    +0.000 C 
ATOM     15  C   UNL     1      49.183   8.217  11.678  0.00  0.00    +0.000 C 
ATOM     16  C   UNL     1      48.900   7.941  13.161  0.00  0.00    +0.000 C 
ATOM     17  C   UNL     1      49.940   8.681  14.015  0.00  0.00    +0.000 C 
ATOM     18  C   UNL     1      51.374   8.282  13.641  0.00  0.00    +0.000 C 
BRANCH  13  19
ATOM     19  N   UNL     1      52.976   7.951  11.812  0.00  0.00    +0.000 NA
ATOM     20  H   UNL     1      53.680   8.615  12.132  0.00  0.00    +0.000 HD
ATOM     21  H   UNL     1      53.082   7.899  10.798  0.00  0.00    +0.000 HD
ENDBRANCH  13  19
ENDBRANCH  12  16
ENDBRANCH   1  12
TORSDOF 5
ENDMDL
MODEL 9
REMARK VINA RESULT:    -5.267      4.184      5.549
REMARK INTER + INTRA:          -7.213
REMARK INTER:                  -6.770
REMARK INTRA:                  -0.444
REMARK UNBOUND:                -0.561
REMARK  Name = 
REMARK  5 active torsions:
REMARK  status: ('A' for Active; 'I' for Inactive)
REMARK    1  A    between atoms: N_1  and  C_2
REMARK    2  A    between atoms: C_5  and  O_6
REMARK    3  A    between atoms: O_6  and  C_7
REMARK    4  A    between atoms: C_7  and  C_8
REMARK    5  A    between atoms: C_11  and  C_12
REMARK                            x       y       z     vdW  Elec       q    Type
REMARK                         _______ _______ _______ _____ _____    ______ ____
ROOT
ATOM      1  C   UNL     1      48.200   6.410  13.567  0.00  0.00    +0.000 C 
ENDROOT
BRANCH   1   2
ATOM      2  C   UNL     1      47.016   5.647  13.041  0.00  0.00    +0.000 A 
ATOM      3  C   UNL     1      46.229   6.090  11.983  0.00  0.00    +0.000 A 
ATOM      4  C   UNL     1      45.171   5.309  11.528  0.00  0.00    +0.000 A 
ATOM      5  C   UNL     1      44.917   4.078  12.140  0.00  0.00    +0.000 A 
ATOM      6  N   UNL     1      45.682   3.625  13.173  0.00  0.00    +0.000 NA
ATOM      7  C   UNL     1      46.700   4.408  13.594  0.00  0.00    +0.000 A 
BRANCH   5   8
ATOM      8  C   UNL     1      43.770   3.208  11.647  0.00  0.00    +0.000 C 
ATOM      9  F   UNL     1      44.069   2.507  10.511  0.00  0.00    +0.000 F 
ATOM     10  F   UNL     1      43.385   2.268  12.557  0.00  0.00    +0.000 F 
ATOM     11  F   UNL     1      42.647   3.922  11.345  0.00  0.00    +0.000 F 
ENDBRANCH   5   8
ENDBRANCH   1   2
BRANCH   1  12
ATOM     12  O   UNL     1      48.650   5.854  14.802  0.00  0.00    +0.000 OA
BRANCH  12  16
ATOM     13  C   UNL     1      51.284   6.183  17.118  0.00  0.00    +0.000 C 
ATOM     14  C   UNL     1      51.152   7.026  15.845  0.00  0.00    +0.000 C 
ATOM     15  C   UNL     1      49.815   7.767  15.835  0.00  0.00    +0.000 C 
ATOM     16  C   UNL     1      48.642   6.778  15.899  0.00  0.00    +0.000 C 
ATOM     17  C   UNL     1      48.752   5.954  17.190  0.00  0.00    +0.000 C 
ATOM     18  C   UNL     1      50.099   5.224  17.289  0.00  0.00    +0.000 C 
BRANCH  13  19
ATOM     19  N   UNL     1      52.538   5.432  17.102  0.00  0.00    +0.000 NA
ATOM     20  H   UNL     1      53.175   5.811  17.802  0.00  0.00    +0.000 HD
ATOM     21  H   UNL     1      53.003   5.560  16.203  0.00  0.00    +0.000 HD
ENDBRANCH  13  19
ENDBRANCH  12  16
ENDBRANCH   1  12
TORSDOF 5
ENDMDL
