MODEL 1
REMARK VINA RESULT:    -8.344      0.000      0.000
REMARK INTER + INTRA:         -10.938
REMARK INTER:                 -10.295
REMARK INTRA:                  -0.643
REMARK UNBOUND:                -0.643
REMARK  Name = 
REMARK  5 active torsions:
REMARK  status: ('A' for Active; 'I' for Inactive)
REMARK    1  A    between atoms: C_1  and  C_2
REMARK    2  A    between atoms: C_2  and  C_3
REMARK    3  A    between atoms: C_2  and  C_14
REMARK    4  A    between atoms: C_3  and  N_4
REMARK    5  A    between atoms: C_8  and  C_9
REMARK                            x       y       z     vdW  Elec       q    Type
REMARK                         _______ _______ _______ _____ _____    ______ ____
ROOT
ATOM      1  N   UNL     1      43.858   3.338  10.356  0.00  0.00    +0.000 N 
ATOM      2  C   UNL     1      44.804   3.106   9.345  0.00  0.00    +0.000 A 
ATOM      3  C   UNL     1      45.171   1.792   9.065  0.00  0.00    +0.000 A 
ATOM      4  C   UNL     1      46.105   1.538   8.058  0.00  0.00    +0.000 A 
ATOM      5  C   UNL     1      46.662   2.601   7.348  0.00  0.00    +0.000 A 
ATOM      6  C   UNL     1      46.260   3.875   7.711  0.00  0.00    +0.000 A 
ATOM      7  N   UNL     1      45.358   4.144   8.686  0.00  0.00    +0.000 NA
ATOM      8  H   UNL     1      43.028   2.787  10.160  0.00  0.00    +0.000 HD
ENDROOT
BRANCH   5   9
ATOM      9  C   UNL     1      47.633   2.327   6.264  0.00  0.00    +0.000 C 
ATOM     10  N   UNL     1      47.672   3.160   5.177  0.00  0.00    +0.000 N 
ATOM     11  O   UNL     1      48.393   1.366   6.322  0.00  0.00    +0.000 OA
ATOM     12  H   UNL     1      47.087   3.966   5.021  0.00  0.00    +0.000 HD
ATOM     13  H   UNL     1      48.339   2.924   4.453  0.00  0.00    +0.000 HD
ENDBRANCH   5   9
BRANCH   1  14
ATOM     14  C   UNL     1      43.535   4.747  10.542  0.00  0.00    +0.000 C 
BRANCH  14  16
ATOM     15  C   UNL     1      42.842   5.180  12.979  0.00  0.00    +0.000 C 
ATOM     16  C   UNL     1      43.923   5.109  11.944  0.00  0.00    +0.000 C 
BRANCH  16  17
ATOM     17  C   UNL     1      45.283   5.564  12.270  0.00  0.00    +0.000 A 
ATOM     18  C   UNL     1      46.004   6.402  11.403  0.00  0.00    +0.000 A 
ATOM     19  C   UNL     1      47.307   6.806  11.719  0.00  0.00    +0.000 A 
ATOM     20  C   UNL     1      47.889   6.379  12.907  0.00  0.00    +0.000 A 
ATOM     21  F   UNL     1      49.139   6.762  13.204  0.00  0.00    +0.000 F 
ATOM     22  C   UNL     1      47.182   5.561  13.775  0.00  0.00    +0.000 A 
ATOM     23  F   UNL     1      47.736   5.159  14.928  0.00  0.00    +0.000 F 
ATOM     24  C   UNL     1      45.891   5.149  13.463  0.00  0.00    +0.000 A 
ENDBRANCH  16  17
ENDBRANCH  14  16
ENDBRANCH   1  14
TORSDOF 4
ENDMDL
MODEL 2
REMARK VINA RESULT:    -7.817      0.968      1.563
REMARK INTER + INTRA:         -10.288
REMARK INTER:                  -9.719
REMARK INTRA:                  -0.569
REMARK UNBOUND:                -0.643
REMARK  Name = 
REMARK  5 active torsions:
REMARK  status: ('A' for Active; 'I' for Inactive)
REMARK    1  A    between atoms: C_1  and  C_2
REMARK    2  A    between atoms: C_2  and  C_3
REMARK    3  A    between atoms: C_2  and  C_14
REMARK    4  A    between atoms: C_3  and  N_4
REMARK    5  A    between atoms: C_8  and  C_9
REMARK                            x       y       z     vdW  Elec       q    Type
REMARK                         _______ _______ _______ _____ _____    ______ ____
ROOT
ATOM      1  N   UNL     1      43.743   3.520  10.485  0.00  0.00    +0.000 N 
ATOM      2  C   UNL     1      44.677   3.246   9.474  0.00  0.00    +0.000 A 
ATOM      3  C   UNL     1      44.976   1.917   9.185  0.00  0.00    +0.000 A 
ATOM      4  C   UNL     1      45.897   1.621   8.178  0.00  0.00    +0.000 A 
ATOM      5  C   UNL     1      46.510   2.659   7.476  0.00  0.00    +0.000 A 
ATOM      6  C   UNL     1      46.174   3.950   7.846  0.00  0.00    +0.000 A 
ATOM      7  N   UNL     1      45.285   4.258   8.823  0.00  0.00    +0.000 NA
ATOM      8  H   UNL     1      42.886   3.014  10.284  0.00  0.00    +0.000 HD
ENDROOT
BRANCH   5   9
ATOM      9  C   UNL     1      47.468   2.342   6.391  0.00  0.00    +0.000 C 
ATOM     10  N   UNL     1      47.434   3.078   5.236  0.00  0.00    +0.000 N 
ATOM     11  O   UNL     1      48.279   1.430   6.509  0.00  0.00    +0.000 OA
ATOM     12  H   UNL     1      46.803   3.836   5.028  0.00  0.00    +0.000 HD
ATOM     13  H   UNL     1      48.095   2.814   4.516  0.00  0.00    +0.000 HD
ENDBRANCH   5   9
BRANCH   1  14
ATOM     14  C   UNL     1      43.493   4.942  10.680  0.00  0.00    +0.000 C 
BRANCH  14  16
ATOM     15  C   UNL     1      42.928   5.124  13.181  0.00  0.00    +0.000 C 
ATOM     16  C   UNL     1      43.926   5.281  12.074  0.00  0.00    +0.000 C 
BRANCH  16  17
ATOM     17  C   UNL     1      45.222   5.924  12.340  0.00  0.00    +0.000 A 
ATOM     18  C   UNL     1      46.263   5.238  12.987  0.00  0.00    +0.000 A 
ATOM     19  C   UNL     1      47.481   5.874  13.254  0.00  0.00    +0.000 A 
ATOM     20  C   UNL     1      47.665   7.196  12.866  0.00  0.00    +0.000 A 
ATOM     21  F   UNL     1      48.831   7.804  13.127  0.00  0.00    +0.000 F 
ATOM     22  C   UNL     1      46.648   7.880  12.216  0.00  0.00    +0.000 A 
ATOM     23  F   UNL     1      46.827   9.150  11.829  0.00  0.00    +0.000 F 
ATOM     24  C   UNL     1      45.432   7.256  11.957  0.00  0.00    +0.000 A 
ENDBRANCH  16  17
ENDBRANCH  14  16
ENDBRANCH   1  14
TORSDOF 4
ENDMDL
MODEL 3
REMARK VINA RESULT:    -7.267      3.994      6.564
REMARK INTER + INTRA:          -9.609
REMARK INTER:                 -10.030
REMARK INTRA:                   0.421
REMARK UNBOUND:                -0.643
REMARK  Name = 
REMARK  5 active torsions:
REMARK  status: ('A' for Active; 'I' for Inactive)
REMARK    1  A    between atoms: C_1  and  C_2
REMARK    2  A    between atoms: C_2  and  C_3
REMARK    3  A    between atoms: C_2  and  C_14
REMARK    4  A    between atoms: C_3  and  N_4
REMARK    5  A    between atoms: C_8  and  C_9
REMARK                            x       y       z     vdW  Elec       q    Type
REMARK                         _______ _______ _______ _____ _____    ______ ____
ROOT
ATOM      1  N   UNL     1      45.012   5.627  10.274  0.00  0.00    +0.000 N 
ATOM      2  C   UNL     1      45.706   5.599  11.493  0.00  0.00    +0.000 A 
ATOM      3  C   UNL     1      46.886   6.330  11.606  0.00  0.00    +0.000 A 
ATOM      4  C   UNL     1      47.589   6.322  12.813  0.00  0.00    +0.000 A 
ATOM      5  C   UNL     1      47.105   5.579  13.889  0.00  0.00    +0.000 A 
ATOM      6  C   UNL     1      45.940   4.860  13.681  0.00  0.00    +0.000 A 
ATOM      7  N   UNL     1      45.244   4.852  12.517  0.00  0.00    +0.000 NA
ATOM      8  H   UNL     1      44.838   6.595  10.019  0.00  0.00    +0.000 HD
ENDROOT
BRANCH   5   9
ATOM      9  C   UNL     1      47.839   5.591  15.175  0.00  0.00    +0.000 C 
ATOM     10  N   UNL     1      47.310   4.930  16.251  0.00  0.00    +0.000 N 
ATOM     11  O   UNL     1      48.903   6.190  15.291  0.00  0.00    +0.000 OA
ATOM     12  H   UNL     1      46.441   4.420  16.272  0.00  0.00    +0.000 HD
ATOM     13  H   UNL     1      47.838   4.981  17.115  0.00  0.00    +0.000 HD
ENDBRANCH   5   9
BRANCH   1  14
ATOM     14  C   UNL     1      43.781   4.846  10.283  0.00  0.00    +0.000 C 
BRANCH  14  16
ATOM     15  C   UNL     1      43.725   2.384  11.020  0.00  0.00    +0.000 C 
ATOM     16  C   UNL     1      44.161   3.419  10.028  0.00  0.00    +0.000 C 
BRANCH  16  17
ATOM     17  C   UNL     1      45.087   3.053   8.946  0.00  0.00    +0.000 A 
ATOM     18  C   UNL     1      45.494   3.988   7.980  0.00  0.00    +0.000 A 
ATOM     19  C   UNL     1      46.358   3.616   6.943  0.00  0.00    +0.000 A 
ATOM     20  C   UNL     1      46.824   2.308   6.874  0.00  0.00    +0.000 A 
ATOM     21  F   UNL     1      47.646   1.953   5.877  0.00  0.00    +0.000 F 
ATOM     22  C   UNL     1      46.438   1.379   7.828  0.00  0.00    +0.000 A 
ATOM     23  F   UNL     1      46.896   0.121   7.772  0.00  0.00    +0.000 F 
ATOM     24  C   UNL     1      45.572   1.740   8.856  0.00  0.00    +0.000 A 
ENDBRANCH  16  17
ENDBRANCH  14  16
ENDBRANCH   1  14
TORSDOF 4
ENDMDL
MODEL 4
REMARK VINA RESULT:    -7.209      4.037      6.192
REMARK INTER + INTRA:          -9.538
REMARK INTER:                  -8.935
REMARK INTRA:                  -0.603
REMARK UNBOUND:                -0.643
REMARK  Name = 
REMARK  5 active torsions:
REMARK  status: ('A' for Active; 'I' for Inactive)
REMARK    1  A    between atoms: C_1  and  C_2
REMARK    2  A    between atoms: C_2  and  C_3
REMARK    3  A    between atoms: C_2  and  C_14
REMARK    4  A    between atoms: C_3  and  N_4
REMARK    5  A    between atoms: C_8  and  C_9
REMARK                            x       y       z     vdW  Elec       q    Type
REMARK                         _______ _______ _______ _____ _____    ______ ____
ROOT
ATOM      1  N   UNL     1      44.838   4.906  12.586  0.00  0.00    +0.000 N 
ATOM      2  C   UNL     1      46.042   5.628  12.599  0.00  0.00    +0.000 A 
ATOM      3  C   UNL     1      46.835   5.581  13.743  0.00  0.00    +0.000 A 
ATOM      4  C   UNL     1      48.040   6.287  13.774  0.00  0.00    +0.000 A 
ATOM      5  C   UNL     1      48.433   7.033  12.663  0.00  0.00    +0.000 A 
ATOM      6  C   UNL     1      47.572   7.045  11.580  0.00  0.00    +0.000 A 
ATOM      7  N   UNL     1      46.397   6.369  11.530  0.00  0.00    +0.000 NA
ATOM      8  H   UNL     1      45.035   3.938  12.825  0.00  0.00    +0.000 HD
ENDROOT
BRANCH   5   9
ATOM      9  C   UNL     1      49.724   7.760  12.690  0.00  0.00    +0.000 C 
ATOM     10  N   UNL     1      50.714   7.393  11.817  0.00  0.00    +0.000 N 
ATOM     11  O   UNL     1      49.919   8.674  13.483  0.00  0.00    +0.000 OA
ATOM     12  H   UNL     1      50.666   6.651  11.137  0.00  0.00    +0.000 HD
ATOM     13  H   UNL     1      51.585   7.906  11.884  0.00  0.00    +0.000 HD
ENDBRANCH   5   9
BRANCH   1  14
ATOM     14  C   UNL     1      44.108   5.009  11.330  0.00  0.00    +0.000 C 
BRANCH  14  16
ATOM     15  C   UNL     1      43.324   2.564  11.434  0.00  0.00    +0.000 C 
ATOM     16  C   UNL     1      44.081   3.641  10.719  0.00  0.00    +0.000 C 
BRANCH  16  17
ATOM     17  C   UNL     1      44.918   3.303   9.558  0.00  0.00    +0.000 A 
ATOM     18  C   UNL     1      45.421   4.296   8.701  0.00  0.00    +0.000 A 
ATOM     19  C   UNL     1      46.196   3.953   7.586  0.00  0.00    +0.000 A 
ATOM     20  C   UNL     1      46.478   2.616   7.331  0.00  0.00    +0.000 A 
ATOM     21  F   UNL     1      47.215   2.291   6.260  0.00  0.00    +0.000 F 
ATOM     22  C   UNL     1      45.997   1.628   8.177  0.00  0.00    +0.000 A 
ATOM     23  F   UNL     1      46.278   0.339   7.940  0.00  0.00    +0.000 F 
ATOM     24  C   UNL     1      45.218   1.961   9.280  0.00  0.00    +0.000 A 
ENDBRANCH  16  17
ENDBRANCH  14  16
ENDBRANCH   1  14
TORSDOF 4
ENDMDL
MODEL 5
REMARK VINA RESULT:    -6.901      4.822      7.413
REMARK INTER + INTRA:          -9.158
REMARK INTER:                  -8.776
REMARK INTRA:                  -0.382
REMARK UNBOUND:                -0.643
REMARK  Name = 
REMARK  5 active torsions:
REMARK  status: ('A' for Active; 'I' for Inactive)
REMARK    1  A    between atoms: C_1  and  C_2
REMARK    2  A    between atoms: C_2  and  C_3
REMARK    3  A    between atoms: C_2  and  C_14
REMARK    4  A    between atoms: C_3  and  N_4
REMARK    5  A    between atoms: C_8  and  C_9
REMARK                            x       y       z     vdW  Elec       q    Type
REMARK                         _______ _______ _______ _____ _____    ______ ____
ROOT
ATOM      1  N   UNL     1      46.225   5.314  12.602  0.00  0.00    +0.000 N 
ATOM      2  C   UNL     1      46.872   5.247  13.845  0.00  0.00    +0.000 A 
ATOM      3  C   UNL     1      47.823   6.217  14.156  0.00  0.00    +0.000 A 
ATOM      4  C   UNL     1      48.474   6.172  15.390  0.00  0.00    +0.000 A 
ATOM      5  C   UNL     1      48.169   5.157  16.296  0.00  0.00    +0.000 A 
ATOM      6  C   UNL     1      47.233   4.220  15.895  0.00  0.00    +0.000 A 
ATOM      7  N   UNL     1      46.591   4.243  14.700  0.00  0.00    +0.000 NA
ATOM      8  H   UNL     1      45.817   6.238  12.496  0.00  0.00    +0.000 HD
ENDROOT
BRANCH   5   9
ATOM      9  C   UNL     1      48.843   5.127  17.615  0.00  0.00    +0.000 C 
ATOM     10  N   UNL     1      49.564   4.018  17.970  0.00  0.00    +0.000 N 
ATOM     11  O   UNL     1      48.757   6.072  18.392  0.00  0.00    +0.000 OA
ATOM     12  H   UNL     1      49.688   3.184  17.419  0.00  0.00    +0.000 HD
ATOM     13  H   UNL     1      49.992   4.035  18.888  0.00  0.00    +0.000 HD
ENDBRANCH   5   9
BRANCH   1  14
ATOM     14  C   UNL     1      45.236   4.264  12.400  0.00  0.00    +0.000 C 
BRANCH  14  16
ATOM     15  C   UNL     1      43.285   5.204  11.016  0.00  0.00    +0.000 C 
ATOM     16  C   UNL     1      44.606   4.500  11.060  0.00  0.00    +0.000 C 
BRANCH  16  17
ATOM     17  C   UNL     1      45.162   3.903   9.836  0.00  0.00    +0.000 A 
ATOM     18  C   UNL     1      45.704   4.698   8.813  0.00  0.00    +0.000 A 
ATOM     19  C   UNL     1      46.206   4.113   7.643  0.00  0.00    +0.000 A 
ATOM     20  C   UNL     1      46.176   2.731   7.499  0.00  0.00    +0.000 A 
ATOM     21  F   UNL     1      46.652   2.175   6.376  0.00  0.00    +0.000 F 
ATOM     22  C   UNL     1      45.653   1.936   8.508  0.00  0.00    +0.000 A 
ATOM     23  F   UNL     1      45.634   0.602   8.377  0.00  0.00    +0.000 F 
ATOM     24  C   UNL     1      45.144   2.511   9.668  0.00  0.00    +0.000 A 
ENDBRANCH  16  17
ENDBRANCH  14  16
ENDBRANCH   1  14
TORSDOF 4
ENDMDL
MODEL 6
REMARK VINA RESULT:    -6.818      4.239      6.329
REMARK INTER + INTRA:          -9.055
REMARK INTER:                  -8.475
REMARK INTRA:                  -0.580
REMARK UNBOUND:                -0.643
REMARK  Name = 
REMARK  5 active torsions:
REMARK  status: ('A' for Active; 'I' for Inactive)
REMARK    1  A    between atoms: C_1  and  C_2
REMARK    2  A    between atoms: C_2  and  C_3
REMARK    3  A    between atoms: C_2  and  C_14
REMARK    4  A    between atoms: C_3  and  N_4
REMARK    5  A    between atoms: C_8  and  C_9
REMARK                            x       y       z     vdW  Elec       q    Type
REMARK                         _______ _______ _______ _____ _____    ______ ____
ROOT
ATOM      1  N   UNL     1      44.745   6.683  13.128  0.00  0.00    +0.000 N 
ATOM      2  C   UNL     1      46.033   7.181  12.877  0.00  0.00    +0.000 A 
ATOM      3  C   UNL     1      46.271   8.541  13.064  0.00  0.00    +0.000 A 
ATOM      4  C   UNL     1      47.547   9.056  12.827  0.00  0.00    +0.000 A 
ATOM      5  C   UNL     1      48.567   8.206  12.402  0.00  0.00    +0.000 A 
ATOM      6  C   UNL     1      48.237   6.874  12.216  0.00  0.00    +0.000 A 
ATOM      7  N   UNL     1      47.004   6.354  12.437  0.00  0.00    +0.000 NA
ATOM      8  H   UNL     1      44.469   6.951  14.068  0.00  0.00    +0.000 HD
ENDROOT
BRANCH   5   9
ATOM      9  C   UNL     1      49.926   8.750  12.175  0.00  0.00    +0.000 C 
ATOM     10  N   UNL     1      51.000   7.903  12.221  0.00  0.00    +0.000 N 
ATOM     11  O   UNL     1      50.101   9.944  11.957  0.00  0.00    +0.000 OA
ATOM     12  H   UNL     1      50.973   6.912  12.405  0.00  0.00    +0.000 HD
ATOM     13  H   UNL     1      51.911   8.322  12.078  0.00  0.00    +0.000 HD
ENDBRANCH   5   9
BRANCH   1  14
ATOM     14  C   UNL     1      44.624   5.245  12.923  0.00  0.00    +0.000 C 
BRANCH  14  16
ATOM     15  C   UNL     1      42.379   5.349  11.676  0.00  0.00    +0.000 C 
ATOM     16  C   UNL     1      43.845   5.042  11.659  0.00  0.00    +0.000 C 
BRANCH  16  17
ATOM     17  C   UNL     1      44.444   4.389  10.485  0.00  0.00    +0.000 A 
ATOM     18  C   UNL     1      45.250   5.099   9.581  0.00  0.00    +0.000 A 
ATOM     19  C   UNL     1      45.792   4.465   8.455  0.00  0.00    +0.000 A 
ATOM     20  C   UNL     1      45.536   3.117   8.237  0.00  0.00    +0.000 A 
ATOM     21  F   UNL     1      46.051   2.514   7.156  0.00  0.00    +0.000 F 
ATOM     22  C   UNL     1      44.751   2.402   9.130  0.00  0.00    +0.000 A 
ATOM     23  F   UNL     1      44.513   1.099   8.929  0.00  0.00    +0.000 F 
ATOM     24  C   UNL     1      44.201   3.028  10.245  0.00  0.00    +0.000 A 
ENDBRANCH  16  17
ENDBRANCH  14  16
ENDBRANCH   1  14
TORSDOF 4
ENDMDL
MODEL 7
REMARK VINA RESULT:    -6.645      4.411      6.573
REMARK INTER + INTRA:          -8.842
REMARK INTER:                  -8.551
REMARK INTRA:                  -0.291
REMARK UNBOUND:                -0.643
REMARK  Name = 
REMARK  5 active torsions:
REMARK  status: ('A' for Active; 'I' for Inactive)
REMARK    1  A    between atoms: C_1  and  C_2
REMARK    2  A    between atoms: C_2  and  C_3
REMARK    3  A    between atoms: C_2  and  C_14
REMARK    4  A    between atoms: C_3  and  N_4
REMARK    5  A    between atoms: C_8  and  C_9
REMARK                            x       y       z     vdW  Elec       q    Type
REMARK                         _______ _______ _______ _____ _____    ______ ____
ROOT
ATOM      1  N   UNL     1      46.120   4.911  12.697  0.00  0.00    +0.000 N 
ATOM      2  C   UNL     1      46.382   6.288  12.625  0.00  0.00    +0.000 A 
ATOM      3  C   UNL     1      47.688   6.707  12.381  0.00  0.00    +0.000 A 
ATOM      4  C   UNL     1      47.970   8.072  12.299  0.00  0.00    +0.000 A 
ATOM      5  C   UNL     1      46.943   9.001  12.467  0.00  0.00    +0.000 A 
ATOM      6  C   UNL     1      45.681   8.498  12.733  0.00  0.00    +0.000 A 
ATOM      7  N   UNL     1      45.386   7.177  12.819  0.00  0.00    +0.000 NA
ATOM      8  H   UNL     1      46.468   4.469  11.851  0.00  0.00    +0.000 HD
ENDROOT
BRANCH   5   9
ATOM      9  C   UNL     1      47.239  10.448  12.354  0.00  0.00    +0.000 C 
ATOM     10  N   UNL     1      48.098  11.024  13.252  0.00  0.00    +0.000 N 
ATOM     11  O   UNL     1      46.723  11.134  11.479  0.00  0.00    +0.000 OA
ATOM     12  H   UNL     1      48.564  10.560  14.016  0.00  0.00    +0.000 HD
ATOM     13  H   UNL     1      48.257  12.019  13.148  0.00  0.00    +0.000 HD
ENDBRANCH   5   9
BRANCH   1  14
ATOM     14  C   UNL     1      44.717   4.594  12.930  0.00  0.00    +0.000 C 
BRANCH  14  16
ATOM     15  C   UNL     1      42.610   5.196  11.587  0.00  0.00    +0.000 C 
ATOM     16  C   UNL     1      44.017   4.683  11.608  0.00  0.00    +0.000 C 
BRANCH  16  17
ATOM     17  C   UNL     1      44.610   4.115  10.387  0.00  0.00    +0.000 A 
ATOM     18  C   UNL     1      45.254   4.925   9.438  0.00  0.00    +0.000 A 
ATOM     19  C   UNL     1      45.791   4.370   8.270  0.00  0.00    +0.000 A 
ATOM     20  C   UNL     1      45.692   3.001   8.053  0.00  0.00    +0.000 A 
ATOM     21  F   UNL     1      46.202   2.473   6.931  0.00  0.00    +0.000 F 
ATOM     22  C   UNL     1      45.068   2.189   8.988  0.00  0.00    +0.000 A 
ATOM     23  F   UNL     1      44.982   0.867   8.787  0.00  0.00    +0.000 F 
ATOM     24  C   UNL     1      44.524   2.736  10.146  0.00  0.00    +0.000 A 
ENDBRANCH  16  17
ENDBRANCH  14  16
ENDBRANCH   1  14
TORSDOF 4
ENDMDL
MODEL 8
REMARK VINA RESULT:    -6.625      5.479      7.881
REMARK INTER + INTRA:          -8.817
REMARK INTER:                  -8.459
REMARK INTRA:                  -0.359
REMARK UNBOUND:                -0.643
REMARK  Name = 
REMARK  5 active torsions:
REMARK  status: ('A' for Active; 'I' for Inactive)
REMARK    1  A    between atoms: C_1  and  C_2
REMARK    2  A    between atoms: C_2  and  C_3
REMARK    3  A    between atoms: C_2  and  C_14
REMARK    4  A    between atoms: C_3  and  N_4
REMARK    5  A    between atoms: C_8  and  C_9
REMARK                            x       y       z     vdW  Elec       q    Type
REMARK                         _______ _______ _______ _____ _____    ______ ____
ROOT
ATOM      1  N   UNL     1      46.333   4.020  14.467  0.00  0.00    +0.000 N 
ATOM      2  C   UNL     1      47.198   4.257  15.547  0.00  0.00    +0.000 A 
ATOM      3  C   UNL     1      47.132   3.411  16.652  0.00  0.00    +0.000 A 
ATOM      4  C   UNL     1      47.988   3.624  17.735  0.00  0.00    +0.000 A 
ATOM      5  C   UNL     1      48.895   4.683  17.700  0.00  0.00    +0.000 A 
ATOM      6  C   UNL     1      48.874   5.490  16.575  0.00  0.00    +0.000 A 
ATOM      7  N   UNL     1      48.049   5.302  15.515  0.00  0.00    +0.000 NA
ATOM      8  H   UNL     1      46.443   3.056  14.166  0.00  0.00    +0.000 HD
ENDROOT
BRANCH   5   9
ATOM      9  C   UNL     1      49.819   4.892  18.839  0.00  0.00    +0.000 C 
ATOM     10  N   UNL     1      50.909   4.074  18.972  0.00  0.00    +0.000 N 
ATOM     11  O   UNL     1      49.617   5.776  19.664  0.00  0.00    +0.000 OA
ATOM     12  H   UNL     1      51.162   3.311  18.363  0.00  0.00    +0.000 HD
ATOM     13  H   UNL     1      51.502   4.242  19.775  0.00  0.00    +0.000 HD
ENDBRANCH   5   9
BRANCH   1  14
ATOM     14  C   UNL     1      46.511   4.952  13.361  0.00  0.00    +0.000 C 
BRANCH  14  16
ATOM     15  C   UNL     1      43.951   5.147  13.240  0.00  0.00    +0.000 C 
ATOM     16  C   UNL     1      45.255   4.912  12.543  0.00  0.00    +0.000 C 
BRANCH  16  17
ATOM     17  C   UNL     1      45.269   4.473  11.139  0.00  0.00    +0.000 A 
ATOM     18  C   UNL     1      45.681   5.330  10.106  0.00  0.00    +0.000 A 
ATOM     19  C   UNL     1      45.664   4.904   8.772  0.00  0.00    +0.000 A 
ATOM     20  C   UNL     1      45.243   3.614   8.469  0.00  0.00    +0.000 A 
ATOM     21  F   UNL     1      45.222   3.210   7.192  0.00  0.00    +0.000 F 
ATOM     22  C   UNL     1      44.844   2.755   9.483  0.00  0.00    +0.000 A 
ATOM     23  F   UNL     1      44.449   1.507   9.195  0.00  0.00    +0.000 F 
ATOM     24  C   UNL     1      44.849   3.176  10.809  0.00  0.00    +0.000 A 
ENDBRANCH  16  17
ENDBRANCH  14  16
ENDBRANCH   1  14
TORSDOF 4
ENDMDL
MODEL 9
REMARK VINA RESULT:    -6.541      4.519      6.287
REMARK INTER + INTRA:          -8.714
REMARK INTER:                  -8.324
REMARK INTRA:                  -0.390
REMARK UNBOUND:                -0.643
REMARK  Name = 
REMARK  5 active torsions:
REMARK  status: ('A' for Active; 'I' for Inactive)
REMARK    1  A    between atoms: C_1  and  C_2
REMARK    2  A    between atoms: C_2  and  C_3
REMARK    3  A    between atoms: C_2  and  C_14
REMARK    4  A    between atoms: C_3  and  N_4
REMARK    5  A    between atoms: C_8  and  C_9
REMARK                            x       y       z     vdW  Elec       q    Type
REMARK                         _______ _______ _______ _____ _____    ______ ____
ROOT
ATOM      1  N   UNL     1      47.310   5.201  15.114  0.00  0.00    +0.000 N 
ATOM      2  C   UNL     1      46.627   5.095  13.893  0.00  0.00    +0.000 A 
ATOM      3  C   UNL     1      46.710   6.151  12.989  0.00  0.00    +0.000 A 
ATOM      4  C   UNL     1      46.043   6.064  11.765  0.00  0.00    +0.000 A 
ATOM      5  C   UNL     1      45.300   4.924  11.463  0.00  0.00    +0.000 A 
ATOM      6  C   UNL     1      45.250   3.934  12.430  0.00  0.00    +0.000 A 
ATOM      7  N   UNL     1      45.887   4.000  13.625  0.00  0.00    +0.000 NA
ATOM      8  H   UNL     1      48.286   5.412  14.926  0.00  0.00    +0.000 HD
ENDROOT
BRANCH   5   9
ATOM      9  C   UNL     1      44.614   4.823  10.154  0.00  0.00    +0.000 C 
ATOM     10  N   UNL     1      45.362   4.839   9.007  0.00  0.00    +0.000 N 
ATOM     11  O   UNL     1      43.393   4.734  10.083  0.00  0.00    +0.000 OA
ATOM     12  H   UNL     1      46.365   4.922   8.948  0.00  0.00    +0.000 HD
ATOM     13  H   UNL     1      44.849   4.786   8.135  0.00  0.00    +0.000 HD
ENDBRANCH   5   9
BRANCH   1  14
ATOM     14  C   UNL     1      47.172   4.026  15.966  0.00  0.00    +0.000 C 
BRANCH  14  16
ATOM     15  C   UNL     1      47.264   5.159  18.271  0.00  0.00    +0.000 C 
ATOM     16  C   UNL     1      47.924   4.305  17.231  0.00  0.00    +0.000 C 
BRANCH  16  17
ATOM     17  C   UNL     1      49.335   3.919  17.386  0.00  0.00    +0.000 A 
ATOM     18  C   UNL     1      50.342   4.878  17.581  0.00  0.00    +0.000 A 
ATOM     19  C   UNL     1      51.683   4.493  17.702  0.00  0.00    +0.000 A 
ATOM     20  C   UNL     1      52.019   3.146  17.637  0.00  0.00    +0.000 A 
ATOM     21  F   UNL     1      53.304   2.781  17.746  0.00  0.00    +0.000 F 
ATOM     22  C   UNL     1      51.032   2.189  17.455  0.00  0.00    +0.000 A 
ATOM     23  F   UNL     1      51.351   0.889  17.404  0.00  0.00    +0.000 F 
ATOM     24  C   UNL     1      49.699   2.566  17.325  0.00  0.00    +0.000 A 
ENDBRANCH  16  17
ENDBRANCH  14  16
ENDBRANCH   1  14
TORSDOF 4
ENDMDL
