MODEL 1
REMARK VINA RESULT:    -7.791      0.000      0.000
REMARK INTER + INTRA:         -10.192
REMARK INTER:                  -9.840
REMARK INTRA:                  -0.352
REMARK UNBOUND:                -0.352
REMARK  Name = 
REMARK  5 active torsions:
REMARK  status: ('A' for Active; 'I' for Inactive)
REMARK    1  A    between atoms: N_1  and  C_2
REMARK    2  A    between atoms: C_2  and  C_3
REMARK    3  A    between atoms: C_3  and  C_4
REMARK    4  A    between atoms: C_7  and  C_8
REMARK    5  A    between atoms: C_8  and  N_9
REMARK                            x       y       z     vdW  Elec       q    Type
REMARK                         _______ _______ _______ _____ _____    ______ ____
ROOT
ATOM      1  C   UNL     1      46.147   2.253   7.855  0.00  0.00    +0.000 A 
ATOM      2  C   UNL     1      45.286   1.704   8.805  0.00  0.00    +0.000 A 
ATOM      3  C   UNL     1      44.475   2.540   9.571  0.00  0.00    +0.000 A 
ATOM      4  C   UNL     1      44.522   3.920   9.363  0.00  0.00    +0.000 A 
ATOM      5  N   UNL     1      45.331   4.471   8.421  0.00  0.00    +0.000 NA
ATOM      6  C   UNL     1      46.114   3.636   7.698  0.00  0.00    +0.000 A 
ENDROOT
BRANCH   1   7
ATOM      7  C   UNL     1      47.098   1.401   7.060  0.00  0.00    +0.000 C 
BRANCH   7   8
ATOM      8  C   UNL     1      48.318   2.179   6.557  0.00  0.00    +0.000 C 
BRANCH   8   9
ATOM      9  N   UNL     1      48.328   2.238   5.096  0.00  0.00    +0.000 NA
ATOM     10  H   UNL     1      49.049   2.890   4.789  0.00  0.00    +0.000 HD
ATOM     11  H   UNL     1      47.443   2.617   4.758  0.00  0.00    +0.000 HD
ENDBRANCH   8   9
ENDBRANCH   7   8
ENDBRANCH   1   7
BRANCH   4  12
ATOM     12  C   UNL     1      43.740   4.878  10.231  0.00  0.00    +0.000 C 
BRANCH  12  13
ATOM     13  N   UNL     1      44.594   5.549  11.200  0.00  0.00    +0.000 N 
ATOM     14  N   UNL     1      44.811   6.882  11.082  0.00  0.00    +0.000 NA
ATOM     15  C   UNL     1      45.811   7.109  11.938  0.00  0.00    +0.000 A 
ATOM     16  C   UNL     1      46.208   5.948  12.634  0.00  0.00    +0.000 A 
ATOM     17  C   UNL     1      47.196   5.618  13.565  0.00  0.00    +0.000 A 
ATOM     18  C   UNL     1      47.183   4.310  14.026  0.00  0.00    +0.000 A 
ATOM     19  N   UNL     1      46.282   3.371  13.659  0.00  0.00    +0.000 NA
ATOM     20  C   UNL     1      45.339   3.681  12.737  0.00  0.00    +0.000 A 
ATOM     21  C   UNL     1      45.324   4.963  12.205  0.00  0.00    +0.000 A 
ENDBRANCH  12  13
ENDBRANCH   4  12
TORSDOF 5
ENDMDL
MODEL 2
REMARK VINA RESULT:    -7.209      1.317      2.324
REMARK INTER + INTRA:          -9.457
REMARK INTER:                  -9.046
REMARK INTRA:                  -0.411
REMARK UNBOUND:                -0.352
REMARK  Name = 
REMARK  5 active torsions:
REMARK  status: ('A' for Active; 'I' for Inactive)
REMARK    1  A    between atoms: N_1  and  C_2
REMARK    2  A    between atoms: C_2  and  C_3
REMARK    3  A    between atoms: C_3  and  C_4
REMARK    4  A    between atoms: C_7  and  C_8
REMARK    5  A    between atoms: C_8  and  N_9
REMARK                            x       y       z     vdW  Elec       q    Type
REMARK                         _______ _______ _______ _____ _____    ______ ____
ROOT
ATOM      1  C   UNL     1      45.843   3.145   7.796  0.00  0.00    +0.000 A 
ATOM      2  C   UNL     1      45.228   2.309   8.727  0.00  0.00    +0.000 A 
ATOM      3  C   UNL     1      44.792   2.830   9.945  0.00  0.00    +0.000 A 
ATOM      4  C   UNL     1      44.961   4.191  10.209  0.00  0.00    +0.000 A 
ATOM      5  N   UNL     1      45.529   5.027   9.301  0.00  0.00    +0.000 NA
ATOM      6  C   UNL     1      45.951   4.491   8.131  0.00  0.00    +0.000 A 
ENDROOT
BRANCH   1   7
ATOM      7  C   UNL     1      46.401   2.617   6.502  0.00  0.00    +0.000 C 
BRANCH   7   8
ATOM      8  C   UNL     1      47.572   1.651   6.708  0.00  0.00    +0.000 C 
BRANCH   8   9
ATOM      9  N   UNL     1      48.594   1.852   5.682  0.00  0.00    +0.000 NA
ATOM     10  H   UNL     1      49.134   2.688   5.902  0.00  0.00    +0.000 HD
ATOM     11  H   UNL     1      48.151   2.031   4.781  0.00  0.00    +0.000 HD
ENDBRANCH   8   9
ENDBRANCH   7   8
ENDBRANCH   1   7
BRANCH   4  12
ATOM     12  C   UNL     1      44.599   4.788  11.549  0.00  0.00    +0.000 C 
BRANCH  12  13
ATOM     13  N   UNL     1      45.733   4.798  12.460  0.00  0.00    +0.000 N 
ATOM     14  N   UNL     1      45.897   3.769  13.328  0.00  0.00    +0.000 NA
ATOM     15  C   UNL     1      46.840   4.214  14.161  0.00  0.00    +0.000 A 
ATOM     16  C   UNL     1      47.315   5.497  13.814  0.00  0.00    +0.000 A 
ATOM     17  C   UNL     1      48.220   6.417  14.349  0.00  0.00    +0.000 A 
ATOM     18  C   UNL     1      48.409   7.578  13.615  0.00  0.00    +0.000 A 
ATOM     19  N   UNL     1      47.808   7.853  12.435  0.00  0.00    +0.000 NA
ATOM     20  C   UNL     1      46.910   6.975  11.928  0.00  0.00    +0.000 A 
ATOM     21  C   UNL     1      46.644   5.811  12.636  0.00  0.00    +0.000 A 
ENDBRANCH  12  13
ENDBRANCH   4  12
TORSDOF 5
ENDMDL
MODEL 3
REMARK VINA RESULT:    -6.755      1.448      2.875
REMARK INTER + INTRA:          -8.884
REMARK INTER:                  -8.434
REMARK INTRA:                  -0.451
REMARK UNBOUND:                -0.352
REMARK  Name = 
REMARK  5 active torsions:
REMARK  status: ('A' for Active; 'I' for Inactive)
REMARK    1  A    between atoms: N_1  and  C_2
REMARK    2  A    between atoms: C_2  and  C_3
REMARK    3  A    between atoms: C_3  and  C_4
REMARK    4  A    between atoms: C_7  and  C_8
REMARK    5  A    between atoms: C_8  and  N_9
REMARK                            x       y       z     vdW  Elec       q    Type
REMARK                         _______ _______ _______ _____ _____    ______ ____
ROOT
ATOM      1  C   UNL     1      45.982   2.524   7.873  0.00  0.00    +0.000 A 
ATOM      2  C   UNL     1      46.148   3.908   7.879  0.00  0.00    +0.000 A 
ATOM      3  C   UNL     1      45.589   4.668   8.905  0.00  0.00    +0.000 A 
ATOM      4  C   UNL     1      44.884   4.029   9.927  0.00  0.00    +0.000 A 
ATOM      5  N   UNL     1      44.738   2.679   9.955  0.00  0.00    +0.000 NA
ATOM      6  C   UNL     1      45.284   1.967   8.940  0.00  0.00    +0.000 A 
ENDROOT
BRANCH   1   7
ATOM      7  C   UNL     1      46.497   1.668   6.748  0.00  0.00    +0.000 C 
BRANCH   7   8
ATOM      8  C   UNL     1      47.241   2.473   5.678  0.00  0.00    +0.000 C 
BRANCH   8   9
ATOM      9  N   UNL     1      48.581   1.929   5.460  0.00  0.00    +0.000 NA
ATOM     10  H   UNL     1      49.257   2.470   5.997  0.00  0.00    +0.000 HD
ATOM     11  H   UNL     1      48.844   2.040   4.480  0.00  0.00    +0.000 HD
ENDBRANCH   8   9
ENDBRANCH   7   8
ENDBRANCH   1   7
BRANCH   4  12
ATOM     12  C   UNL     1      44.174   4.811  11.008  0.00  0.00    +0.000 C 
BRANCH  12  13
ATOM     13  N   UNL     1      45.086   5.681  11.734  0.00  0.00    +0.000 N 
ATOM     14  N   UNL     1      46.005   5.131  12.566  0.00  0.00    +0.000 NA
ATOM     15  C   UNL     1      46.474   6.181  13.245  0.00  0.00    +0.000 A 
ATOM     16  C   UNL     1      45.900   7.401  12.830  0.00  0.00    +0.000 A 
ATOM     17  C   UNL     1      45.983   8.740  13.220  0.00  0.00    +0.000 A 
ATOM     18  C   UNL     1      45.243   9.638  12.466  0.00  0.00    +0.000 A 
ATOM     19  N   UNL     1      44.489   9.309  11.393  0.00  0.00    +0.000 NA
ATOM     20  C   UNL     1      44.385   8.008  11.029  0.00  0.00    +0.000 A 
ATOM     21  C   UNL     1      45.069   7.054  11.769  0.00  0.00    +0.000 A 
ENDBRANCH  12  13
ENDBRANCH   4  12
TORSDOF 5
ENDMDL
MODEL 4
REMARK VINA RESULT:    -6.711      1.360      6.154
REMARK INTER + INTRA:          -8.828
REMARK INTER:                  -8.567
REMARK INTRA:                  -0.261
REMARK UNBOUND:                -0.352
REMARK  Name = 
REMARK  5 active torsions:
REMARK  status: ('A' for Active; 'I' for Inactive)
REMARK    1  A    between atoms: N_1  and  C_2
REMARK    2  A    between atoms: C_2  and  C_3
REMARK    3  A    between atoms: C_3  and  C_4
REMARK    4  A    between atoms: C_7  and  C_8
REMARK    5  A    between atoms: C_8  and  N_9
REMARK                            x       y       z     vdW  Elec       q    Type
REMARK                         _______ _______ _______ _____ _____    ______ ____
ROOT
ATOM      1  C   UNL     1      46.521   5.250  13.020  0.00  0.00    +0.000 A 
ATOM      2  C   UNL     1      46.571   6.163  11.968  0.00  0.00    +0.000 A 
ATOM      3  C   UNL     1      45.820   5.934  10.815  0.00  0.00    +0.000 A 
ATOM      4  C   UNL     1      45.012   4.798  10.737  0.00  0.00    +0.000 A 
ATOM      5  N   UNL     1      44.926   3.913  11.765  0.00  0.00    +0.000 NA
ATOM      6  C   UNL     1      45.673   4.157  12.868  0.00  0.00    +0.000 A 
ENDROOT
BRANCH   1   7
ATOM      7  C   UNL     1      47.371   5.410  14.251  0.00  0.00    +0.000 C 
BRANCH   7   8
ATOM      8  C   UNL     1      47.043   4.385  15.340  0.00  0.00    +0.000 C 
BRANCH   8   9
ATOM      9  N   UNL     1      47.794   3.147  15.128  0.00  0.00    +0.000 NA
ATOM     10  H   UNL     1      47.163   2.351  15.207  0.00  0.00    +0.000 HD
ATOM     11  H   UNL     1      48.488   3.032  15.866  0.00  0.00    +0.000 HD
ENDBRANCH   8   9
ENDBRANCH   7   8
ENDBRANCH   1   7
BRANCH   4  12
ATOM     12  C   UNL     1      44.257   4.449   9.476  0.00  0.00    +0.000 C 
BRANCH  12  13
ATOM     13  N   UNL     1      44.723   3.199   8.895  0.00  0.00    +0.000 N 
ATOM     14  N   UNL     1      44.123   2.037   9.252  0.00  0.00    +0.000 NA
ATOM     15  C   UNL     1      44.941   1.103   8.760  0.00  0.00    +0.000 A 
ATOM     16  C   UNL     1      46.034   1.650   8.055  0.00  0.00    +0.000 A 
ATOM     17  C   UNL     1      47.171   1.155   7.412  0.00  0.00    +0.000 A 
ATOM     18  C   UNL     1      47.977   2.097   6.792  0.00  0.00    +0.000 A 
ATOM     19  N   UNL     1      47.723   3.425   6.752  0.00  0.00    +0.000 NA
ATOM     20  C   UNL     1      46.635   3.912   7.397  0.00  0.00    +0.000 A 
ATOM     21  C   UNL     1      45.809   3.024   8.072  0.00  0.00    +0.000 A 
ENDBRANCH  12  13
ENDBRANCH   4  12
TORSDOF 5
ENDMDL
MODEL 5
REMARK VINA RESULT:    -6.501      1.354      1.836
REMARK INTER + INTRA:          -8.563
REMARK INTER:                  -8.169
REMARK INTRA:                  -0.394
REMARK UNBOUND:                -0.352
REMARK  Name = 
REMARK  5 active torsions:
REMARK  status: ('A' for Active; 'I' for Inactive)
REMARK    1  A    between atoms: N_1  and  C_2
REMARK    2  A    between atoms: C_2  and  C_3
REMARK    3  A    between atoms: C_3  and  C_4
REMARK    4  A    between atoms: C_7  and  C_8
REMARK    5  A    between atoms: C_8  and  N_9
REMARK                            x       y       z     vdW  Elec       q    Type
REMARK                         _______ _______ _______ _____ _____    ______ ____
ROOT
ATOM      1  C   UNL     1      45.502   2.694   8.786  0.00  0.00    +0.000 A 
ATOM      2  C   UNL     1      45.807   4.039   8.582  0.00  0.00    +0.000 A 
ATOM      3  C   UNL     1      45.194   5.015   9.366  0.00  0.00    +0.000 A 
ATOM      4  C   UNL     1      44.293   4.630  10.361  0.00  0.00    +0.000 A 
ATOM      5  N   UNL     1      44.008   3.323  10.596  0.00  0.00    +0.000 NA
ATOM      6  C   UNL     1      44.611   2.398   9.813  0.00  0.00    +0.000 A 
ENDROOT
BRANCH   1   7
ATOM      7  C   UNL     1      46.075   1.609   7.915  0.00  0.00    +0.000 C 
BRANCH   7   8
ATOM      8  C   UNL     1      46.894   2.156   6.742  0.00  0.00    +0.000 C 
BRANCH   8   9
ATOM      9  N   UNL     1      48.207   1.513   6.684  0.00  0.00    +0.000 NA
ATOM     10  H   UNL     1      48.926   2.188   6.943  0.00  0.00    +0.000 HD
ATOM     11  H   UNL     1      48.414   1.235   5.724  0.00  0.00    +0.000 HD
ENDBRANCH   8   9
ENDBRANCH   7   8
ENDBRANCH   1   7
BRANCH   4  12
ATOM     12  C   UNL     1      43.526   5.649  11.171  0.00  0.00    +0.000 C 
BRANCH  12  13
ATOM     13  N   UNL     1      44.413   6.606  11.817  0.00  0.00    +0.000 N 
ATOM     14  N   UNL     1      44.346   7.914  11.466  0.00  0.00    +0.000 NA
ATOM     15  C   UNL     1      45.435   8.441  12.031  0.00  0.00    +0.000 A 
ATOM     16  C   UNL     1      46.175   7.499  12.776  0.00  0.00    +0.000 A 
ATOM     17  C   UNL     1      47.373   7.496  13.495  0.00  0.00    +0.000 A 
ATOM     18  C   UNL     1      47.699   6.306  14.126  0.00  0.00    +0.000 A 
ATOM     19  N   UNL     1      46.937   5.188  14.111  0.00  0.00    +0.000 NA
ATOM     20  C   UNL     1      45.788   5.179  13.392  0.00  0.00    +0.000 A 
ATOM     21  C   UNL     1      45.426   6.328  12.702  0.00  0.00    +0.000 A 
ENDBRANCH  12  13
ENDBRANCH   4  12
TORSDOF 5
ENDMDL
MODEL 6
REMARK VINA RESULT:    -6.239      1.761      6.174
REMARK INTER + INTRA:          -8.232
REMARK INTER:                  -7.769
REMARK INTRA:                  -0.463
REMARK UNBOUND:                -0.352
REMARK  Name = 
REMARK  5 active torsions:
REMARK  status: ('A' for Active; 'I' for Inactive)
REMARK    1  A    between atoms: N_1  and  C_2
REMARK    2  A    between atoms: C_2  and  C_3
REMARK    3  A    between atoms: C_3  and  C_4
REMARK    4  A    between atoms: C_7  and  C_8
REMARK    5  A    between atoms: C_8  and  N_9
REMARK                            x       y       z     vdW  Elec       q    Type
REMARK                         _______ _______ _______ _____ _____    ______ ____
ROOT
ATOM      1  C   UNL     1      47.484   6.509  13.141  0.00  0.00    +0.000 A 
ATOM      2  C   UNL     1      47.095   7.264  12.036  0.00  0.00    +0.000 A 
ATOM      3  C   UNL     1      45.905   6.963  11.376  0.00  0.00    +0.000 A 
ATOM      4  C   UNL     1      45.106   5.917  11.843  0.00  0.00    +0.000 A 
ATOM      5  N   UNL     1      45.453   5.190  12.936  0.00  0.00    +0.000 NA
ATOM      6  C   UNL     1      46.619   5.499  13.552  0.00  0.00    +0.000 A 
ENDROOT
BRANCH   1   7
ATOM      7  C   UNL     1      48.796   6.742  13.840  0.00  0.00    +0.000 C 
BRANCH   7   8
ATOM      8  C   UNL     1      48.655   6.824  15.363  0.00  0.00    +0.000 C 
BRANCH   8   9
ATOM      9  N   UNL     1      49.549   5.869  16.017  0.00  0.00    +0.000 NA
ATOM     10  H   UNL     1      50.443   6.319  16.208  0.00  0.00    +0.000 HD
ATOM     11  H   UNL     1      49.752   5.095  15.385  0.00  0.00    +0.000 HD
ENDBRANCH   8   9
ENDBRANCH   7   8
ENDBRANCH   1   7
BRANCH   4  12
ATOM     12  C   UNL     1      43.860   5.484  11.107  0.00  0.00    +0.000 C 
BRANCH  12  13
ATOM     13  N   UNL     1      44.029   4.185  10.474  0.00  0.00    +0.000 N 
ATOM     14  N   UNL     1      43.439   3.096  11.027  0.00  0.00    +0.000 NA
ATOM     15  C   UNL     1      44.000   2.076  10.372  0.00  0.00    +0.000 A 
ATOM     16  C   UNL     1      44.907   2.497   9.377  0.00  0.00    +0.000 A 
ATOM     17  C   UNL     1      45.774   1.878   8.474  0.00  0.00    +0.000 A 
ATOM     18  C   UNL     1      46.468   2.724   7.622  0.00  0.00    +0.000 A 
ATOM     19  N   UNL     1      46.340   4.070   7.596  0.00  0.00    +0.000 NA
ATOM     20  C   UNL     1      45.521   4.675   8.489  0.00  0.00    +0.000 A 
ATOM     21  C   UNL     1      44.829   3.887   9.398  0.00  0.00    +0.000 A 
ENDBRANCH  12  13
ENDBRANCH   4  12
TORSDOF 5
ENDMDL
MODEL 7
REMARK VINA RESULT:    -5.988      1.697      6.211
REMARK INTER + INTRA:          -7.915
REMARK INTER:                  -7.476
REMARK INTRA:                  -0.438
REMARK UNBOUND:                -0.352
REMARK  Name = 
REMARK  5 active torsions:
REMARK  status: ('A' for Active; 'I' for Inactive)
REMARK    1  A    between atoms: N_1  and  C_2
REMARK    2  A    between atoms: C_2  and  C_3
REMARK    3  A    between atoms: C_3  and  C_4
REMARK    4  A    between atoms: C_7  and  C_8
REMARK    5  A    between atoms: C_8  and  N_9
REMARK                            x       y       z     vdW  Elec       q    Type
REMARK                         _______ _______ _______ _____ _____    ______ ____
ROOT
ATOM      1  C   UNL     1      45.981   5.088  13.299  0.00  0.00    +0.000 A 
ATOM      2  C   UNL     1      45.468   6.081  12.466  0.00  0.00    +0.000 A 
ATOM      3  C   UNL     1      44.924   5.735  11.229  0.00  0.00    +0.000 A 
ATOM      4  C   UNL     1      44.882   4.392  10.850  0.00  0.00    +0.000 A 
ATOM      5  N   UNL     1      45.348   3.407  11.662  0.00  0.00    +0.000 NA
ATOM      6  C   UNL     1      45.879   3.774  12.853  0.00  0.00    +0.000 A 
ENDROOT
BRANCH   1   7
ATOM      7  C   UNL     1      46.649   5.417  14.607  0.00  0.00    +0.000 C 
BRANCH   7   8
ATOM      8  C   UNL     1      47.212   4.181  15.316  0.00  0.00    +0.000 C 
BRANCH   8   9
ATOM      9  N   UNL     1      48.365   4.539  16.141  0.00  0.00    +0.000 NA
ATOM     10  H   UNL     1      48.475   3.852  16.886  0.00  0.00    +0.000 HD
ATOM     11  H   UNL     1      48.196   5.433  16.604  0.00  0.00    +0.000 HD
ENDBRANCH   8   9
ENDBRANCH   7   8
ENDBRANCH   1   7
BRANCH   4  12
ATOM     12  C   UNL     1      44.396   3.971   9.483  0.00  0.00    +0.000 C 
BRANCH  12  13
ATOM     13  N   UNL     1      45.501   3.716   8.570  0.00  0.00    +0.000 N 
ATOM     14  N   UNL     1      46.071   4.756   7.913  0.00  0.00    +0.000 NA
ATOM     15  C   UNL     1      46.838   4.159   6.997  0.00  0.00    +0.000 A 
ATOM     16  C   UNL     1      46.801   2.751   7.087  0.00  0.00    +0.000 A 
ATOM     17  C   UNL     1      47.345   1.679   6.375  0.00  0.00    +0.000 A 
ATOM     18  C   UNL     1      47.064   0.416   6.871  0.00  0.00    +0.000 A 
ATOM     19  N   UNL     1      46.338   0.167   7.985  0.00  0.00    +0.000 NA
ATOM     20  C   UNL     1      45.787   1.203   8.662  0.00  0.00    +0.000 A 
ATOM     21  C   UNL     1      45.997   2.492   8.192  0.00  0.00    +0.000 A 
ENDBRANCH  12  13
ENDBRANCH   4  12
TORSDOF 5
ENDMDL
MODEL 8
REMARK VINA RESULT:    -5.792      2.088      2.959
REMARK INTER + INTRA:          -7.667
REMARK INTER:                  -7.454
REMARK INTRA:                  -0.213
REMARK UNBOUND:                -0.352
REMARK  Name = 
REMARK  5 active torsions:
REMARK  status: ('A' for Active; 'I' for Inactive)
REMARK    1  A    between atoms: N_1  and  C_2
REMARK    2  A    between atoms: C_2  and  C_3
REMARK    3  A    between atoms: C_3  and  C_4
REMARK    4  A    between atoms: C_7  and  C_8
REMARK    5  A    between atoms: C_8  and  N_9
REMARK                            x       y       z     vdW  Elec       q    Type
REMARK                         _______ _______ _______ _____ _____    ______ ____
ROOT
ATOM      1  C   UNL     1      44.914   3.933   9.099  0.00  0.00    +0.000 A 
ATOM      2  C   UNL     1      44.120   3.399  10.113  0.00  0.00    +0.000 A 
ATOM      3  C   UNL     1      44.081   4.018  11.362  0.00  0.00    +0.000 A 
ATOM      4  C   UNL     1      44.827   5.179  11.576  0.00  0.00    +0.000 A 
ATOM      5  N   UNL     1      45.582   5.731  10.591  0.00  0.00    +0.000 NA
ATOM      6  C   UNL     1      45.608   5.104   9.391  0.00  0.00    +0.000 A 
ENDROOT
BRANCH   1   7
ATOM      7  C   UNL     1      45.052   3.260   7.761  0.00  0.00    +0.000 C 
BRANCH   7   8
ATOM      8  C   UNL     1      46.511   3.048   7.347  0.00  0.00    +0.000 C 
BRANCH   8   9
ATOM      9  N   UNL     1      46.903   4.015   6.322  0.00  0.00    +0.000 NA
ATOM     10  H   UNL     1      46.528   3.724   5.420  0.00  0.00    +0.000 HD
ATOM     11  H   UNL     1      47.918   4.017   6.217  0.00  0.00    +0.000 HD
ENDBRANCH   8   9
ENDBRANCH   7   8
ENDBRANCH   1   7
BRANCH   4  12
ATOM     12  C   UNL     1      44.901   5.832  12.936  0.00  0.00    +0.000 C 
BRANCH  12  13
ATOM     13  N   UNL     1      45.648   7.080  12.897  0.00  0.00    +0.000 N 
ATOM     14  N   UNL     1      45.010   8.224  12.544  0.00  0.00    +0.000 NA
ATOM     15  C   UNL     1      46.010   9.090  12.359  0.00  0.00    +0.000 A 
ATOM     16  C   UNL     1      47.276   8.529  12.630  0.00  0.00    +0.000 A 
ATOM     17  C   UNL     1      48.605   8.952  12.551  0.00  0.00    +0.000 A 
ATOM     18  C   UNL     1      49.558   8.040  12.980  0.00  0.00    +0.000 A 
ATOM     19  N   UNL     1      49.285   6.814  13.481  0.00  0.00    +0.000 NA
ATOM     20  C   UNL     1      47.999   6.391  13.534  0.00  0.00    +0.000 A 
ATOM     21  C   UNL     1      46.999   7.241  13.080  0.00  0.00    +0.000 A 
ENDBRANCH  12  13
ENDBRANCH   4  12
TORSDOF 5
ENDMDL
MODEL 9
REMARK VINA RESULT:    -5.674      3.845      7.695
REMARK INTER + INTRA:          -7.519
REMARK INTER:                  -7.340
REMARK INTRA:                  -0.179
REMARK UNBOUND:                -0.352
REMARK  Name = 
REMARK  5 active torsions:
REMARK  status: ('A' for Active; 'I' for Inactive)
REMARK    1  A    between atoms: N_1  and  C_2
REMARK    2  A    between atoms: C_2  and  C_3
REMARK    3  A    between atoms: C_3  and  C_4
REMARK    4  A    between atoms: C_7  and  C_8
REMARK    5  A    between atoms: C_8  and  N_9
REMARK                            x       y       z     vdW  Elec       q    Type
REMARK                         _______ _______ _______ _____ _____    ______ ____
ROOT
ATOM      1  C   UNL     1      50.534   2.860  17.451  0.00  0.00    +0.000 A 
ATOM      2  C   UNL     1      50.027   4.094  17.853  0.00  0.00    +0.000 A 
ATOM      3  C   UNL     1      48.831   4.562  17.312  0.00  0.00    +0.000 A 
ATOM      4  C   UNL     1      48.144   3.776  16.384  0.00  0.00    +0.000 A 
ATOM      5  N   UNL     1      48.605   2.556  16.004  0.00  0.00    +0.000 NA
ATOM      6  C   UNL     1      49.775   2.132  16.539  0.00  0.00    +0.000 A 
ENDROOT
BRANCH   1   7
ATOM      7  C   UNL     1      51.859   2.346  17.945  0.00  0.00    +0.000 C 
BRANCH   7   8
ATOM      8  C   UNL     1      52.223   0.977  17.364  0.00  0.00    +0.000 C 
BRANCH   8   9
ATOM      9  N   UNL     1      52.132  -0.061  18.390  0.00  0.00    +0.000 NA
ATOM     10  H   UNL     1      53.070  -0.333  18.681  0.00  0.00    +0.000 HD
ATOM     11  H   UNL     1      51.703  -0.900  17.998  0.00  0.00    +0.000 HD
ENDBRANCH   8   9
ENDBRANCH   7   8
ENDBRANCH   1   7
BRANCH   4  12
ATOM     12  C   UNL     1      46.897   4.276  15.692  0.00  0.00    +0.000 C 
BRANCH  12  13
ATOM     13  N   UNL     1      47.210   4.981  14.458  0.00  0.00    +0.000 N 
ATOM     14  N   UNL     1      48.215   5.892  14.451  0.00  0.00    +0.000 NA
ATOM     15  C   UNL     1      48.058   6.516  13.281  0.00  0.00    +0.000 A 
ATOM     16  C   UNL     1      46.993   5.989  12.519  0.00  0.00    +0.000 A 
ATOM     17  C   UNL     1      46.380   6.287  11.300  0.00  0.00    +0.000 A 
ATOM     18  C   UNL     1      45.354   5.438  10.913  0.00  0.00    +0.000 A 
ATOM     19  N   UNL     1      44.941   4.357  11.612  0.00  0.00    +0.000 NA
ATOM     20  C   UNL     1      45.514   4.082  12.808  0.00  0.00    +0.000 A 
ATOM     21  C   UNL     1      46.521   4.918  13.272  0.00  0.00    +0.000 A 
ENDBRANCH  12  13
ENDBRANCH   4  12
TORSDOF 5
ENDMDL
