MODEL 1
REMARK VINA RESULT:    -7.096      0.000      0.000
REMARK INTER + INTRA:          -8.816
REMARK INTER:                  -8.340
REMARK INTRA:                  -0.476
REMARK UNBOUND:                -0.476
REMARK  Name = 
REMARK  5 active torsions:
REMARK  status: ('A' for Active; 'I' for Inactive)
REMARK    1  A    between atoms: C_1  and  N_2
REMARK    2  A    between atoms: C_3  and  C_5
REMARK    3  A    between atoms: N_9  and  C_10
REMARK    4  A    between atoms: C_10  and  C_11
REMARK    5  A    between atoms: C_10  and  C_12
REMARK                            x       y       z     vdW  Elec       q    Type
REMARK                         _______ _______ _______ _____ _____    ______ ____
ROOT
ATOM      1  C   UNL     1      46.101   2.490   7.870  0.00  0.00    +0.000 A 
ATOM      2  C   UNL     1      45.481   1.639   8.779  0.00  0.00    +0.000 A 
ATOM      3  C   UNL     1      44.568   2.169   9.693  0.00  0.00    +0.000 A 
ATOM      4  C   UNL     1      44.330   3.543   9.727  0.00  0.00    +0.000 A 
ATOM      5  N   UNL     1      43.467   4.022  10.708  0.00  0.00    +0.000 N 
ATOM      6  N   UNL     1      44.937   4.379   8.864  0.00  0.00    +0.000 NA
ATOM      7  C   UNL     1      45.796   3.842   7.954  0.00  0.00    +0.000 A 
ATOM      8  H   UNL     1      42.527   3.670  10.587  0.00  0.00    +0.000 HD
ENDROOT
BRANCH   1  11
ATOM      9  C   UNL     1      48.143   2.435   4.686  0.00  0.00    +0.000 C 
ATOM     10  N   UNL     1      47.213   2.794   5.726  0.00  0.00    +0.000 N 
ATOM     11  C   UNL     1      47.092   2.028   6.869  0.00  0.00    +0.000 C 
ATOM     12  O   UNL     1      47.762   1.025   7.084  0.00  0.00    +0.000 OA
ATOM     13  H   UNL     1      46.758   3.694   5.668  0.00  0.00    +0.000 HD
ENDBRANCH   1  11
BRANCH   5  14
ATOM     14  C   UNL     1      43.545   5.427  11.104  0.00  0.00    +0.000 C 
ATOM     15  C   UNL     1      42.340   5.885  11.927  0.00  0.00    +0.000 C 
BRANCH  14  16
ATOM     16  C   UNL     1      44.831   5.610  11.908  0.00  0.00    +0.000 A 
ATOM     17  C   UNL     1      45.090   4.806  13.029  0.00  0.00    +0.000 A 
ATOM     18  C   UNL     1      46.263   4.963  13.769  0.00  0.00    +0.000 A 
ATOM     19  C   UNL     1      47.197   5.930  13.407  0.00  0.00    +0.000 A 
ATOM     20  C   UNL     1      46.960   6.741  12.298  0.00  0.00    +0.000 A 
ATOM     21  C   UNL     1      45.788   6.582  11.555  0.00  0.00    +0.000 A 
ENDBRANCH  14  16
ENDBRANCH   5  14
TORSDOF 3
ENDMDL
MODEL 2
REMARK VINA RESULT:    -6.694      3.485      7.071
REMARK INTER + INTRA:          -8.344
REMARK INTER:                  -7.818
REMARK INTRA:                  -0.526
REMARK UNBOUND:                -0.476
REMARK  Name = 
REMARK  5 active torsions:
REMARK  status: ('A' for Active; 'I' for Inactive)
REMARK    1  A    between atoms: C_1  and  N_2
REMARK    2  A    between atoms: C_3  and  C_5
REMARK    3  A    between atoms: N_9  and  C_10
REMARK    4  A    between atoms: C_10  and  C_11
REMARK    5  A    between atoms: C_10  and  C_12
REMARK                            x       y       z     vdW  Elec       q    Type
REMARK                         _______ _______ _______ _____ _____    ______ ____
ROOT
ATOM      1  C   UNL     1      48.006   6.445  14.152  0.00  0.00    +0.000 A 
ATOM      2  C   UNL     1      48.210   7.149  12.971  0.00  0.00    +0.000 A 
ATOM      3  C   UNL     1      47.332   6.952  11.903  0.00  0.00    +0.000 A 
ATOM      4  C   UNL     1      46.301   6.018  12.008  0.00  0.00    +0.000 A 
ATOM      5  N   UNL     1      45.503   5.810  10.886  0.00  0.00    +0.000 N 
ATOM      6  N   UNL     1      46.105   5.317  13.141  0.00  0.00    +0.000 NA
ATOM      7  C   UNL     1      46.947   5.548  14.187  0.00  0.00    +0.000 A 
ATOM      8  H   UNL     1      44.982   6.641  10.637  0.00  0.00    +0.000 HD
ENDROOT
BRANCH   1  11
ATOM      9  C   UNL     1      49.035   6.613  17.790  0.00  0.00    +0.000 C 
ATOM     10  N   UNL     1      48.274   6.497  16.571  0.00  0.00    +0.000 N 
ATOM     11  C   UNL     1      48.888   6.574  15.338  0.00  0.00    +0.000 C 
ATOM     12  O   UNL     1      50.096   6.725  15.193  0.00  0.00    +0.000 OA
ATOM     13  H   UNL     1      47.307   6.213  16.640  0.00  0.00    +0.000 HD
ENDBRANCH   1  11
BRANCH   5  14
ATOM     14  C   UNL     1      44.756   4.561  10.761  0.00  0.00    +0.000 C 
ATOM     15  C   UNL     1      43.252   4.777  10.593  0.00  0.00    +0.000 C 
BRANCH  14  16
ATOM     16  C   UNL     1      45.317   3.804   9.559  0.00  0.00    +0.000 A 
ATOM     17  C   UNL     1      45.897   4.502   8.486  0.00  0.00    +0.000 A 
ATOM     18  C   UNL     1      46.415   3.820   7.384  0.00  0.00    +0.000 A 
ATOM     19  C   UNL     1      46.360   2.430   7.329  0.00  0.00    +0.000 A 
ATOM     20  C   UNL     1      45.788   1.717   8.382  0.00  0.00    +0.000 A 
ATOM     21  C   UNL     1      45.273   2.398   9.487  0.00  0.00    +0.000 A 
ENDBRANCH  14  16
ENDBRANCH   5  14
TORSDOF 3
ENDMDL
MODEL 3
REMARK VINA RESULT:    -6.565      3.049      6.582
REMARK INTER + INTRA:          -8.193
REMARK INTER:                  -8.748
REMARK INTRA:                   0.556
REMARK UNBOUND:                -0.476
REMARK  Name = 
REMARK  5 active torsions:
REMARK  status: ('A' for Active; 'I' for Inactive)
REMARK    1  A    between atoms: C_1  and  N_2
REMARK    2  A    between atoms: C_3  and  C_5
REMARK    3  A    between atoms: N_9  and  C_10
REMARK    4  A    between atoms: C_10  and  C_11
REMARK    5  A    between atoms: C_10  and  C_12
REMARK                            x       y       z     vdW  Elec       q    Type
REMARK                         _______ _______ _______ _____ _____    ______ ____
ROOT
ATOM      1  C   UNL     1      46.236   6.354  12.782  0.00  0.00    +0.000 A 
ATOM      2  C   UNL     1      46.005   5.180  13.492  0.00  0.00    +0.000 A 
ATOM      3  C   UNL     1      45.657   4.022  12.794  0.00  0.00    +0.000 A 
ATOM      4  C   UNL     1      45.489   4.063  11.409  0.00  0.00    +0.000 A 
ATOM      5  N   UNL     1      45.070   2.896  10.777  0.00  0.00    +0.000 N 
ATOM      6  N   UNL     1      45.692   5.198  10.714  0.00  0.00    +0.000 NA
ATOM      7  C   UNL     1      46.068   6.310  11.405  0.00  0.00    +0.000 A 
ATOM      8  H   UNL     1      45.753   2.155  10.863  0.00  0.00    +0.000 HD
ENDROOT
BRANCH   1  11
ATOM      9  C   UNL     1      48.150   8.811  14.931  0.00  0.00    +0.000 C 
ATOM     10  N   UNL     1      47.710   7.620  14.248  0.00  0.00    +0.000 N 
ATOM     11  C   UNL     1      46.598   7.638  13.430  0.00  0.00    +0.000 C 
ATOM     12  O   UNL     1      45.934   8.645  13.215  0.00  0.00    +0.000 OA
ATOM     13  H   UNL     1      48.314   6.811  14.266  0.00  0.00    +0.000 HD
ENDBRANCH   1  11
BRANCH   5  14
ATOM     14  C   UNL     1      44.428   2.983   9.468  0.00  0.00    +0.000 C 
ATOM     15  C   UNL     1      43.816   4.357   9.191  0.00  0.00    +0.000 C 
BRANCH  14  16
ATOM     16  C   UNL     1      45.482   2.654   8.412  0.00  0.00    +0.000 A 
ATOM     17  C   UNL     1      45.876   3.622   7.474  0.00  0.00    +0.000 A 
ATOM     18  C   UNL     1      46.841   3.333   6.507  0.00  0.00    +0.000 A 
ATOM     19  C   UNL     1      47.425   2.071   6.455  0.00  0.00    +0.000 A 
ATOM     20  C   UNL     1      47.049   1.093   7.376  0.00  0.00    +0.000 A 
ATOM     21  C   UNL     1      46.087   1.383   8.346  0.00  0.00    +0.000 A 
ENDBRANCH  14  16
ENDBRANCH   5  14
TORSDOF 3
ENDMDL
MODEL 4
REMARK VINA RESULT:    -6.346      3.541      6.973
REMARK INTER + INTRA:          -7.935
REMARK INTER:                  -7.479
REMARK INTRA:                  -0.456
REMARK UNBOUND:                -0.476
REMARK  Name = 
REMARK  5 active torsions:
REMARK  status: ('A' for Active; 'I' for Inactive)
REMARK    1  A    between atoms: C_1  and  N_2
REMARK    2  A    between atoms: C_3  and  C_5
REMARK    3  A    between atoms: N_9  and  C_10
REMARK    4  A    between atoms: C_10  and  C_11
REMARK    5  A    between atoms: C_10  and  C_12
REMARK                            x       y       z     vdW  Elec       q    Type
REMARK                         _______ _______ _______ _____ _____    ______ ____
ROOT
ATOM      1  C   UNL     1      46.456   8.074  13.067  0.00  0.00    +0.000 A 
ATOM      2  C   UNL     1      45.635   8.465  12.015  0.00  0.00    +0.000 A 
ATOM      3  C   UNL     1      44.820   7.511  11.399  0.00  0.00    +0.000 A 
ATOM      4  C   UNL     1      44.878   6.177  11.802  0.00  0.00    +0.000 A 
ATOM      5  N   UNL     1      44.099   5.260  11.103  0.00  0.00    +0.000 N 
ATOM      6  N   UNL     1      45.683   5.784  12.808  0.00  0.00    +0.000 NA
ATOM      7  C   UNL     1      46.443   6.733  13.423  0.00  0.00    +0.000 A 
ATOM      8  H   UNL     1      43.111   5.447  11.209  0.00  0.00    +0.000 HD
ENDROOT
BRANCH   1  11
ATOM      9  C   UNL     1      48.396   9.631  15.919  0.00  0.00    +0.000 C 
ATOM     10  N   UNL     1      47.538   8.784  15.129  0.00  0.00    +0.000 N 
ATOM     11  C   UNL     1      47.365   9.006  13.778  0.00  0.00    +0.000 C 
ATOM     12  O   UNL     1      47.928   9.905  13.164  0.00  0.00    +0.000 OA
ATOM     13  H   UNL     1      47.181   7.939  15.555  0.00  0.00    +0.000 HD
ENDBRANCH   1  11
BRANCH   5  14
ATOM     14  C   UNL     1      44.458   3.844  11.137  0.00  0.00    +0.000 C 
ATOM     15  C   UNL     1      43.265   2.930  11.417  0.00  0.00    +0.000 C 
BRANCH  14  16
ATOM     16  C   UNL     1      45.086   3.492   9.790  0.00  0.00    +0.000 A 
ATOM     17  C   UNL     1      45.516   4.507   8.919  0.00  0.00    +0.000 A 
ATOM     18  C   UNL     1      46.093   4.197   7.686  0.00  0.00    +0.000 A 
ATOM     19  C   UNL     1      46.247   2.869   7.298  0.00  0.00    +0.000 A 
ATOM     20  C   UNL     1      45.826   1.845   8.145  0.00  0.00    +0.000 A 
ATOM     21  C   UNL     1      45.252   2.154   9.380  0.00  0.00    +0.000 A 
ENDBRANCH  14  16
ENDBRANCH   5  14
TORSDOF 3
ENDMDL
MODEL 5
REMARK VINA RESULT:    -5.858      4.362      6.390
REMARK INTER + INTRA:          -7.361
REMARK INTER:                  -7.072
REMARK INTRA:                  -0.289
REMARK UNBOUND:                -0.476
REMARK  Name = 
REMARK  5 active torsions:
REMARK  status: ('A' for Active; 'I' for Inactive)
REMARK    1  A    between atoms: C_1  and  N_2
REMARK    2  A    between atoms: C_3  and  C_5
REMARK    3  A    between atoms: N_9  and  C_10
REMARK    4  A    between atoms: C_10  and  C_11
REMARK    5  A    between atoms: C_10  and  C_12
REMARK                            x       y       z     vdW  Elec       q    Type
REMARK                         _______ _______ _______ _____ _____    ______ ____
ROOT
ATOM      1  C   UNL     1      45.546   4.867  12.077  0.00  0.00    +0.000 A 
ATOM      2  C   UNL     1      46.144   6.038  12.530  0.00  0.00    +0.000 A 
ATOM      3  C   UNL     1      46.888   6.008  13.713  0.00  0.00    +0.000 A 
ATOM      4  C   UNL     1      46.976   4.828  14.453  0.00  0.00    +0.000 A 
ATOM      5  N   UNL     1      47.669   4.877  15.659  0.00  0.00    +0.000 N 
ATOM      6  N   UNL     1      46.386   3.693  14.033  0.00  0.00    +0.000 NA
ATOM      7  C   UNL     1      45.696   3.730  12.859  0.00  0.00    +0.000 A 
ATOM      8  H   UNL     1      48.648   5.089  15.523  0.00  0.00    +0.000 HD
ENDROOT
BRANCH   1  11
ATOM      9  C   UNL     1      44.578   4.000   8.523  0.00  0.00    +0.000 C 
ATOM     10  N   UNL     1      45.285   4.125   9.774  0.00  0.00    +0.000 N 
ATOM     11  C   UNL     1      44.727   4.798  10.842  0.00  0.00    +0.000 C 
ATOM     12  O   UNL     1      43.613   5.308  10.813  0.00  0.00    +0.000 OA
ATOM     13  H   UNL     1      46.131   3.588   9.898  0.00  0.00    +0.000 HD
ENDBRANCH   1  11
BRANCH   5  14
ATOM     14  C   UNL     1      47.401   3.864  16.678  0.00  0.00    +0.000 C 
ATOM     15  C   UNL     1      48.253   2.605  16.510  0.00  0.00    +0.000 C 
BRANCH  14  16
ATOM     16  C   UNL     1      47.664   4.499  18.043  0.00  0.00    +0.000 A 
ATOM     17  C   UNL     1      46.928   5.622  18.458  0.00  0.00    +0.000 A 
ATOM     18  C   UNL     1      47.158   6.209  19.703  0.00  0.00    +0.000 A 
ATOM     19  C   UNL     1      48.129   5.690  20.555  0.00  0.00    +0.000 A 
ATOM     20  C   UNL     1      48.872   4.577  20.163  0.00  0.00    +0.000 A 
ATOM     21  C   UNL     1      48.640   3.987  18.918  0.00  0.00    +0.000 A 
ENDBRANCH  14  16
ENDBRANCH   5  14
TORSDOF 3
ENDMDL
MODEL 6
REMARK VINA RESULT:    -5.776      5.811      8.876
REMARK INTER + INTRA:          -7.265
REMARK INTER:                  -7.024
REMARK INTRA:                  -0.240
REMARK UNBOUND:                -0.476
REMARK  Name = 
REMARK  5 active torsions:
REMARK  status: ('A' for Active; 'I' for Inactive)
REMARK    1  A    between atoms: C_1  and  N_2
REMARK    2  A    between atoms: C_3  and  C_5
REMARK    3  A    between atoms: N_9  and  C_10
REMARK    4  A    between atoms: C_10  and  C_11
REMARK    5  A    between atoms: C_10  and  C_12
REMARK                            x       y       z     vdW  Elec       q    Type
REMARK                         _______ _______ _______ _____ _____    ______ ____
ROOT
ATOM      1  C   UNL     1      48.784   4.458  18.350  0.00  0.00    +0.000 A 
ATOM      2  C   UNL     1      48.133   3.268  18.042  0.00  0.00    +0.000 A 
ATOM      3  C   UNL     1      47.551   3.119  16.781  0.00  0.00    +0.000 A 
ATOM      4  C   UNL     1      47.576   4.175  15.870  0.00  0.00    +0.000 A 
ATOM      5  N   UNL     1      46.915   3.995  14.658  0.00  0.00    +0.000 N 
ATOM      6  N   UNL     1      48.187   5.338  16.164  0.00  0.00    +0.000 NA
ATOM      7  C   UNL     1      48.783   5.454  17.383  0.00  0.00    +0.000 A 
ATOM      8  H   UNL     1      47.336   3.258  14.107  0.00  0.00    +0.000 HD
ENDROOT
BRANCH   1  11
ATOM      9  C   UNL     1      51.517   4.793  20.946  0.00  0.00    +0.000 C 
ATOM     10  N   UNL     1      50.794   4.568  19.719  0.00  0.00    +0.000 N 
ATOM     11  C   UNL     1      49.423   4.719  19.663  0.00  0.00    +0.000 C 
ATOM     12  O   UNL     1      48.741   5.065  20.621  0.00  0.00    +0.000 OA
ATOM     13  H   UNL     1      51.325   4.440  18.870  0.00  0.00    +0.000 HD
ENDBRANCH   1  11
BRANCH   5  14
ATOM     14  C   UNL     1      46.495   5.166  13.892  0.00  0.00    +0.000 C 
ATOM     15  C   UNL     1      47.598   5.717  12.988  0.00  0.00    +0.000 C 
BRANCH  14  16
ATOM     16  C   UNL     1      45.282   4.761  13.055  0.00  0.00    +0.000 A 
ATOM     17  C   UNL     1      45.240   3.507  12.423  0.00  0.00    +0.000 A 
ATOM     18  C   UNL     1      44.137   3.125  11.659  0.00  0.00    +0.000 A 
ATOM     19  C   UNL     1      43.057   3.990  11.507  0.00  0.00    +0.000 A 
ATOM     20  C   UNL     1      43.077   5.241  12.124  0.00  0.00    +0.000 A 
ATOM     21  C   UNL     1      44.179   5.621  12.892  0.00  0.00    +0.000 A 
ENDBRANCH  14  16
ENDBRANCH   5  14
TORSDOF 3
ENDMDL
MODEL 7
REMARK VINA RESULT:    -5.464      3.504      5.346
REMARK INTER + INTRA:          -6.898
REMARK INTER:                  -6.414
REMARK INTRA:                  -0.485
REMARK UNBOUND:                -0.476
REMARK  Name = 
REMARK  5 active torsions:
REMARK  status: ('A' for Active; 'I' for Inactive)
REMARK    1  A    between atoms: C_1  and  N_2
REMARK    2  A    between atoms: C_3  and  C_5
REMARK    3  A    between atoms: N_9  and  C_10
REMARK    4  A    between atoms: C_10  and  C_11
REMARK    5  A    between atoms: C_10  and  C_12
REMARK                            x       y       z     vdW  Elec       q    Type
REMARK                         _______ _______ _______ _____ _____    ______ ____
ROOT
ATOM      1  C   UNL     1      45.297   4.528  11.398  0.00  0.00    +0.000 A 
ATOM      2  C   UNL     1      45.299   4.049  12.704  0.00  0.00    +0.000 A 
ATOM      3  C   UNL     1      45.936   4.795  13.699  0.00  0.00    +0.000 A 
ATOM      4  C   UNL     1      46.607   5.972  13.369  0.00  0.00    +0.000 A 
ATOM      5  N   UNL     1      47.285   6.633  14.389  0.00  0.00    +0.000 N 
ATOM      6  N   UNL     1      46.627   6.436  12.105  0.00  0.00    +0.000 NA
ATOM      7  C   UNL     1      45.970   5.717  11.153  0.00  0.00    +0.000 A 
ATOM      8  H   UNL     1      46.654   6.969  15.105  0.00  0.00    +0.000 HD
ENDROOT
BRANCH   1  11
ATOM      9  C   UNL     1      44.529   1.717   8.984  0.00  0.00    +0.000 C 
ATOM     10  N   UNL     1      45.079   2.509  10.055  0.00  0.00    +0.000 N 
ATOM     11  C   UNL     1      44.660   3.806  10.269  0.00  0.00    +0.000 C 
ATOM     12  O   UNL     1      43.799   4.358   9.594  0.00  0.00    +0.000 OA
ATOM     13  H   UNL     1      45.670   2.048  10.733  0.00  0.00    +0.000 HD
ENDBRANCH   1  11
BRANCH   5  14
ATOM     14  C   UNL     1      48.366   7.556  14.048  0.00  0.00    +0.000 C 
ATOM     15  C   UNL     1      47.973   9.025  14.211  0.00  0.00    +0.000 C 
BRANCH  14  16
ATOM     16  C   UNL     1      49.557   7.227  14.947  0.00  0.00    +0.000 A 
ATOM     17  C   UNL     1      49.402   6.364  16.045  0.00  0.00    +0.000 A 
ATOM     18  C   UNL     1      50.483   6.054  16.872  0.00  0.00    +0.000 A 
ATOM     19  C   UNL     1      51.738   6.604  16.620  0.00  0.00    +0.000 A 
ATOM     20  C   UNL     1      51.914   7.464  15.537  0.00  0.00    +0.000 A 
ATOM     21  C   UNL     1      50.834   7.771  14.708  0.00  0.00    +0.000 A 
ENDBRANCH  14  16
ENDBRANCH   5  14
TORSDOF 3
ENDMDL
MODEL 8
REMARK VINA RESULT:    -5.423      4.475      7.014
REMARK INTER + INTRA:          -6.850
REMARK INTER:                  -6.294
REMARK INTRA:                  -0.556
REMARK UNBOUND:                -0.476
REMARK  Name = 
REMARK  5 active torsions:
REMARK  status: ('A' for Active; 'I' for Inactive)
REMARK    1  A    between atoms: C_1  and  N_2
REMARK    2  A    between atoms: C_3  and  C_5
REMARK    3  A    between atoms: N_9  and  C_10
REMARK    4  A    between atoms: C_10  and  C_11
REMARK    5  A    between atoms: C_10  and  C_12
REMARK                            x       y       z     vdW  Elec       q    Type
REMARK                         _______ _______ _______ _____ _____    ______ ____
ROOT
ATOM      1  C   UNL     1      45.596   5.349  13.178  0.00  0.00    +0.000 A 
ATOM      2  C   UNL     1      45.940   6.612  12.707  0.00  0.00    +0.000 A 
ATOM      3  C   UNL     1      47.137   7.193  13.132  0.00  0.00    +0.000 A 
ATOM      4  C   UNL     1      47.944   6.534  14.060  0.00  0.00    +0.000 A 
ATOM      5  N   UNL     1      49.087   7.193  14.502  0.00  0.00    +0.000 N 
ATOM      6  N   UNL     1      47.612   5.318  14.536  0.00  0.00    +0.000 NA
ATOM      7  C   UNL     1      46.460   4.749  14.084  0.00  0.00    +0.000 A 
ATOM      8  H   UNL     1      49.747   7.345  13.751  0.00  0.00    +0.000 HD
ENDROOT
BRANCH   1  11
ATOM      9  C   UNL     1      43.334   2.723  11.660  0.00  0.00    +0.000 C 
ATOM     10  N   UNL     1      44.485   3.480  12.084  0.00  0.00    +0.000 N 
ATOM     11  C   UNL     1      44.343   4.653  12.797  0.00  0.00    +0.000 C 
ATOM     12  O   UNL     1      43.257   5.114  13.129  0.00  0.00    +0.000 OA
ATOM     13  H   UNL     1      45.398   3.059  11.975  0.00  0.00    +0.000 HD
ENDBRANCH   1  11
BRANCH   5  14
ATOM     14  C   UNL     1      49.690   6.803  15.774  0.00  0.00    +0.000 C 
ATOM     15  C   UNL     1      51.165   7.190  15.882  0.00  0.00    +0.000 C 
BRANCH  14  16
ATOM     16  C   UNL     1      48.888   7.470  16.891  0.00  0.00    +0.000 A 
ATOM     17  C   UNL     1      48.402   6.712  17.968  0.00  0.00    +0.000 A 
ATOM     18  C   UNL     1      47.670   7.311  18.995  0.00  0.00    +0.000 A 
ATOM     19  C   UNL     1      47.407   8.678  18.962  0.00  0.00    +0.000 A 
ATOM     20  C   UNL     1      47.879   9.450  17.902  0.00  0.00    +0.000 A 
ATOM     21  C   UNL     1      48.614   8.852  16.876  0.00  0.00    +0.000 A 
ENDBRANCH  14  16
ENDBRANCH   5  14
TORSDOF 3
ENDMDL
MODEL 9
REMARK VINA RESULT:    -5.070      4.439      7.335
REMARK INTER + INTRA:          -6.435
REMARK INTER:                  -5.922
REMARK INTRA:                  -0.513
REMARK UNBOUND:                -0.476
REMARK  Name = 
REMARK  5 active torsions:
REMARK  status: ('A' for Active; 'I' for Inactive)
REMARK    1  A    between atoms: C_1  and  N_2
REMARK    2  A    between atoms: C_3  and  C_5
REMARK    3  A    between atoms: N_9  and  C_10
REMARK    4  A    between atoms: C_10  and  C_11
REMARK    5  A    between atoms: C_10  and  C_12
REMARK                            x       y       z     vdW  Elec       q    Type
REMARK                         _______ _______ _______ _____ _____    ______ ____
ROOT
ATOM      1  C   UNL     1      46.025   6.325  12.695  0.00  0.00    +0.000 A 
ATOM      2  C   UNL     1      46.296   7.683  12.826  0.00  0.00    +0.000 A 
ATOM      3  C   UNL     1      47.426   8.084  13.541  0.00  0.00    +0.000 A 
ATOM      4  C   UNL     1      48.236   7.133  14.162  0.00  0.00    +0.000 A 
ATOM      5  N   UNL     1      49.305   7.595  14.923  0.00  0.00    +0.000 N 
ATOM      6  N   UNL     1      47.973   5.816  14.058  0.00  0.00    +0.000 NA
ATOM      7  C   UNL     1      46.888   5.439  13.325  0.00  0.00    +0.000 A 
ATOM      8  H   UNL     1      49.986   8.083  14.356  0.00  0.00    +0.000 HD
ENDROOT
BRANCH   1  11
ATOM      9  C   UNL     1      42.404   5.530  11.938  0.00  0.00    +0.000 C 
ATOM     10  N   UNL     1      43.616   6.004  12.558  0.00  0.00    +0.000 N 
ATOM     11  C   UNL     1      44.846   5.797  11.967  0.00  0.00    +0.000 C 
ATOM     12  O   UNL     1      44.991   5.228  10.891  0.00  0.00    +0.000 OA
ATOM     13  H   UNL     1      43.534   6.615  13.359  0.00  0.00    +0.000 HD
ENDBRANCH   1  11
BRANCH   5  14
ATOM     14  C   UNL     1      49.876   6.731  15.954  0.00  0.00    +0.000 C 
ATOM     15  C   UNL     1      51.352   7.020  16.228  0.00  0.00    +0.000 C 
BRANCH  14  16
ATOM     16  C   UNL     1      49.056   6.927  17.228  0.00  0.00    +0.000 A 
ATOM     17  C   UNL     1      48.518   8.186  17.542  0.00  0.00    +0.000 A 
ATOM     18  C   UNL     1      47.765   8.375  18.702  0.00  0.00    +0.000 A 
ATOM     19  C   UNL     1      47.539   7.313  19.572  0.00  0.00    +0.000 A 
ATOM     20  C   UNL     1      48.065   6.054  19.282  0.00  0.00    +0.000 A 
ATOM     21  C   UNL     1      48.815   5.863  18.120  0.00  0.00    +0.000 A 
ENDBRANCH  14  16
ENDBRANCH   5  14
TORSDOF 3
ENDMDL
