MODEL 1
REMARK VINA RESULT:    -7.772      0.000      0.000
REMARK INTER + INTRA:         -10.428
REMARK INTER:                  -9.817
REMARK INTRA:                  -0.611
REMARK UNBOUND:                -0.611
REMARK  Name = 
REMARK  5 active torsions:
REMARK  status: ('A' for Active; 'I' for Inactive)
REMARK    1  A    between atoms: N_1  and  C_2
REMARK    2  A    between atoms: C_2  and  C_3
REMARK    3  A    between atoms: C_3  and  C_4
REMARK    4  A    between atoms: C_7  and  C_8
REMARK    5  A    between atoms: C_8  and  C_9
REMARK                            x       y       z     vdW  Elec       q    Type
REMARK                         _______ _______ _______ _____ _____    ______ ____
ROOT
ATOM      1  C   UNL     1      46.143   2.362   7.740  0.00  0.00    +0.000 A 
ATOM      2  C   UNL     1      46.243   3.752   7.677  0.00  0.00    +0.000 A 
ATOM      3  C   UNL     1      45.644   4.555   8.657  0.00  0.00    +0.000 A 
ATOM      4  C   UNL     1      44.933   3.971   9.713  0.00  0.00    +0.000 A 
ATOM      5  C   UNL     1      44.835   2.579   9.777  0.00  0.00    +0.000 A 
ATOM      6  C   UNL     1      45.438   1.779   8.797  0.00  0.00    +0.000 A 
ENDROOT
BRANCH   1   7
ATOM      7  C   UNL     1      46.787   1.510   6.683  0.00  0.00    +0.000 C 
BRANCH   7   8
ATOM      8  C   UNL     1      48.198   1.990   6.331  0.00  0.00    +0.000 C 
BRANCH   8   9
ATOM      9  N   UNL     1      48.258   2.514   4.963  0.00  0.00    +0.000 NA
ATOM     10  H   UNL     1      49.100   3.078   4.862  0.00  0.00    +0.000 HD
ATOM     11  H   UNL     1      47.471   3.148   4.810  0.00  0.00    +0.000 HD
ENDBRANCH   8   9
ENDBRANCH   7   8
ENDBRANCH   1   7
BRANCH   4  12
ATOM     12  C   UNL     1      44.301   4.845  10.764  0.00  0.00    +0.000 C 
BRANCH  12  13
ATOM     13  C   UNL     1      45.180   5.296  11.910  0.00  0.00    +0.000 A 
ATOM     14  C   UNL     1      45.695   6.595  11.850  0.00  0.00    +0.000 A 
ATOM     15  C   UNL     1      46.683   6.996  12.739  0.00  0.00    +0.000 A 
ATOM     16  C   UNL     1      47.088   6.123  13.760  0.00  0.00    +0.000 A 
ATOM     17  C   UNL     1      48.148   6.401  14.610  0.00  0.00    +0.000 A 
ATOM     18  N   UNL     1      48.449   5.665  15.693  0.00  0.00    +0.000 NA
ATOM     19  C   UNL     1      47.658   4.602  15.892  0.00  0.00    +0.000 A 
ATOM     20  N   UNL     1      46.699   4.157  15.063  0.00  0.00    +0.000 NA
ATOM     21  C   UNL     1      46.437   4.911  13.982  0.00  0.00    +0.000 A 
ATOM     22  C   UNL     1      45.516   4.497  13.020  0.00  0.00    +0.000 A 
ENDBRANCH  12  13
ENDBRANCH   4  12
TORSDOF 5
ENDMDL
MODEL 2
REMARK VINA RESULT:    -7.371      1.594      7.424
REMARK INTER + INTRA:          -9.921
REMARK INTER:                  -9.305
REMARK INTRA:                  -0.617
REMARK UNBOUND:                -0.611
REMARK  Name = 
REMARK  5 active torsions:
REMARK  status: ('A' for Active; 'I' for Inactive)
REMARK    1  A    between atoms: N_1  and  C_2
REMARK    2  A    between atoms: C_2  and  C_3
REMARK    3  A    between atoms: C_3  and  C_4
REMARK    4  A    between atoms: C_7  and  C_8
REMARK    5  A    between atoms: C_8  and  C_9
REMARK                            x       y       z     vdW  Elec       q    Type
REMARK                         _______ _______ _______ _____ _____    ______ ____
ROOT
ATOM      1  C   UNL     1      47.154   6.221  13.418  0.00  0.00    +0.000 A 
ATOM      2  C   UNL     1      46.344   5.107  13.646  0.00  0.00    +0.000 A 
ATOM      3  C   UNL     1      45.471   4.645  12.653  0.00  0.00    +0.000 A 
ATOM      4  C   UNL     1      45.397   5.297  11.416  0.00  0.00    +0.000 A 
ATOM      5  C   UNL     1      46.209   6.410  11.186  0.00  0.00    +0.000 A 
ATOM      6  C   UNL     1      47.084   6.868  12.181  0.00  0.00    +0.000 A 
ENDROOT
BRANCH   1   7
ATOM      7  C   UNL     1      48.085   6.710  14.490  0.00  0.00    +0.000 C 
BRANCH   7   8
ATOM      8  C   UNL     1      48.401   8.201  14.348  0.00  0.00    +0.000 C 
BRANCH   8   9
ATOM      9  N   UNL     1      47.503   9.019  15.169  0.00  0.00    +0.000 NA
ATOM     10  H   UNL     1      47.363   8.557  16.066  0.00  0.00    +0.000 HD
ATOM     11  H   UNL     1      46.584   9.061  14.723  0.00  0.00    +0.000 HD
ENDBRANCH   8   9
ENDBRANCH   7   8
ENDBRANCH   1   7
BRANCH   4  12
ATOM     12  C   UNL     1      44.460   4.785  10.353  0.00  0.00    +0.000 C 
BRANCH  12  13
ATOM     13  C   UNL     1      45.035   3.839   9.321  0.00  0.00    +0.000 A 
ATOM     14  C   UNL     1      44.884   2.468   9.554  0.00  0.00    +0.000 A 
ATOM     15  C   UNL     1      45.577   1.548   8.778  0.00  0.00    +0.000 A 
ATOM     16  C   UNL     1      46.348   1.999   7.696  0.00  0.00    +0.000 A 
ATOM     17  C   UNL     1      47.162   1.160   6.951  0.00  0.00    +0.000 A 
ATOM     18  N   UNL     1      47.778   1.531   5.816  0.00  0.00    +0.000 NA
ATOM     19  C   UNL     1      47.574   2.805   5.454  0.00  0.00    +0.000 A 
ATOM     20  N   UNL     1      46.929   3.743   6.167  0.00  0.00    +0.000 NA
ATOM     21  C   UNL     1      46.339   3.337   7.304  0.00  0.00    +0.000 A 
ATOM     22  C   UNL     1      45.711   4.246   8.155  0.00  0.00    +0.000 A 
ENDBRANCH  12  13
ENDBRANCH   4  12
TORSDOF 5
ENDMDL
MODEL 3
REMARK VINA RESULT:    -7.034      1.183      7.467
REMARK INTER + INTRA:          -9.495
REMARK INTER:                  -9.002
REMARK INTRA:                  -0.493
REMARK UNBOUND:                -0.611
REMARK  Name = 
REMARK  5 active torsions:
REMARK  status: ('A' for Active; 'I' for Inactive)
REMARK    1  A    between atoms: N_1  and  C_2
REMARK    2  A    between atoms: C_2  and  C_3
REMARK    3  A    between atoms: C_3  and  C_4
REMARK    4  A    between atoms: C_7  and  C_8
REMARK    5  A    between atoms: C_8  and  C_9
REMARK                            x       y       z     vdW  Elec       q    Type
REMARK                         _______ _______ _______ _____ _____    ______ ____
ROOT
ATOM      1  C   UNL     1      47.084   5.189  14.370  0.00  0.00    +0.000 A 
ATOM      2  C   UNL     1      46.028   4.299  14.166  0.00  0.00    +0.000 A 
ATOM      3  C   UNL     1      45.293   4.326  12.974  0.00  0.00    +0.000 A 
ATOM      4  C   UNL     1      45.607   5.250  11.970  0.00  0.00    +0.000 A 
ATOM      5  C   UNL     1      46.665   6.139  12.172  0.00  0.00    +0.000 A 
ATOM      6  C   UNL     1      47.400   6.107  13.365  0.00  0.00    +0.000 A 
ENDROOT
BRANCH   1   7
ATOM      7  C   UNL     1      47.865   5.153  15.653  0.00  0.00    +0.000 C 
BRANCH   7   8
ATOM      8  C   UNL     1      47.587   3.886  16.467  0.00  0.00    +0.000 C 
BRANCH   8   9
ATOM      9  N   UNL     1      46.865   4.193  17.705  0.00  0.00    +0.000 NA
ATOM     10  H   UNL     1      45.941   3.765  17.663  0.00  0.00    +0.000 HD
ATOM     11  H   UNL     1      46.709   5.201  17.763  0.00  0.00    +0.000 HD
ENDBRANCH   8   9
ENDBRANCH   7   8
ENDBRANCH   1   7
BRANCH   4  12
ATOM     12  C   UNL     1      44.814   5.263  10.689  0.00  0.00    +0.000 C 
BRANCH  12  13
ATOM     13  C   UNL     1      45.179   4.237   9.639  0.00  0.00    +0.000 A 
ATOM     14  C   UNL     1      44.846   2.904   9.904  0.00  0.00    +0.000 A 
ATOM     15  C   UNL     1      45.348   1.888   9.101  0.00  0.00    +0.000 A 
ATOM     16  C   UNL     1      46.106   2.214   7.966  0.00  0.00    +0.000 A 
ATOM     17  C   UNL     1      46.740   1.260   7.185  0.00  0.00    +0.000 A 
ATOM     18  N   UNL     1      47.328   1.530   6.008  0.00  0.00    +0.000 NA
ATOM     19  C   UNL     1      47.288   2.817   5.638  0.00  0.00    +0.000 A 
ATOM     20  N   UNL     1      46.832   3.844   6.374  0.00  0.00    +0.000 NA
ATOM     21  C   UNL     1      46.264   3.536   7.553  0.00  0.00    +0.000 A 
ATOM     22  C   UNL     1      45.831   4.533   8.427  0.00  0.00    +0.000 A 
ENDBRANCH  12  13
ENDBRANCH   4  12
TORSDOF 5
ENDMDL
MODEL 4
REMARK VINA RESULT:    -6.211      1.809      7.236
REMARK INTER + INTRA:          -8.456
REMARK INTER:                  -8.180
REMARK INTRA:                  -0.276
REMARK UNBOUND:                -0.611
REMARK  Name = 
REMARK  5 active torsions:
REMARK  status: ('A' for Active; 'I' for Inactive)
REMARK    1  A    between atoms: N_1  and  C_2
REMARK    2  A    between atoms: C_2  and  C_3
REMARK    3  A    between atoms: C_3  and  C_4
REMARK    4  A    between atoms: C_7  and  C_8
REMARK    5  A    between atoms: C_8  and  C_9
REMARK                            x       y       z     vdW  Elec       q    Type
REMARK                         _______ _______ _______ _____ _____    ______ ____
ROOT
ATOM      1  C   UNL     1      46.214   8.001  12.728  0.00  0.00    +0.000 A 
ATOM      2  C   UNL     1      46.857   6.780  12.517  0.00  0.00    +0.000 A 
ATOM      3  C   UNL     1      46.240   5.768  11.772  0.00  0.00    +0.000 A 
ATOM      4  C   UNL     1      44.964   5.966  11.228  0.00  0.00    +0.000 A 
ATOM      5  C   UNL     1      44.321   7.189  11.436  0.00  0.00    +0.000 A 
ATOM      6  C   UNL     1      44.943   8.201  12.180  0.00  0.00    +0.000 A 
ENDROOT
BRANCH   1   7
ATOM      7  C   UNL     1      46.883   9.080  13.531  0.00  0.00    +0.000 C 
BRANCH   7   8
ATOM      8  C   UNL     1      48.204   8.609  14.147  0.00  0.00    +0.000 C 
BRANCH   8   9
ATOM      9  N   UNL     1      47.976   7.828  15.366  0.00  0.00    +0.000 NA
ATOM     10  H   UNL     1      48.856   7.743  15.873  0.00  0.00    +0.000 HD
ATOM     11  H   UNL     1      47.702   6.877  15.111  0.00  0.00    +0.000 HD
ENDBRANCH   8   9
ENDBRANCH   7   8
ENDBRANCH   1   7
BRANCH   4  12
ATOM     12  C   UNL     1      44.315   4.872  10.422  0.00  0.00    +0.000 C 
BRANCH  12  13
ATOM     13  C   UNL     1      45.193   4.115   9.450  0.00  0.00    +0.000 A 
ATOM     14  C   UNL     1      45.955   4.871   8.552  0.00  0.00    +0.000 A 
ATOM     15  C   UNL     1      46.602   4.249   7.492  0.00  0.00    +0.000 A 
ATOM     16  C   UNL     1      46.569   2.851   7.386  0.00  0.00    +0.000 A 
ATOM     17  C   UNL     1      47.085   2.166   6.296  0.00  0.00    +0.000 A 
ATOM     18  N   UNL     1      47.215   0.830   6.247  0.00  0.00    +0.000 NA
ATOM     19  C   UNL     1      46.777   0.179   7.334  0.00  0.00    +0.000 A 
ATOM     20  N   UNL     1      46.132   0.721   8.380  0.00  0.00    +0.000 NA
ATOM     21  C   UNL     1      46.008   2.059   8.387  0.00  0.00    +0.000 A 
ATOM     22  C   UNL     1      45.287   2.711   9.387  0.00  0.00    +0.000 A 
ENDBRANCH  12  13
ENDBRANCH   4  12
TORSDOF 5
ENDMDL
MODEL 5
REMARK VINA RESULT:    -5.926      2.787      3.966
REMARK INTER + INTRA:          -8.096
REMARK INTER:                  -7.603
REMARK INTRA:                  -0.493
REMARK UNBOUND:                -0.611
REMARK  Name = 
REMARK  5 active torsions:
REMARK  status: ('A' for Active; 'I' for Inactive)
REMARK    1  A    between atoms: N_1  and  C_2
REMARK    2  A    between atoms: C_2  and  C_3
REMARK    3  A    between atoms: C_3  and  C_4
REMARK    4  A    between atoms: C_7  and  C_8
REMARK    5  A    between atoms: C_8  and  C_9
REMARK                            x       y       z     vdW  Elec       q    Type
REMARK                         _______ _______ _______ _____ _____    ______ ____
ROOT
ATOM      1  C   UNL     1      44.915   3.202   9.909  0.00  0.00    +0.000 A 
ATOM      2  C   UNL     1      44.744   2.944  11.270  0.00  0.00    +0.000 A 
ATOM      3  C   UNL     1      44.858   3.976  12.211  0.00  0.00    +0.000 A 
ATOM      4  C   UNL     1      45.149   5.282  11.798  0.00  0.00    +0.000 A 
ATOM      5  C   UNL     1      45.317   5.541  10.436  0.00  0.00    +0.000 A 
ATOM      6  C   UNL     1      45.199   4.507   9.496  0.00  0.00    +0.000 A 
ENDROOT
BRANCH   1   7
ATOM      7  C   UNL     1      44.792   2.089   8.907  0.00  0.00    +0.000 C 
BRANCH   7   8
ATOM      8  C   UNL     1      46.067   1.912   8.078  0.00  0.00    +0.000 C 
BRANCH   8   9
ATOM      9  N   UNL     1      46.470   0.504   8.010  0.00  0.00    +0.000 NA
ATOM     10  H   UNL     1      46.155   0.030   8.855  0.00  0.00    +0.000 HD
ATOM     11  H   UNL     1      47.490   0.445   8.014  0.00  0.00    +0.000 HD
ENDBRANCH   8   9
ENDBRANCH   7   8
ENDBRANCH   1   7
BRANCH   4  12
ATOM     12  C   UNL     1      45.261   6.383  12.819  0.00  0.00    +0.000 C 
BRANCH  12  13
ATOM     13  C   UNL     1      46.359   7.404  12.618  0.00  0.00    +0.000 A 
ATOM     14  C   UNL     1      45.997   8.755  12.679  0.00  0.00    +0.000 A 
ATOM     15  C   UNL     1      46.896   9.736  12.282  0.00  0.00    +0.000 A 
ATOM     16  C   UNL     1      48.200   9.371  11.915  0.00  0.00    +0.000 A 
ATOM     17  C   UNL     1      49.115  10.273  11.394  0.00  0.00    +0.000 A 
ATOM     18  N   UNL     1      50.412   9.988  11.192  0.00  0.00    +0.000 NA
ATOM     19  C   UNL     1      50.772   8.736  11.508  0.00  0.00    +0.000 A 
ATOM     20  N   UNL     1      49.950   7.742  11.882  0.00  0.00    +0.000 NA
ATOM     21  C   UNL     1      48.656   8.062  12.058  0.00  0.00    +0.000 A 
ATOM     22  C   UNL     1      47.708   7.087  12.369  0.00  0.00    +0.000 A 
ENDBRANCH  12  13
ENDBRANCH   4  12
TORSDOF 5
ENDMDL
MODEL 6
REMARK VINA RESULT:    -5.709      2.241      7.158
REMARK INTER + INTRA:          -7.822
REMARK INTER:                  -7.577
REMARK INTRA:                  -0.244
REMARK UNBOUND:                -0.611
REMARK  Name = 
REMARK  5 active torsions:
REMARK  status: ('A' for Active; 'I' for Inactive)
REMARK    1  A    between atoms: N_1  and  C_2
REMARK    2  A    between atoms: C_2  and  C_3
REMARK    3  A    between atoms: C_3  and  C_4
REMARK    4  A    between atoms: C_7  and  C_8
REMARK    5  A    between atoms: C_8  and  C_9
REMARK                            x       y       z     vdW  Elec       q    Type
REMARK                         _______ _______ _______ _____ _____    ______ ____
ROOT
ATOM      1  C   UNL     1      48.609   8.311  13.147  0.00  0.00    +0.000 A 
ATOM      2  C   UNL     1      48.573   7.241  12.251  0.00  0.00    +0.000 A 
ATOM      3  C   UNL     1      47.349   6.727  11.803  0.00  0.00    +0.000 A 
ATOM      4  C   UNL     1      46.143   7.279  12.252  0.00  0.00    +0.000 A 
ATOM      5  C   UNL     1      46.179   8.351  13.147  0.00  0.00    +0.000 A 
ATOM      6  C   UNL     1      47.405   8.865  13.590  0.00  0.00    +0.000 A 
ENDROOT
BRANCH   1   7
ATOM      7  C   UNL     1      49.927   8.853  13.623  0.00  0.00    +0.000 C 
BRANCH   7   8
ATOM      8  C   UNL     1      50.249   8.420  15.056  0.00  0.00    +0.000 C 
BRANCH   8   9
ATOM      9  N   UNL     1      50.563   6.989  15.124  0.00  0.00    +0.000 NA
ATOM     10  H   UNL     1      49.902   6.535  15.753  0.00  0.00    +0.000 HD
ATOM     11  H   UNL     1      51.486   6.866  15.545  0.00  0.00    +0.000 HD
ENDBRANCH   8   9
ENDBRANCH   7   8
ENDBRANCH   1   7
BRANCH   4  12
ATOM     12  C   UNL     1      44.834   6.722  11.757  0.00  0.00    +0.000 C 
BRANCH  12  13
ATOM     13  C   UNL     1      44.896   5.518  10.843  0.00  0.00    +0.000 A 
ATOM     14  C   UNL     1      44.303   4.336  11.300  0.00  0.00    +0.000 A 
ATOM     15  C   UNL     1      44.517   3.142  10.624  0.00  0.00    +0.000 A 
ATOM     16  C   UNL     1      45.247   3.147   9.426  0.00  0.00    +0.000 A 
ATOM     17  C   UNL     1      45.606   1.987   8.758  0.00  0.00    +0.000 A 
ATOM     18  N   UNL     1      46.156   1.970   7.532  0.00  0.00    +0.000 NA
ATOM     19  C   UNL     1      46.368   3.178   6.992  0.00  0.00    +0.000 A 
ATOM     20  N   UNL     1      46.196   4.364   7.599  0.00  0.00    +0.000 NA
ATOM     21  C   UNL     1      45.658   4.339   8.831  0.00  0.00    +0.000 A 
ATOM     22  C   UNL     1      45.511   5.509   9.576  0.00  0.00    +0.000 A 
ENDBRANCH  12  13
ENDBRANCH   4  12
TORSDOF 5
ENDMDL
MODEL 7
REMARK VINA RESULT:    -5.700      3.647      8.107
REMARK INTER + INTRA:          -7.811
REMARK INTER:                  -7.257
REMARK INTRA:                  -0.554
REMARK UNBOUND:                -0.611
REMARK  Name = 
REMARK  5 active torsions:
REMARK  status: ('A' for Active; 'I' for Inactive)
REMARK    1  A    between atoms: N_1  and  C_2
REMARK    2  A    between atoms: C_2  and  C_3
REMARK    3  A    between atoms: C_3  and  C_4
REMARK    4  A    between atoms: C_7  and  C_8
REMARK    5  A    between atoms: C_8  and  C_9
REMARK                            x       y       z     vdW  Elec       q    Type
REMARK                         _______ _______ _______ _____ _____    ______ ____
ROOT
ATOM      1  C   UNL     1      51.733   2.811  17.745  0.00  0.00    +0.000 A 
ATOM      2  C   UNL     1      51.722   4.205  17.793  0.00  0.00    +0.000 A 
ATOM      3  C   UNL     1      50.548   4.919  17.521  0.00  0.00    +0.000 A 
ATOM      4  C   UNL     1      49.367   4.241  17.193  0.00  0.00    +0.000 A 
ATOM      5  C   UNL     1      49.377   2.845  17.148  0.00  0.00    +0.000 A 
ATOM      6  C   UNL     1      50.553   2.134  17.424  0.00  0.00    +0.000 A 
ENDROOT
BRANCH   1   7
ATOM      7  C   UNL     1      52.998   2.054  18.036  0.00  0.00    +0.000 C 
BRANCH   7   8
ATOM      8  C   UNL     1      52.993   0.654  17.416  0.00  0.00    +0.000 C 
BRANCH   8   9
ATOM      9  N   UNL     1      52.837  -0.383  18.440  0.00  0.00    +0.000 NA
ATOM     10  H   UNL     1      52.826  -1.296  17.986  0.00  0.00    +0.000 HD
ATOM     11  H   UNL     1      51.926  -0.278  18.890  0.00  0.00    +0.000 HD
ENDBRANCH   8   9
ENDBRANCH   7   8
ENDBRANCH   1   7
BRANCH   4  12
ATOM     12  C   UNL     1      48.109   5.020  16.911  0.00  0.00    +0.000 C 
BRANCH  12  13
ATOM     13  C   UNL     1      47.680   5.141  15.465  0.00  0.00    +0.000 A 
ATOM     14  C   UNL     1      48.193   6.218  14.733  0.00  0.00    +0.000 A 
ATOM     15  C   UNL     1      47.672   6.522  13.482  0.00  0.00    +0.000 A 
ATOM     16  C   UNL     1      46.700   5.683  12.916  0.00  0.00    +0.000 A 
ATOM     17  C   UNL     1      46.046   5.983  11.731  0.00  0.00    +0.000 A 
ATOM     18  N   UNL     1      45.238   5.124  11.086  0.00  0.00    +0.000 NA
ATOM     19  C   UNL     1      45.077   3.939  11.690  0.00  0.00    +0.000 A 
ATOM     20  N   UNL     1      45.541   3.592  12.902  0.00  0.00    +0.000 NA
ATOM     21  C   UNL     1      46.333   4.483  13.523  0.00  0.00    +0.000 A 
ATOM     22  C   UNL     1      46.802   4.252  14.816  0.00  0.00    +0.000 A 
ENDBRANCH  12  13
ENDBRANCH   4  12
TORSDOF 5
ENDMDL
MODEL 8
REMARK VINA RESULT:    -5.168      3.044      4.770
REMARK INTER + INTRA:          -7.139
REMARK INTER:                  -6.586
REMARK INTRA:                  -0.552
REMARK UNBOUND:                -0.611
REMARK  Name = 
REMARK  5 active torsions:
REMARK  status: ('A' for Active; 'I' for Inactive)
REMARK    1  A    between atoms: N_1  and  C_2
REMARK    2  A    between atoms: C_2  and  C_3
REMARK    3  A    between atoms: C_3  and  C_4
REMARK    4  A    between atoms: C_7  and  C_8
REMARK    5  A    between atoms: C_8  and  C_9
REMARK                            x       y       z     vdW  Elec       q    Type
REMARK                         _______ _______ _______ _____ _____    ______ ____
ROOT
ATOM      1  C   UNL     1      44.658   3.974  11.075  0.00  0.00    +0.000 A 
ATOM      2  C   UNL     1      44.646   4.090  12.466  0.00  0.00    +0.000 A 
ATOM      3  C   UNL     1      45.194   5.216  13.093  0.00  0.00    +0.000 A 
ATOM      4  C   UNL     1      45.766   6.242  12.330  0.00  0.00    +0.000 A 
ATOM      5  C   UNL     1      45.775   6.128  10.938  0.00  0.00    +0.000 A 
ATOM      6  C   UNL     1      45.223   5.001  10.314  0.00  0.00    +0.000 A 
ENDROOT
BRANCH   1   7
ATOM      7  C   UNL     1      44.069   2.761  10.413  0.00  0.00    +0.000 C 
BRANCH   7   8
ATOM      8  C   UNL     1      44.562   2.589   8.973  0.00  0.00    +0.000 C 
BRANCH   8   9
ATOM      9  N   UNL     1      45.434   1.418   8.843  0.00  0.00    +0.000 NA
ATOM     10  H   UNL     1      45.443   1.119   7.869  0.00  0.00    +0.000 HD
ATOM     11  H   UNL     1      45.037   0.641   9.375  0.00  0.00    +0.000 HD
ENDBRANCH   8   9
ENDBRANCH   7   8
ENDBRANCH   1   7
BRANCH   4  12
ATOM     12  C   UNL     1      46.345   7.452  13.016  0.00  0.00    +0.000 C 
BRANCH  12  13
ATOM     13  C   UNL     1      47.852   7.539  13.111  0.00  0.00    +0.000 A 
ATOM     14  C   UNL     1      48.443   7.127  14.311  0.00  0.00    +0.000 A 
ATOM     15  C   UNL     1      49.785   7.389  14.553  0.00  0.00    +0.000 A 
ATOM     16  C   UNL     1      50.567   7.978  13.548  0.00  0.00    +0.000 A 
ATOM     17  C   UNL     1      51.878   8.380  13.753  0.00  0.00    +0.000 A 
ATOM     18  N   UNL     1      52.695   8.791  12.769  0.00  0.00    +0.000 NA
ATOM     19  C   UNL     1      52.142   8.815  11.548  0.00  0.00    +0.000 A 
ATOM     20  N   UNL     1      50.852   8.588  11.254  0.00  0.00    +0.000 NA
ATOM     21  C   UNL     1      50.061   8.194  12.267  0.00  0.00    +0.000 A 
ATOM     22  C   UNL     1      48.691   8.008  12.082  0.00  0.00    +0.000 A 
ENDBRANCH  12  13
ENDBRANCH   4  12
TORSDOF 5
ENDMDL
MODEL 9
REMARK VINA RESULT:    -5.064      3.821      5.630
REMARK INTER + INTRA:          -7.008
REMARK INTER:                  -6.524
REMARK INTRA:                  -0.484
REMARK UNBOUND:                -0.611
REMARK  Name = 
REMARK  5 active torsions:
REMARK  status: ('A' for Active; 'I' for Inactive)
REMARK    1  A    between atoms: N_1  and  C_2
REMARK    2  A    between atoms: C_2  and  C_3
REMARK    3  A    between atoms: C_3  and  C_4
REMARK    4  A    between atoms: C_7  and  C_8
REMARK    5  A    between atoms: C_8  and  C_9
REMARK                            x       y       z     vdW  Elec       q    Type
REMARK                         _______ _______ _______ _____ _____    ______ ____
ROOT
ATOM      1  C   UNL     1      45.333   5.050  11.903  0.00  0.00    +0.000 A 
ATOM      2  C   UNL     1      45.880   6.188  11.307  0.00  0.00    +0.000 A 
ATOM      3  C   UNL     1      47.017   6.800  11.850  0.00  0.00    +0.000 A 
ATOM      4  C   UNL     1      47.620   6.278  13.001  0.00  0.00    +0.000 A 
ATOM      5  C   UNL     1      47.075   5.138  13.596  0.00  0.00    +0.000 A 
ATOM      6  C   UNL     1      45.939   4.527  13.048  0.00  0.00    +0.000 A 
ENDROOT
BRANCH   1   7
ATOM      7  C   UNL     1      44.112   4.402  11.314  0.00  0.00    +0.000 C 
BRANCH   7   8
ATOM      8  C   UNL     1      43.420   3.462  12.305  0.00  0.00    +0.000 C 
BRANCH   8   9
ATOM      9  N   UNL     1      43.042   2.197  11.667  0.00  0.00    +0.000 NA
ATOM     10  H   UNL     1      42.658   1.572  12.374  0.00  0.00    +0.000 HD
ATOM     11  H   UNL     1      43.881   1.738  11.307  0.00  0.00    +0.000 HD
ENDBRANCH   8   9
ENDBRANCH   7   8
ENDBRANCH   1   7
BRANCH   4  12
ATOM     12  C   UNL     1      48.848   6.941  13.570  0.00  0.00    +0.000 C 
BRANCH  12  13
ATOM     13  C   UNL     1      48.806   7.341  15.028  0.00  0.00    +0.000 A 
ATOM     14  C   UNL     1      49.183   6.376  15.968  0.00  0.00    +0.000 A 
ATOM     15  C   UNL     1      48.954   6.592  17.321  0.00  0.00    +0.000 A 
ATOM     16  C   UNL     1      48.434   7.824  17.745  0.00  0.00    +0.000 A 
ATOM     17  C   UNL     1      48.066   8.074  19.058  0.00  0.00    +0.000 A 
ATOM     18  N   UNL     1      47.725   9.288  19.520  0.00  0.00    +0.000 NA
ATOM     19  C   UNL     1      47.736  10.265  18.603  0.00  0.00    +0.000 A 
ATOM     20  N   UNL     1      47.934  10.116  17.283  0.00  0.00    +0.000 NA
ATOM     21  C   UNL     1      48.258   8.884  16.856  0.00  0.00    +0.000 A 
ATOM     22  C   UNL     1      48.408   8.608  15.497  0.00  0.00    +0.000 A 
ENDBRANCH  12  13
ENDBRANCH   4  12
TORSDOF 5
ENDMDL
