MODEL 1
REMARK VINA RESULT:    -7.410      0.000      0.000
REMARK INTER + INTRA:         -12.646
REMARK INTER:                 -11.092
REMARK INTRA:                  -1.554
REMARK UNBOUND:                -1.554
REMARK  Name = 
REMARK  9 active torsions:
REMARK  status: ('A' for Active; 'I' for Inactive)
REMARK    1  A    between atoms: N_1  and  C_2
REMARK    2  A    between atoms: C_2  and  C_3
REMARK    3  A    between atoms: C_3  and  N_4
REMARK    4  A    between atoms: N_4  and  C_5
REMARK    5  A    between atoms: C_5  and  C_6
REMARK    6  A    between atoms: C_9  and  C_10
REMARK    7  A    between atoms: C_10  and  N_11
REMARK    8  A    between atoms: N_11  and  C_12
REMARK    9  A    between atoms: C_20  and  C_22
REMARK                            x       y       z     vdW  Elec       q    Type
REMARK                         _______ _______ _______ _____ _____    ______ ____
ROOT
ATOM      1  N   UNL     1      46.027   7.088  12.182  0.00  0.00    +0.000 N 
ATOM      2  C   UNL     1      44.758   6.665  11.687  0.00  0.00    +0.000 C 
ATOM      3  O   UNL     1      43.895   7.501  11.416  0.00  0.00    +0.000 OA
ENDROOT
BRANCH   2   4
ATOM      4  C   UNL     1      44.444   5.237  11.528  0.00  0.00    +0.000 A 
ATOM      5  C   UNL     1      43.657   4.517  12.401  0.00  0.00    +0.000 A 
ATOM      6  S   UNL     1      43.406   2.889  11.978  0.00  0.00    +0.000 S 
ATOM      7  C   UNL     1      44.164   3.140  10.482  0.00  0.00    +0.000 A 
ATOM      8  N   UNL     1      44.159   2.148   9.546  0.00  0.00    +0.000 NA
ATOM      9  C   UNL     1      44.694   2.499   8.420  0.00  0.00    +0.000 A 
ATOM     10  N   UNL     1      45.274   3.714   8.174  0.00  0.00    +0.000 N 
ATOM     11  C   UNL     1      45.420   4.695   9.136  0.00  0.00    +0.000 A 
ATOM     12  O   UNL     1      46.140   5.663   8.948  0.00  0.00    +0.000 OA
ATOM     13  C   UNL     1      44.715   4.404  10.376  0.00  0.00    +0.000 A 
ATOM     14  H   UNL     1      45.737   3.889   7.297  0.00  0.00    +0.000 HD
ENDBRANCH   2   4
BRANCH   1  15
ATOM     15  C   UNL     1      46.216   8.551  12.187  0.00  0.00    +0.000 C 
BRANCH  15  16
ATOM     16  C   UNL     1      47.272   9.195  13.111  0.00  0.00    +0.000 C 
BRANCH  16  17
ATOM     17  N   UNL     1      47.060   8.997  14.549  0.00  0.00    +0.000 NA
ATOM     18  H   UNL     1      47.605   9.694  15.062  0.00  0.00    +0.000 HD
ATOM     19  H   UNL     1      47.437   8.090  14.829  0.00  0.00    +0.000 HD
ENDBRANCH  16  17
ENDBRANCH  15  16
ENDBRANCH   1  15
BRANCH   1  20
ATOM     20  C   UNL     1      47.222   6.225  12.166  0.00  0.00    +0.000 C 
BRANCH  20  21
ATOM     21  C   UNL     1      47.548   5.476  13.453  0.00  0.00    +0.000 A 
ATOM     22  C   UNL     1      46.943   4.259  13.738  0.00  0.00    +0.000 A 
ATOM     23  N   UNL     1      46.866   3.735  14.991  0.00  0.00    +0.000 NA
ATOM     24  C   UNL     1      47.400   4.481  15.994  0.00  0.00    +0.000 A 
ATOM     25  C   UNL     1      48.077   5.652  15.700  0.00  0.00    +0.000 A 
ATOM     26  N   UNL     1      48.194   6.142  14.445  0.00  0.00    +0.000 NA
BRANCH  24  27
ATOM     27  C   UNL     1      47.095   4.156  17.449  0.00  0.00    +0.000 C 
BRANCH  27  28
ATOM     28  N   UNL     1      46.781   5.321  18.270  0.00  0.00    +0.000 NA
ATOM     29  H   UNL     1      45.778   5.346  18.448  0.00  0.00    +0.000 HD
BRANCH  28  30
ATOM     30  C   UNL     1      47.543   5.402  19.527  0.00  0.00    +0.000 C 
ATOM     31  C   UNL     1      47.515   6.866  19.995  0.00  0.00    +0.000 C 
ATOM     32  C   UNL     1      48.372   7.748  19.084  0.00  0.00    +0.000 C 
ATOM     33  C   UNL     1      49.799   7.212  18.969  0.00  0.00    +0.000 C 
ATOM     34  N   UNL     1      49.851   5.806  18.568  0.00  0.00    +0.000 NA
ATOM     35  C   UNL     1      49.032   4.961  19.444  0.00  0.00    +0.000 C 
ATOM     36  H   UNL     1      50.817   5.484  18.582  0.00  0.00    +0.000 HD
ENDBRANCH  28  30
ENDBRANCH  27  28
ENDBRANCH  24  27
ENDBRANCH  20  21
ENDBRANCH   1  20
TORSDOF 9
ENDMDL
MODEL 2
REMARK VINA RESULT:    -6.699      3.268      8.471
REMARK INTER + INTRA:         -11.581
REMARK INTER:                 -10.024
REMARK INTRA:                  -1.557
REMARK UNBOUND:                -1.554
REMARK  Name = 
REMARK  9 active torsions:
REMARK  status: ('A' for Active; 'I' for Inactive)
REMARK    1  A    between atoms: N_1  and  C_2
REMARK    2  A    between atoms: C_2  and  C_3
REMARK    3  A    between atoms: C_3  and  N_4
REMARK    4  A    between atoms: N_4  and  C_5
REMARK    5  A    between atoms: C_5  and  C_6
REMARK    6  A    between atoms: C_9  and  C_10
REMARK    7  A    between atoms: C_10  and  N_11
REMARK    8  A    between atoms: N_11  and  C_12
REMARK    9  A    between atoms: C_20  and  C_22
REMARK                            x       y       z     vdW  Elec       q    Type
REMARK                         _______ _______ _______ _____ _____    ______ ____
ROOT
ATOM      1  N   UNL     1      49.868   7.415  14.678  0.00  0.00    +0.000 N 
ATOM      2  C   UNL     1      50.462   7.058  15.925  0.00  0.00    +0.000 C 
ATOM      3  O   UNL     1      51.643   7.333  16.143  0.00  0.00    +0.000 OA
ENDROOT
BRANCH   2   4
ATOM      4  C   UNL     1      49.697   6.330  16.948  0.00  0.00    +0.000 A 
ATOM      5  C   UNL     1      49.750   4.964  17.126  0.00  0.00    +0.000 A 
ATOM      6  S   UNL     1      48.804   4.362  18.404  0.00  0.00    +0.000 S 
ATOM      7  C   UNL     1      48.455   5.940  18.917  0.00  0.00    +0.000 A 
ATOM      8  N   UNL     1      47.783   6.139  20.086  0.00  0.00    +0.000 NA
ATOM      9  C   UNL     1      47.659   7.389  20.404  0.00  0.00    +0.000 A 
ATOM     10  N   UNL     1      48.090   8.437  19.638  0.00  0.00    +0.000 N 
ATOM     11  C   UNL     1      48.654   8.282  18.387  0.00  0.00    +0.000 A 
ATOM     12  O   UNL     1      48.812   9.238  17.642  0.00  0.00    +0.000 OA
ATOM     13  C   UNL     1      48.940   6.897  18.044  0.00  0.00    +0.000 A 
ATOM     14  H   UNL     1      47.892   9.385  19.914  0.00  0.00    +0.000 HD
ENDBRANCH   2   4
BRANCH   1  15
ATOM     15  C   UNL     1      50.737   8.228  13.805  0.00  0.00    +0.000 C 
BRANCH  15  16
ATOM     16  C   UNL     1      50.373   8.432  12.319  0.00  0.00    +0.000 C 
BRANCH  16  17
ATOM     17  N   UNL     1      50.804   7.364  11.409  0.00  0.00    +0.000 NA
ATOM     18  H   UNL     1      50.319   7.478  10.516  0.00  0.00    +0.000 HD
ATOM     19  H   UNL     1      50.504   6.460  11.775  0.00  0.00    +0.000 HD
ENDBRANCH  16  17
ENDBRANCH  15  16
ENDBRANCH   1  15
BRANCH   1  20
ATOM     20  C   UNL     1      48.409   7.481  14.474  0.00  0.00    +0.000 C 
BRANCH  20  21
ATOM     21  C   UNL     1      47.778   6.365  13.649  0.00  0.00    +0.000 A 
ATOM     22  C   UNL     1      47.087   6.652  12.479  0.00  0.00    +0.000 A 
ATOM     23  N   UNL     1      46.183   5.806  11.916  0.00  0.00    +0.000 NA
ATOM     24  C   UNL     1      45.954   4.638  12.572  0.00  0.00    +0.000 A 
ATOM     25  C   UNL     1      46.704   4.315  13.691  0.00  0.00    +0.000 A 
ATOM     26  N   UNL     1      47.637   5.140  14.218  0.00  0.00    +0.000 NA
BRANCH  24  27
ATOM     27  C   UNL     1      44.755   3.771  12.218  0.00  0.00    +0.000 C 
BRANCH  27  28
ATOM     28  N   UNL     1      45.003   2.816  11.143  0.00  0.00    +0.000 NA
ATOM     29  H   UNL     1      44.922   1.869  11.508  0.00  0.00    +0.000 HD
BRANCH  28  30
ATOM     30  C   UNL     1      44.148   3.000   9.959  0.00  0.00    +0.000 C 
ATOM     31  C   UNL     1      44.589   1.974   8.902  0.00  0.00    +0.000 C 
ATOM     32  C   UNL     1      45.959   2.340   8.324  0.00  0.00    +0.000 C 
ATOM     33  C   UNL     1      45.971   3.767   7.777  0.00  0.00    +0.000 C 
ATOM     34  N   UNL     1      45.512   4.757   8.750  0.00  0.00    +0.000 NA
ATOM     35  C   UNL     1      44.197   4.408   9.301  0.00  0.00    +0.000 C 
ATOM     36  H   UNL     1      45.470   5.674   8.310  0.00  0.00    +0.000 HD
ENDBRANCH  28  30
ENDBRANCH  27  28
ENDBRANCH  24  27
ENDBRANCH  20  21
ENDBRANCH   1  20
TORSDOF 9
ENDMDL
MODEL 3
REMARK VINA RESULT:    -6.357      3.340      8.383
REMARK INTER + INTRA:         -11.071
REMARK INTER:                  -9.808
REMARK INTRA:                  -1.262
REMARK UNBOUND:                -1.554
REMARK  Name = 
REMARK  9 active torsions:
REMARK  status: ('A' for Active; 'I' for Inactive)
REMARK    1  A    between atoms: N_1  and  C_2
REMARK    2  A    between atoms: C_2  and  C_3
REMARK    3  A    between atoms: C_3  and  N_4
REMARK    4  A    between atoms: N_4  and  C_5
REMARK    5  A    between atoms: C_5  and  C_6
REMARK    6  A    between atoms: C_9  and  C_10
REMARK    7  A    between atoms: C_10  and  N_11
REMARK    8  A    between atoms: N_11  and  C_12
REMARK    9  A    between atoms: C_20  and  C_22
REMARK                            x       y       z     vdW  Elec       q    Type
REMARK                         _______ _______ _______ _____ _____    ______ ____
ROOT
ATOM      1  N   UNL     1      48.699   7.876  14.256  0.00  0.00    +0.000 N 
ATOM      2  C   UNL     1      49.450   8.172  15.432  0.00  0.00    +0.000 C 
ATOM      3  O   UNL     1      49.198   9.188  16.081  0.00  0.00    +0.000 OA
ENDROOT
BRANCH   2   4
ATOM      4  C   UNL     1      50.553   7.301  15.865  0.00  0.00    +0.000 A 
ATOM      5  C   UNL     1      51.885   7.569  15.633  0.00  0.00    +0.000 A 
ATOM      6  S   UNL     1      52.975   6.430  16.271  0.00  0.00    +0.000 S 
ATOM      7  C   UNL     1      51.711   5.643  17.081  0.00  0.00    +0.000 A 
ATOM      8  N   UNL     1      51.991   4.633  17.954  0.00  0.00    +0.000 NA
ATOM      9  C   UNL     1      50.945   4.178  18.569  0.00  0.00    +0.000 A 
ATOM     10  N   UNL     1      49.662   4.598  18.346  0.00  0.00    +0.000 N 
ATOM     11  C   UNL     1      49.322   5.520  17.376  0.00  0.00    +0.000 A 
ATOM     12  O   UNL     1      48.158   5.697  17.051  0.00  0.00    +0.000 OA
ATOM     13  C   UNL     1      50.472   6.162  16.754  0.00  0.00    +0.000 A 
ATOM     14  H   UNL     1      48.890   4.145  18.808  0.00  0.00    +0.000 HD
ENDBRANCH   2   4
BRANCH   1  15
ATOM     15  C   UNL     1      47.567   8.791  14.016  0.00  0.00    +0.000 C 
BRANCH  15  16
ATOM     16  C   UNL     1      47.724   9.984  13.048  0.00  0.00    +0.000 C 
BRANCH  16  17
ATOM     17  N   UNL     1      48.305  11.199  13.629  0.00  0.00    +0.000 NA
ATOM     18  H   UNL     1      47.862  11.377  14.534  0.00  0.00    +0.000 HD
ATOM     19  H   UNL     1      48.075  12.003  13.044  0.00  0.00    +0.000 HD
ENDBRANCH  16  17
ENDBRANCH  15  16
ENDBRANCH   1  15
BRANCH   1  20
ATOM     20  C   UNL     1      48.659   6.535  13.645  0.00  0.00    +0.000 C 
BRANCH  20  21
ATOM     21  C   UNL     1      47.282   5.960  13.332  0.00  0.00    +0.000 A 
ATOM     22  C   UNL     1      46.785   4.879  14.048  0.00  0.00    +0.000 A 
ATOM     23  N   UNL     1      45.785   4.076  13.594  0.00  0.00    +0.000 NA
ATOM     24  C   UNL     1      45.287   4.363  12.362  0.00  0.00    +0.000 A 
ATOM     25  C   UNL     1      45.724   5.490  11.686  0.00  0.00    +0.000 A 
ATOM     26  N   UNL     1      46.683   6.314  12.165  0.00  0.00    +0.000 NA
BRANCH  24  27
ATOM     27  C   UNL     1      44.407   3.362  11.628  0.00  0.00    +0.000 C 
BRANCH  27  28
ATOM     28  N   UNL     1      45.103   2.594  10.601  0.00  0.00    +0.000 NA
ATOM     29  H   UNL     1      45.268   1.649  10.942  0.00  0.00    +0.000 HD
BRANCH  28  30
ATOM     30  C   UNL     1      44.424   2.573   9.295  0.00  0.00    +0.000 C 
ATOM     31  C   UNL     1      45.116   1.509   8.427  0.00  0.00    +0.000 C 
ATOM     32  C   UNL     1      46.517   1.967   8.014  0.00  0.00    +0.000 C 
ATOM     33  C   UNL     1      46.478   3.330   7.323  0.00  0.00    +0.000 C 
ATOM     34  N   UNL     1      45.785   4.349   8.110  0.00  0.00    +0.000 NA
ATOM     35  C   UNL     1      44.441   3.912   8.503  0.00  0.00    +0.000 C 
ATOM     36  H   UNL     1      45.724   5.211   7.571  0.00  0.00    +0.000 HD
ENDBRANCH  28  30
ENDBRANCH  27  28
ENDBRANCH  24  27
ENDBRANCH  20  21
ENDBRANCH   1  20
TORSDOF 9
ENDMDL
MODEL 4
REMARK VINA RESULT:    -6.271      2.305      3.746
REMARK INTER + INTRA:         -10.941
REMARK INTER:                 -10.074
REMARK INTRA:                  -0.867
REMARK UNBOUND:                -1.554
REMARK  Name = 
REMARK  9 active torsions:
REMARK  status: ('A' for Active; 'I' for Inactive)
REMARK    1  A    between atoms: N_1  and  C_2
REMARK    2  A    between atoms: C_2  and  C_3
REMARK    3  A    between atoms: C_3  and  N_4
REMARK    4  A    between atoms: N_4  and  C_5
REMARK    5  A    between atoms: C_5  and  C_6
REMARK    6  A    between atoms: C_9  and  C_10
REMARK    7  A    between atoms: C_10  and  N_11
REMARK    8  A    between atoms: N_11  and  C_12
REMARK    9  A    between atoms: C_20  and  C_22
REMARK                            x       y       z     vdW  Elec       q    Type
REMARK                         _______ _______ _______ _____ _____    ______ ____
ROOT
ATOM      1  N   UNL     1      44.350   3.993  10.623  0.00  0.00    +0.000 N 
ATOM      2  C   UNL     1      44.406   3.725   9.223  0.00  0.00    +0.000 C 
ATOM      3  O   UNL     1      43.742   4.407   8.441  0.00  0.00    +0.000 OA
ENDROOT
BRANCH   2   4
ATOM      4  C   UNL     1      45.218   2.618   8.695  0.00  0.00    +0.000 A 
ATOM      5  C   UNL     1      44.901   1.286   8.850  0.00  0.00    +0.000 A 
ATOM      6  S   UNL     1      45.976   0.194   8.112  0.00  0.00    +0.000 S 
ATOM      7  C   UNL     1      46.793   1.475   7.360  0.00  0.00    +0.000 A 
ATOM      8  N   UNL     1      47.767   1.212   6.442  0.00  0.00    +0.000 NA
ATOM      9  C   UNL     1      48.249   2.276   5.881  0.00  0.00    +0.000 A 
ATOM     10  N   UNL     1      47.889   3.558   6.197  0.00  0.00    +0.000 N 
ATOM     11  C   UNL     1      47.008   3.871   7.213  0.00  0.00    +0.000 A 
ATOM     12  O   UNL     1      46.889   5.018   7.616  0.00  0.00    +0.000 OA
ATOM     13  C   UNL     1      46.335   2.711   7.780  0.00  0.00    +0.000 A 
ATOM     14  H   UNL     1      48.361   4.338   5.771  0.00  0.00    +0.000 HD
ENDBRANCH   2   4
BRANCH   1  15
ATOM     15  C   UNL     1      43.572   5.195  10.977  0.00  0.00    +0.000 C 
BRANCH  15  16
ATOM     16  C   UNL     1      42.460   5.114  12.045  0.00  0.00    +0.000 C 
BRANCH  16  17
ATOM     17  N   UNL     1      42.835   5.576  13.387  0.00  0.00    +0.000 NA
ATOM     18  H   UNL     1      42.131   6.242  13.714  0.00  0.00    +0.000 HD
ATOM     19  H   UNL     1      43.710   6.099  13.337  0.00  0.00    +0.000 HD
ENDBRANCH  16  17
ENDBRANCH  15  16
ENDBRANCH   1  15
BRANCH   1  20
ATOM     20  C   UNL     1      45.368   3.509  11.574  0.00  0.00    +0.000 C 
BRANCH  20  21
ATOM     21  C   UNL     1      45.885   4.512  12.599  0.00  0.00    +0.000 A 
ATOM     22  C   UNL     1      46.609   5.627  12.197  0.00  0.00    +0.000 A 
ATOM     23  N   UNL     1      47.424   6.332  13.028  0.00  0.00    +0.000 NA
ATOM     24  C   UNL     1      47.526   5.877  14.305  0.00  0.00    +0.000 A 
ATOM     25  C   UNL     1      46.741   4.817  14.727  0.00  0.00    +0.000 A 
ATOM     26  N   UNL     1      45.895   4.153  13.909  0.00  0.00    +0.000 NA
BRANCH  24  27
ATOM     27  C   UNL     1      48.632   6.381  15.221  0.00  0.00    +0.000 C 
BRANCH  27  28
ATOM     28  N   UNL     1      48.241   6.499  16.623  0.00  0.00    +0.000 NA
ATOM     29  H   UNL     1      47.437   5.900  16.800  0.00  0.00    +0.000 HD
BRANCH  28  30
ATOM     30  C   UNL     1      49.325   6.226  17.580  0.00  0.00    +0.000 C 
ATOM     31  C   UNL     1      49.962   4.882  17.191  0.00  0.00    +0.000 C 
ATOM     32  C   UNL     1      49.014   3.719  17.494  0.00  0.00    +0.000 C 
ATOM     33  C   UNL     1      48.558   3.734  18.953  0.00  0.00    +0.000 C 
ATOM     34  N   UNL     1      47.989   5.018  19.361  0.00  0.00    +0.000 NA
ATOM     35  C   UNL     1      48.900   6.132  19.074  0.00  0.00    +0.000 C 
ATOM     36  H   UNL     1      47.774   4.995  20.355  0.00  0.00    +0.000 HD
ENDBRANCH  28  30
ENDBRANCH  27  28
ENDBRANCH  24  27
ENDBRANCH  20  21
ENDBRANCH   1  20
TORSDOF 9
ENDMDL
MODEL 5
REMARK VINA RESULT:    -6.143      3.314      8.209
REMARK INTER + INTRA:         -10.749
REMARK INTER:                  -9.465
REMARK INTRA:                  -1.284
REMARK UNBOUND:                -1.554
REMARK  Name = 
REMARK  9 active torsions:
REMARK  status: ('A' for Active; 'I' for Inactive)
REMARK    1  A    between atoms: N_1  and  C_2
REMARK    2  A    between atoms: C_2  and  C_3
REMARK    3  A    between atoms: C_3  and  N_4
REMARK    4  A    between atoms: N_4  and  C_5
REMARK    5  A    between atoms: C_5  and  C_6
REMARK    6  A    between atoms: C_9  and  C_10
REMARK    7  A    between atoms: C_10  and  N_11
REMARK    8  A    between atoms: N_11  and  C_12
REMARK    9  A    between atoms: C_20  and  C_22
REMARK                            x       y       z     vdW  Elec       q    Type
REMARK                         _______ _______ _______ _____ _____    ______ ____
ROOT
ATOM      1  N   UNL     1      48.922   7.915  14.905  0.00  0.00    +0.000 N 
ATOM      2  C   UNL     1      48.849   7.965  16.329  0.00  0.00    +0.000 C 
ATOM      3  O   UNL     1      48.551   9.020  16.891  0.00  0.00    +0.000 OA
ENDROOT
BRANCH   2   4
ATOM      4  C   UNL     1      49.164   6.784  17.146  0.00  0.00    +0.000 A 
ATOM      5  C   UNL     1      48.216   5.985  17.747  0.00  0.00    +0.000 A 
ATOM      6  S   UNL     1      48.828   4.651  18.605  0.00  0.00    +0.000 S 
ATOM      7  C   UNL     1      50.387   4.962  18.017  0.00  0.00    +0.000 A 
ATOM      8  N   UNL     1      51.394   4.077  18.265  0.00  0.00    +0.000 NA
ATOM      9  C   UNL     1      52.511   4.390  17.687  0.00  0.00    +0.000 A 
ATOM     10  N   UNL     1      52.717   5.521  16.944  0.00  0.00    +0.000 N 
ATOM     11  C   UNL     1      51.765   6.508  16.782  0.00  0.00    +0.000 A 
ATOM     12  O   UNL     1      52.056   7.598  16.314  0.00  0.00    +0.000 OA
ATOM     13  C   UNL     1      50.452   6.141  17.295  0.00  0.00    +0.000 A 
ATOM     14  H   UNL     1      53.634   5.736  16.587  0.00  0.00    +0.000 HD
ENDBRANCH   2   4
BRANCH   1  15
ATOM     15  C   UNL     1      48.480   9.153  14.234  0.00  0.00    +0.000 C 
BRANCH  15  16
ATOM     16  C   UNL     1      49.494  10.015  13.451  0.00  0.00    +0.000 C 
BRANCH  16  17
ATOM     17  N   UNL     1      50.636  10.512  14.227  0.00  0.00    +0.000 NA
ATOM     18  H   UNL     1      50.623  10.072  15.150  0.00  0.00    +0.000 HD
ATOM     19  H   UNL     1      50.528  11.513  14.394  0.00  0.00    +0.000 HD
ENDBRANCH  16  17
ENDBRANCH  15  16
ENDBRANCH   1  15
BRANCH   1  20
ATOM     20  C   UNL     1      48.888   6.653  14.144  0.00  0.00    +0.000 C 
BRANCH  20  21
ATOM     21  C   UNL     1      47.516   6.047  13.874  0.00  0.00    +0.000 A 
ATOM     22  C   UNL     1      47.061   4.964  14.616  0.00  0.00    +0.000 A 
ATOM     23  N   UNL     1      46.066   4.135  14.198  0.00  0.00    +0.000 NA
ATOM     24  C   UNL     1      45.531   4.397  12.977  0.00  0.00    +0.000 A 
ATOM     25  C   UNL     1      45.926   5.524  12.276  0.00  0.00    +0.000 A 
ATOM     26  N   UNL     1      46.879   6.373  12.720  0.00  0.00    +0.000 NA
BRANCH  24  27
ATOM     27  C   UNL     1      44.652   3.369  12.278  0.00  0.00    +0.000 C 
BRANCH  27  28
ATOM     28  N   UNL     1      45.205   2.861  11.027  0.00  0.00    +0.000 NA
ATOM     29  H   UNL     1      45.537   1.908  11.167  0.00  0.00    +0.000 HD
BRANCH  28  30
ATOM     30  C   UNL     1      44.284   2.936   9.881  0.00  0.00    +0.000 C 
ATOM     31  C   UNL     1      44.709   1.859   8.870  0.00  0.00    +0.000 C 
ATOM     32  C   UNL     1      46.032   2.233   8.197  0.00  0.00    +0.000 C 
ATOM     33  C   UNL     1      45.962   3.620   7.559  0.00  0.00    +0.000 C 
ATOM     34  N   UNL     1      45.517   4.656   8.490  0.00  0.00    +0.000 NA
ATOM     35  C   UNL     1      44.246   4.299   9.132  0.00  0.00    +0.000 C 
ATOM     36  H   UNL     1      45.417   5.539   7.994  0.00  0.00    +0.000 HD
ENDBRANCH  28  30
ENDBRANCH  27  28
ENDBRANCH  24  27
ENDBRANCH  20  21
ENDBRANCH   1  20
TORSDOF 9
ENDMDL
MODEL 6
REMARK VINA RESULT:    -6.042      4.110      8.390
REMARK INTER + INTRA:         -10.598
REMARK INTER:                  -9.395
REMARK INTRA:                  -1.204
REMARK UNBOUND:                -1.554
REMARK  Name = 
REMARK  9 active torsions:
REMARK  status: ('A' for Active; 'I' for Inactive)
REMARK    1  A    between atoms: N_1  and  C_2
REMARK    2  A    between atoms: C_2  and  C_3
REMARK    3  A    between atoms: C_3  and  N_4
REMARK    4  A    between atoms: N_4  and  C_5
REMARK    5  A    between atoms: C_5  and  C_6
REMARK    6  A    between atoms: C_9  and  C_10
REMARK    7  A    between atoms: C_10  and  N_11
REMARK    8  A    between atoms: N_11  and  C_12
REMARK    9  A    between atoms: C_20  and  C_22
REMARK                            x       y       z     vdW  Elec       q    Type
REMARK                         _______ _______ _______ _____ _____    ______ ____
ROOT
ATOM      1  N   UNL     1      49.844   6.880  17.633  0.00  0.00    +0.000 N 
ATOM      2  C   UNL     1      50.057   5.789  18.527  0.00  0.00    +0.000 C 
ATOM      3  O   UNL     1      49.233   5.551  19.411  0.00  0.00    +0.000 OA
ENDROOT
BRANCH   2   4
ATOM      4  C   UNL     1      51.269   4.962  18.436  0.00  0.00    +0.000 A 
ATOM      5  C   UNL     1      52.476   5.294  19.012  0.00  0.00    +0.000 A 
ATOM      6  S   UNL     1      53.719   4.152  18.802  0.00  0.00    +0.000 S 
ATOM      7  C   UNL     1      52.623   3.055  18.117  0.00  0.00    +0.000 A 
ATOM      8  N   UNL     1      53.025   1.783  17.835  0.00  0.00    +0.000 NA
ATOM      9  C   UNL     1      52.070   1.025  17.397  0.00  0.00    +0.000 A 
ATOM     10  N   UNL     1      50.786   1.438  17.167  0.00  0.00    +0.000 N 
ATOM     11  C   UNL     1      50.373   2.748  17.310  0.00  0.00    +0.000 A 
ATOM     12  O   UNL     1      49.293   3.122  16.878  0.00  0.00    +0.000 OA
ATOM     13  C   UNL     1      51.370   3.610  17.930  0.00  0.00    +0.000 A 
ATOM     14  H   UNL     1      50.116   0.811  16.755  0.00  0.00    +0.000 HD
ENDBRANCH   2   4
BRANCH   1  15
ATOM     15  C   UNL     1      48.536   7.545  17.792  0.00  0.00    +0.000 C 
BRANCH  15  16
ATOM     16  C   UNL     1      48.415   9.074  17.614  0.00  0.00    +0.000 C 
BRANCH  16  17
ATOM     17  N   UNL     1      47.585   9.517  16.488  0.00  0.00    +0.000 NA
ATOM     18  H   UNL     1      47.461   8.734  15.842  0.00  0.00    +0.000 HD
ATOM     19  H   UNL     1      48.080  10.237  15.960  0.00  0.00    +0.000 HD
ENDBRANCH  16  17
ENDBRANCH  15  16
ENDBRANCH   1  15
BRANCH   1  20
ATOM     20  C   UNL     1      50.544   7.009  16.342  0.00  0.00    +0.000 C 
BRANCH  20  21
ATOM     21  C   UNL     1      49.690   6.916  15.082  0.00  0.00    +0.000 A 
ATOM     22  C   UNL     1      49.676   7.951  14.157  0.00  0.00    +0.000 A 
ATOM     23  N   UNL     1      48.682   8.129  13.246  0.00  0.00    +0.000 NA
ATOM     24  C   UNL     1      47.654   7.240  13.289  0.00  0.00    +0.000 A 
ATOM     25  C   UNL     1      47.709   6.160  14.154  0.00  0.00    +0.000 A 
ATOM     26  N   UNL     1      48.726   5.961  15.023  0.00  0.00    +0.000 NA
BRANCH  24  27
ATOM     27  C   UNL     1      46.355   7.520  12.547  0.00  0.00    +0.000 C 
BRANCH  27  28
ATOM     28  N   UNL     1      45.804   6.364  11.846  0.00  0.00    +0.000 NA
ATOM     29  H   UNL     1      46.481   5.603  11.869  0.00  0.00    +0.000 HD
BRANCH  28  30
ATOM     30  C   UNL     1      44.493   5.920  12.346  0.00  0.00    +0.000 C 
ATOM     31  C   UNL     1      44.649   4.474  12.842  0.00  0.00    +0.000 C 
ATOM     32  C   UNL     1      44.848   3.511  11.668  0.00  0.00    +0.000 C 
ATOM     33  C   UNL     1      43.725   3.645  10.640  0.00  0.00    +0.000 C 
ATOM     34  N   UNL     1      43.527   5.020  10.185  0.00  0.00    +0.000 NA
ATOM     35  C   UNL     1      43.332   5.942  11.310  0.00  0.00    +0.000 C 
ATOM     36  H   UNL     1      42.723   5.060   9.563  0.00  0.00    +0.000 HD
ENDBRANCH  28  30
ENDBRANCH  27  28
ENDBRANCH  24  27
ENDBRANCH  20  21
ENDBRANCH   1  20
TORSDOF 9
ENDMDL
MODEL 7
REMARK VINA RESULT:    -5.970      3.484      7.892
REMARK INTER + INTRA:         -10.491
REMARK INTER:                  -9.156
REMARK INTRA:                  -1.335
REMARK UNBOUND:                -1.554
REMARK  Name = 
REMARK  9 active torsions:
REMARK  status: ('A' for Active; 'I' for Inactive)
REMARK    1  A    between atoms: N_1  and  C_2
REMARK    2  A    between atoms: C_2  and  C_3
REMARK    3  A    between atoms: C_3  and  N_4
REMARK    4  A    between atoms: N_4  and  C_5
REMARK    5  A    between atoms: C_5  and  C_6
REMARK    6  A    between atoms: C_9  and  C_10
REMARK    7  A    between atoms: C_10  and  N_11
REMARK    8  A    between atoms: N_11  and  C_12
REMARK    9  A    between atoms: C_20  and  C_22
REMARK                            x       y       z     vdW  Elec       q    Type
REMARK                         _______ _______ _______ _____ _____    ______ ____
ROOT
ATOM      1  N   UNL     1      49.731   7.376  17.512  0.00  0.00    +0.000 N 
ATOM      2  C   UNL     1      48.823   6.447  18.101  0.00  0.00    +0.000 C 
ATOM      3  O   UNL     1      48.135   6.788  19.064  0.00  0.00    +0.000 OA
ENDROOT
BRANCH   2   4
ATOM      4  C   UNL     1      48.720   5.068  17.600  0.00  0.00    +0.000 A 
ATOM      5  C   UNL     1      47.713   4.620  16.773  0.00  0.00    +0.000 A 
ATOM      6  S   UNL     1      47.837   2.992  16.296  0.00  0.00    +0.000 S 
ATOM      7  C   UNL     1      49.375   2.881  17.001  0.00  0.00    +0.000 A 
ATOM      8  N   UNL     1      50.122   1.755  16.822  0.00  0.00    +0.000 NA
ATOM      9  C   UNL     1      51.307   1.834  17.338  0.00  0.00    +0.000 A 
ATOM     10  N   UNL     1      51.779   2.901  18.055  0.00  0.00    +0.000 N 
ATOM     11  C   UNL     1      51.008   4.002  18.374  0.00  0.00    +0.000 A 
ATOM     12  O   UNL     1      51.383   4.818  19.201  0.00  0.00    +0.000 OA
ATOM     13  C   UNL     1      49.716   4.023  17.702  0.00  0.00    +0.000 A 
ATOM     14  H   UNL     1      52.685   2.861  18.490  0.00  0.00    +0.000 HD
ENDBRANCH   2   4
BRANCH   1  15
ATOM     15  C   UNL     1      49.640   8.742  18.065  0.00  0.00    +0.000 C 
BRANCH  15  16
ATOM     16  C   UNL     1      50.617   9.199  19.170  0.00  0.00    +0.000 C 
BRANCH  16  17
ATOM     17  N   UNL     1      50.667   8.346  20.364  0.00  0.00    +0.000 NA
ATOM     18  H   UNL     1      51.519   7.783  20.331  0.00  0.00    +0.000 HD
ATOM     19  H   UNL     1      49.893   7.681  20.342  0.00  0.00    +0.000 HD
ENDBRANCH  16  17
ENDBRANCH  15  16
ENDBRANCH   1  15
BRANCH   1  20
ATOM     20  C   UNL     1      50.295   7.201  16.161  0.00  0.00    +0.000 C 
BRANCH  20  21
ATOM     21  C   UNL     1      49.370   7.494  14.985  0.00  0.00    +0.000 A 
ATOM     22  C   UNL     1      48.677   8.695  14.910  0.00  0.00    +0.000 A 
ATOM     23  N   UNL     1      47.568   8.874  14.142  0.00  0.00    +0.000 NA
ATOM     24  C   UNL     1      47.132   7.792  13.445  0.00  0.00    +0.000 A 
ATOM     25  C   UNL     1      47.871   6.620  13.454  0.00  0.00    +0.000 A 
ATOM     26  N   UNL     1      49.001   6.465  14.180  0.00  0.00    +0.000 NA
BRANCH  24  27
ATOM     27  C   UNL     1      45.746   7.780  12.817  0.00  0.00    +0.000 C 
BRANCH  27  28
ATOM     28  N   UNL     1      45.439   6.567  12.066  0.00  0.00    +0.000 NA
ATOM     29  H   UNL     1      46.236   5.934  12.108  0.00  0.00    +0.000 HD
BRANCH  28  30
ATOM     30  C   UNL     1      44.203   5.889  12.488  0.00  0.00    +0.000 C 
ATOM     31  C   UNL     1      44.571   4.447  12.873  0.00  0.00    +0.000 C 
ATOM     32  C   UNL     1      44.938   3.626  11.634  0.00  0.00    +0.000 C 
ATOM     33  C   UNL     1      43.827   3.671  10.585  0.00  0.00    +0.000 C 
ATOM     34  N   UNL     1      43.428   5.034  10.234  0.00  0.00    +0.000 NA
ATOM     35  C   UNL     1      43.072   5.819  11.422  0.00  0.00    +0.000 C 
ATOM     36  H   UNL     1      42.638   5.002   9.592  0.00  0.00    +0.000 HD
ENDBRANCH  28  30
ENDBRANCH  27  28
ENDBRANCH  24  27
ENDBRANCH  20  21
ENDBRANCH   1  20
TORSDOF 9
ENDMDL
MODEL 8
REMARK VINA RESULT:    -5.905      2.237      4.584
REMARK INTER + INTRA:         -10.393
REMARK INTER:                  -9.147
REMARK INTRA:                  -1.246
REMARK UNBOUND:                -1.554
REMARK  Name = 
REMARK  9 active torsions:
REMARK  status: ('A' for Active; 'I' for Inactive)
REMARK    1  A    between atoms: N_1  and  C_2
REMARK    2  A    between atoms: C_2  and  C_3
REMARK    3  A    between atoms: C_3  and  N_4
REMARK    4  A    between atoms: N_4  and  C_5
REMARK    5  A    between atoms: C_5  and  C_6
REMARK    6  A    between atoms: C_9  and  C_10
REMARK    7  A    between atoms: C_10  and  N_11
REMARK    8  A    between atoms: N_11  and  C_12
REMARK    9  A    between atoms: C_20  and  C_22
REMARK                            x       y       z     vdW  Elec       q    Type
REMARK                         _______ _______ _______ _____ _____    ______ ____
ROOT
ATOM      1  N   UNL     1      45.667   4.828  12.128  0.00  0.00    +0.000 N 
ATOM      2  C   UNL     1      46.018   5.872  11.221  0.00  0.00    +0.000 C 
ATOM      3  O   UNL     1      45.769   5.750  10.020  0.00  0.00    +0.000 OA
ENDROOT
BRANCH   2   4
ATOM      4  C   UNL     1      46.711   7.081  11.689  0.00  0.00    +0.000 A 
ATOM      5  C   UNL     1      48.059   7.141  11.966  0.00  0.00    +0.000 A 
ATOM      6  S   UNL     1      48.633   8.665  12.453  0.00  0.00    +0.000 S 
ATOM      7  C   UNL     1      47.132   9.367  12.097  0.00  0.00    +0.000 A 
ATOM      8  N   UNL     1      46.986  10.722  12.160  0.00  0.00    +0.000 NA
ATOM      9  C   UNL     1      45.817  11.132  11.780  0.00  0.00    +0.000 A 
ATOM     10  N   UNL     1      44.784  10.316  11.408  0.00  0.00    +0.000 N 
ATOM     11  C   UNL     1      44.848   8.938  11.461  0.00  0.00    +0.000 A 
ATOM     12  O   UNL     1      43.843   8.253  11.345  0.00  0.00    +0.000 OA
ATOM     13  C   UNL     1      46.180   8.426  11.748  0.00  0.00    +0.000 A 
ATOM     14  H   UNL     1      43.879  10.704  11.197  0.00  0.00    +0.000 HD
ENDBRANCH   2   4
BRANCH   1  15
ATOM     15  C   UNL     1      44.890   3.732  11.516  0.00  0.00    +0.000 C 
BRANCH  15  16
ATOM     16  C   UNL     1      43.636   3.178  12.226  0.00  0.00    +0.000 C 
BRANCH  16  17
ATOM     17  N   UNL     1      43.005   2.018  11.586  0.00  0.00    +0.000 NA
ATOM     18  H   UNL     1      42.637   2.305  10.676  0.00  0.00    +0.000 HD
ATOM     19  H   UNL     1      42.196   1.723  12.133  0.00  0.00    +0.000 HD
ENDBRANCH  16  17
ENDBRANCH  15  16
ENDBRANCH   1  15
BRANCH   1  20
ATOM     20  C   UNL     1      45.568   5.030  13.584  0.00  0.00    +0.000 C 
BRANCH  20  21
ATOM     21  C   UNL     1      46.781   4.634  14.419  0.00  0.00    +0.000 A 
ATOM     22  C   UNL     1      47.158   3.302  14.535  0.00  0.00    +0.000 A 
ATOM     23  N   UNL     1      47.946   2.831  15.539  0.00  0.00    +0.000 NA
ATOM     24  C   UNL     1      48.347   3.735  16.470  0.00  0.00    +0.000 A 
ATOM     25  C   UNL     1      48.043   5.077  16.308  0.00  0.00    +0.000 A 
ATOM     26  N   UNL     1      47.301   5.546  15.280  0.00  0.00    +0.000 NA
BRANCH  24  27
ATOM     27  C   UNL     1      48.954   3.275  17.788  0.00  0.00    +0.000 C 
BRANCH  27  28
ATOM     28  N   UNL     1      48.299   3.822  18.972  0.00  0.00    +0.000 NA
ATOM     29  H   UNL     1      47.724   3.101  19.403  0.00  0.00    +0.000 HD
BRANCH  28  30
ATOM     30  C   UNL     1      49.219   4.421  19.952  0.00  0.00    +0.000 C 
ATOM     31  C   UNL     1      48.377   4.918  21.139  0.00  0.00    +0.000 C 
ATOM     32  C   UNL     1      47.545   6.141  20.745  0.00  0.00    +0.000 C 
ATOM     33  C   UNL     1      48.421   7.249  20.163  0.00  0.00    +0.000 C 
ATOM     34  N   UNL     1      49.266   6.790  19.060  0.00  0.00    +0.000 NA
ATOM     35  C   UNL     1      50.066   5.621  19.440  0.00  0.00    +0.000 C 
ATOM     36  H   UNL     1      49.879   7.547  18.764  0.00  0.00    +0.000 HD
ENDBRANCH  28  30
ENDBRANCH  27  28
ENDBRANCH  24  27
ENDBRANCH  20  21
ENDBRANCH   1  20
TORSDOF 9
ENDMDL
MODEL 9
REMARK VINA RESULT:    -5.902      3.903      8.203
REMARK INTER + INTRA:         -10.389
REMARK INTER:                  -9.244
REMARK INTRA:                  -1.145
REMARK UNBOUND:                -1.554
REMARK  Name = 
REMARK  9 active torsions:
REMARK  status: ('A' for Active; 'I' for Inactive)
REMARK    1  A    between atoms: N_1  and  C_2
REMARK    2  A    between atoms: C_2  and  C_3
REMARK    3  A    between atoms: C_3  and  N_4
REMARK    4  A    between atoms: N_4  and  C_5
REMARK    5  A    between atoms: C_5  and  C_6
REMARK    6  A    between atoms: C_9  and  C_10
REMARK    7  A    between atoms: C_10  and  N_11
REMARK    8  A    between atoms: N_11  and  C_12
REMARK    9  A    between atoms: C_20  and  C_22
REMARK                            x       y       z     vdW  Elec       q    Type
REMARK                         _______ _______ _______ _____ _____    ______ ____
ROOT
ATOM      1  N   UNL     1      46.501   8.816  12.455  0.00  0.00    +0.000 N 
ATOM      2  C   UNL     1      47.634   9.619  12.131  0.00  0.00    +0.000 C 
ATOM      3  O   UNL     1      47.475  10.788  11.776  0.00  0.00    +0.000 OA
ENDROOT
BRANCH   2   4
ATOM      4  C   UNL     1      48.995   9.064  12.177  0.00  0.00    +0.000 A 
ATOM      5  C   UNL     1      49.661   8.561  11.081  0.00  0.00    +0.000 A 
ATOM      6  S   UNL     1      51.243   8.014  11.381  0.00  0.00    +0.000 S 
ATOM      7  C   UNL     1      51.181   8.637  12.957  0.00  0.00    +0.000 A 
ATOM      8  N   UNL     1      52.302   8.628  13.732  0.00  0.00    +0.000 NA
ATOM      9  C   UNL     1      52.141   9.211  14.879  0.00  0.00    +0.000 A 
ATOM     10  N   UNL     1      50.962   9.739  15.329  0.00  0.00    +0.000 N 
ATOM     11  C   UNL     1      49.773   9.647  14.632  0.00  0.00    +0.000 A 
ATOM     12  O   UNL     1      48.707   9.920  15.161  0.00  0.00    +0.000 OA
ATOM     13  C   UNL     1      49.929   9.125  13.281  0.00  0.00    +0.000 A 
ATOM     14  H   UNL     1      50.894  10.110  16.262  0.00  0.00    +0.000 HD
ENDBRANCH   2   4
BRANCH   1  15
ATOM     15  C   UNL     1      45.220   9.549  12.457  0.00  0.00    +0.000 C 
BRANCH  15  16
ATOM     16  C   UNL     1      44.442   9.755  11.139  0.00  0.00    +0.000 C 
BRANCH  16  17
ATOM     17  N   UNL     1      43.307   8.849  10.925  0.00  0.00    +0.000 NA
ATOM     18  H   UNL     1      43.556   8.177  10.196  0.00  0.00    +0.000 HD
ATOM     19  H   UNL     1      42.513   9.376  10.560  0.00  0.00    +0.000 HD
ENDBRANCH  16  17
ENDBRANCH  15  16
ENDBRANCH   1  15
BRANCH   1  20
ATOM     20  C   UNL     1      46.598   7.571  13.239  0.00  0.00    +0.000 C 
BRANCH  20  21
ATOM     21  C   UNL     1      45.622   6.454  12.882  0.00  0.00    +0.000 A 
ATOM     22  C   UNL     1      45.600   5.273  13.612  0.00  0.00    +0.000 A 
ATOM     23  N   UNL     1      45.071   4.111  13.141  0.00  0.00    +0.000 NA
ATOM     24  C   UNL     1      44.569   4.141  11.879  0.00  0.00    +0.000 A 
ATOM     25  C   UNL     1      44.515   5.338  11.184  0.00  0.00    +0.000 A 
ATOM     26  N   UNL     1      44.997   6.501  11.678  0.00  0.00    +0.000 NA
BRANCH  24  27
ATOM     27  C   UNL     1      44.249   2.849  11.140  0.00  0.00    +0.000 C 
BRANCH  27  28
ATOM     28  N   UNL     1      45.249   2.462  10.150  0.00  0.00    +0.000 NA
ATOM     29  H   UNL     1      45.725   1.619  10.464  0.00  0.00    +0.000 HD
BRANCH  28  30
ATOM     30  C   UNL     1      44.719   2.293   8.787  0.00  0.00    +0.000 C 
ATOM     31  C   UNL     1      45.629   1.294   8.054  0.00  0.00    +0.000 C 
ATOM     32  C   UNL     1      46.996   1.915   7.755  0.00  0.00    +0.000 C 
ATOM     33  C   UNL     1      46.855   3.229   6.987  0.00  0.00    +0.000 C 
ATOM     34  N   UNL     1      45.958   4.181   7.641  0.00  0.00    +0.000 NA
ATOM     35  C   UNL     1      44.648   3.586   7.925  0.00  0.00    +0.000 C 
ATOM     36  H   UNL     1      45.845   5.003   7.051  0.00  0.00    +0.000 HD
ENDBRANCH  28  30
ENDBRANCH  27  28
ENDBRANCH  24  27
ENDBRANCH  20  21
ENDBRANCH   1  20
TORSDOF 9
ENDMDL
