MODEL 1
REMARK VINA RESULT:    -7.940      0.000      0.000
REMARK INTER + INTRA:         -11.057
REMARK INTER:                 -10.261
REMARK INTRA:                  -0.796
REMARK UNBOUND:                -0.796
REMARK  Name = 
REMARK  5 active torsions:
REMARK  status: ('A' for Active; 'I' for Inactive)
REMARK    1  A    between atoms: C_2  and  C_17
REMARK    2  A    between atoms: N_3  and  C_4
REMARK    3  A    between atoms: C_4  and  C_5
REMARK    4  A    between atoms: C_8  and  C_9
REMARK    5  A    between atoms: C_9  and  C_10
REMARK                            x       y       z     vdW  Elec       q    Type
REMARK                         _______ _______ _______ _____ _____    ______ ____
ROOT
ATOM      1  O   UNL     1      49.344   6.727  13.753  0.00  0.00    +0.000 OA
ATOM      2  C   UNL     1      48.424   6.615  14.559  0.00  0.00    +0.000 C 
ATOM      3  N   UNL     1      47.111   6.752  14.196  0.00  0.00    +0.000 N 
ATOM      4  H   UNL     1      46.406   6.834  14.919  0.00  0.00    +0.000 HD
ENDROOT
BRANCH   2   5
ATOM      5  C   UNL     1      48.676   6.273  15.964  0.00  0.00    +0.000 A 
ATOM      6  C   UNL     1      49.255   7.210  16.808  0.00  0.00    +0.000 A 
ATOM      7  S   UNL     1      49.495   6.642  18.398  0.00  0.00    +0.000 S 
ATOM      8  C   UNL     1      48.786   5.140  18.028  0.00  0.00    +0.000 A 
ATOM      9  N   UNL     1      48.649   4.178  18.979  0.00  0.00    +0.000 NA
ATOM     10  C   UNL     1      48.052   3.107  18.574  0.00  0.00    +0.000 A 
ATOM     11  N   UNL     1      47.588   2.909  17.299  0.00  0.00    +0.000 N 
ATOM     12  C   UNL     1      47.777   3.817  16.287  0.00  0.00    +0.000 A 
ATOM     13  O   UNL     1      47.488   3.542  15.126  0.00  0.00    +0.000 OA
ATOM     14  C   UNL     1      48.399   5.062  16.701  0.00  0.00    +0.000 A 
ATOM     15  H   UNL     1      47.158   2.033  17.037  0.00  0.00    +0.000 HD
ENDBRANCH   2   5
BRANCH   3  16
ATOM     16  C   UNL     1      46.717   7.178  12.878  0.00  0.00    +0.000 C 
BRANCH  16  17
ATOM     17  C   UNL     1      46.073   6.058  12.119  0.00  0.00    +0.000 A 
ATOM     18  C   UNL     1      45.834   4.820  12.714  0.00  0.00    +0.000 A 
ATOM     19  C   UNL     1      45.241   3.803  11.972  0.00  0.00    +0.000 A 
ATOM     20  C   UNL     1      44.858   4.050  10.656  0.00  0.00    +0.000 A 
ATOM     21  N   UNL     1      45.063   5.253  10.065  0.00  0.00    +0.000 NA
ATOM     22  C   UNL     1      45.655   6.222  10.806  0.00  0.00    +0.000 A 
BRANCH  20  23
ATOM     23  C   UNL     1      44.218   2.972   9.811  0.00  0.00    +0.000 C 
BRANCH  23  24
ATOM     24  C   UNL     1      44.866   2.693   8.441  0.00  0.00    +0.000 C 
ATOM     25  C   UNL     1      46.021   1.701   8.489  0.00  0.00    +0.000 C 
ATOM     26  C   UNL     1      46.843   2.040   7.261  0.00  0.00    +0.000 C 
ATOM     27  C   UNL     1      46.570   3.508   6.993  0.00  0.00    +0.000 C 
ATOM     28  N   UNL     1      45.406   3.893   7.785  0.00  0.00    +0.000 NA
ATOM     29  H   UNL     1      44.696   4.335   7.203  0.00  0.00    +0.000 HD
ENDBRANCH  23  24
ENDBRANCH  20  23
ENDBRANCH  16  17
ENDBRANCH   3  16
TORSDOF 5
ENDMDL
MODEL 2
REMARK VINA RESULT:    -7.316      3.880      8.536
REMARK INTER + INTRA:         -10.250
REMARK INTER:                  -9.419
REMARK INTRA:                  -0.831
REMARK UNBOUND:                -0.796
REMARK  Name = 
REMARK  5 active torsions:
REMARK  status: ('A' for Active; 'I' for Inactive)
REMARK    1  A    between atoms: C_2  and  C_17
REMARK    2  A    between atoms: N_3  and  C_4
REMARK    3  A    between atoms: C_4  and  C_5
REMARK    4  A    between atoms: C_8  and  C_9
REMARK    5  A    between atoms: C_9  and  C_10
REMARK                            x       y       z     vdW  Elec       q    Type
REMARK                         _______ _______ _______ _____ _____    ______ ____
ROOT
ATOM      1  O   UNL     1      47.172   2.992  14.132  0.00  0.00    +0.000 OA
ATOM      2  C   UNL     1      46.828   4.081  14.582  0.00  0.00    +0.000 C 
ATOM      3  N   UNL     1      46.841   4.358  15.923  0.00  0.00    +0.000 N 
ATOM      4  H   UNL     1      46.380   5.194  16.259  0.00  0.00    +0.000 HD
ENDROOT
BRANCH   2   5
ATOM      5  C   UNL     1      46.427   5.182  13.697  0.00  0.00    +0.000 A 
ATOM      6  C   UNL     1      47.313   6.219  13.442  0.00  0.00    +0.000 A 
ATOM      7  S   UNL     1      46.678   7.422  12.413  0.00  0.00    +0.000 S 
ATOM      8  C   UNL     1      45.214   6.574  12.233  0.00  0.00    +0.000 A 
ATOM      9  N   UNL     1      44.221   7.054  11.436  0.00  0.00    +0.000 NA
ATOM     10  C   UNL     1      43.186   6.287  11.352  0.00  0.00    +0.000 A 
ATOM     11  N   UNL     1      43.050   5.087  12.002  0.00  0.00    +0.000 N 
ATOM     12  C   UNL     1      43.990   4.604  12.879  0.00  0.00    +0.000 A 
ATOM     13  O   UNL     1      43.767   3.606  13.559  0.00  0.00    +0.000 OA
ATOM     14  C   UNL     1      45.198   5.403  12.971  0.00  0.00    +0.000 A 
ATOM     15  H   UNL     1      42.199   4.550  11.920  0.00  0.00    +0.000 HD
ENDBRANCH   2   5
BRANCH   3  16
ATOM     16  C   UNL     1      47.121   3.350  16.914  0.00  0.00    +0.000 C 
BRANCH  16  17
ATOM     17  C   UNL     1      48.595   3.216  17.146  0.00  0.00    +0.000 A 
ATOM     18  C   UNL     1      49.310   4.184  17.851  0.00  0.00    +0.000 A 
ATOM     19  C   UNL     1      50.680   4.026  18.038  0.00  0.00    +0.000 A 
ATOM     20  C   UNL     1      51.309   2.883  17.553  0.00  0.00    +0.000 A 
ATOM     21  N   UNL     1      50.629   1.921  16.882  0.00  0.00    +0.000 NA
ATOM     22  C   UNL     1      49.299   2.106  16.702  0.00  0.00    +0.000 A 
BRANCH  20  23
ATOM     23  C   UNL     1      52.797   2.674  17.727  0.00  0.00    +0.000 C 
BRANCH  23  24
ATOM     24  C   UNL     1      53.255   1.255  18.116  0.00  0.00    +0.000 C 
ATOM     25  C   UNL     1      54.622   1.203  18.785  0.00  0.00    +0.000 C 
ATOM     26  C   UNL     1      55.105  -0.208  18.516  0.00  0.00    +0.000 C 
ATOM     27  C   UNL     1      54.412  -0.629  17.235  0.00  0.00    +0.000 C 
ATOM     28  N   UNL     1      53.339   0.326  16.978  0.00  0.00    +0.000 NA
ATOM     29  H   UNL     1      52.450  -0.149  16.837  0.00  0.00    +0.000 HD
ENDBRANCH  23  24
ENDBRANCH  20  23
ENDBRANCH  16  17
ENDBRANCH   3  16
TORSDOF 5
ENDMDL
MODEL 3
REMARK VINA RESULT:    -7.162      1.961      2.734
REMARK INTER + INTRA:         -10.052
REMARK INTER:                  -9.545
REMARK INTRA:                  -0.506
REMARK UNBOUND:                -0.796
REMARK  Name = 
REMARK  5 active torsions:
REMARK  status: ('A' for Active; 'I' for Inactive)
REMARK    1  A    between atoms: C_2  and  C_17
REMARK    2  A    between atoms: N_3  and  C_4
REMARK    3  A    between atoms: C_4  and  C_5
REMARK    4  A    between atoms: C_8  and  C_9
REMARK    5  A    between atoms: C_9  and  C_10
REMARK                            x       y       z     vdW  Elec       q    Type
REMARK                         _______ _______ _______ _____ _____    ______ ____
ROOT
ATOM      1  O   UNL     1      46.407   4.164  14.047  0.00  0.00    +0.000 OA
ATOM      2  C   UNL     1      46.520   5.382  13.941  0.00  0.00    +0.000 C 
ATOM      3  N   UNL     1      45.481   6.184  13.552  0.00  0.00    +0.000 N 
ATOM      4  H   UNL     1      45.668   7.148  13.301  0.00  0.00    +0.000 HD
ENDROOT
BRANCH   2   5
ATOM      5  C   UNL     1      47.776   6.066  14.275  0.00  0.00    +0.000 A 
ATOM      6  C   UNL     1      48.420   6.832  13.315  0.00  0.00    +0.000 A 
ATOM      7  S   UNL     1      49.872   7.537  13.865  0.00  0.00    +0.000 S 
ATOM      8  C   UNL     1      49.664   6.885  15.422  0.00  0.00    +0.000 A 
ATOM      9  N   UNL     1      50.563   7.137  16.412  0.00  0.00    +0.000 NA
ATOM     10  C   UNL     1      50.258   6.620  17.555  0.00  0.00    +0.000 A 
ATOM     11  N   UNL     1      49.139   5.864  17.795  0.00  0.00    +0.000 N 
ATOM     12  C   UNL     1      48.249   5.516  16.808  0.00  0.00    +0.000 A 
ATOM     13  O   UNL     1      47.346   4.713  17.025  0.00  0.00    +0.000 OA
ATOM     14  C   UNL     1      48.518   6.115  15.513  0.00  0.00    +0.000 A 
ATOM     15  H   UNL     1      48.975   5.460  18.705  0.00  0.00    +0.000 HD
ENDBRANCH   2   5
BRANCH   3  16
ATOM     16  C   UNL     1      44.221   5.648  13.102  0.00  0.00    +0.000 C 
BRANCH  16  17
ATOM     17  C   UNL     1      44.357   5.007  11.756  0.00  0.00    +0.000 A 
ATOM     18  C   UNL     1      43.723   3.802  11.456  0.00  0.00    +0.000 A 
ATOM     19  C   UNL     1      43.881   3.236  10.195  0.00  0.00    +0.000 A 
ATOM     20  C   UNL     1      44.640   3.902   9.237  0.00  0.00    +0.000 A 
ATOM     21  N   UNL     1      45.249   5.084   9.500  0.00  0.00    +0.000 NA
ATOM     22  C   UNL     1      45.089   5.607  10.741  0.00  0.00    +0.000 A 
BRANCH  20  23
ATOM     23  C   UNL     1      44.845   3.319   7.856  0.00  0.00    +0.000 C 
BRANCH  23  24
ATOM     24  C   UNL     1      46.295   2.974   7.461  0.00  0.00    +0.000 C 
ATOM     25  C   UNL     1      46.608   3.199   5.987  0.00  0.00    +0.000 C 
ATOM     26  C   UNL     1      47.777   2.273   5.718  0.00  0.00    +0.000 C 
ATOM     27  C   UNL     1      47.635   1.149   6.727  0.00  0.00    +0.000 C 
ATOM     28  N   UNL     1      46.668   1.578   7.733  0.00  0.00    +0.000 NA
ATOM     29  H   UNL     1      47.050   1.485   8.672  0.00  0.00    +0.000 HD
ENDBRANCH  23  24
ENDBRANCH  20  23
ENDBRANCH  16  17
ENDBRANCH   3  16
TORSDOF 5
ENDMDL
MODEL 4
REMARK VINA RESULT:    -7.068      1.520      2.197
REMARK INTER + INTRA:          -9.930
REMARK INTER:                  -9.171
REMARK INTRA:                  -0.759
REMARK UNBOUND:                -0.796
REMARK  Name = 
REMARK  5 active torsions:
REMARK  status: ('A' for Active; 'I' for Inactive)
REMARK    1  A    between atoms: C_2  and  C_17
REMARK    2  A    between atoms: N_3  and  C_4
REMARK    3  A    between atoms: C_4  and  C_5
REMARK    4  A    between atoms: C_8  and  C_9
REMARK    5  A    between atoms: C_9  and  C_10
REMARK                            x       y       z     vdW  Elec       q    Type
REMARK                         _______ _______ _______ _____ _____    ______ ____
ROOT
ATOM      1  O   UNL     1      48.717   6.398  13.639  0.00  0.00    +0.000 OA
ATOM      2  C   UNL     1      47.740   5.895  14.185  0.00  0.00    +0.000 C 
ATOM      3  N   UNL     1      46.486   5.945  13.637  0.00  0.00    +0.000 N 
ATOM      4  H   UNL     1      45.689   5.682  14.204  0.00  0.00    +0.000 HD
ENDROOT
BRANCH   2   5
ATOM      5  C   UNL     1      47.865   5.157  15.449  0.00  0.00    +0.000 A 
ATOM      6  C   UNL     1      47.289   3.902  15.573  0.00  0.00    +0.000 A 
ATOM      7  S   UNL     1      47.512   3.197  17.110  0.00  0.00    +0.000 S 
ATOM      8  C   UNL     1      48.432   4.524  17.647  0.00  0.00    +0.000 A 
ATOM      9  N   UNL     1      48.965   4.545  18.898  0.00  0.00    +0.000 NA
ATOM     10  C   UNL     1      49.680   5.589  19.156  0.00  0.00    +0.000 A 
ATOM     11  N   UNL     1      49.899   6.620  18.279  0.00  0.00    +0.000 N 
ATOM     12  C   UNL     1      49.314   6.680  17.038  0.00  0.00    +0.000 A 
ATOM     13  O   UNL     1      49.407   7.687  16.342  0.00  0.00    +0.000 OA
ATOM     14  C   UNL     1      48.542   5.505  16.676  0.00  0.00    +0.000 A 
ATOM     15  H   UNL     1      50.441   7.426  18.555  0.00  0.00    +0.000 HD
ENDBRANCH   2   5
BRANCH   3  16
ATOM     16  C   UNL     1      46.194   6.712  12.453  0.00  0.00    +0.000 C 
BRANCH  16  17
ATOM     17  C   UNL     1      45.731   5.826  11.338  0.00  0.00    +0.000 A 
ATOM     18  C   UNL     1      44.884   4.744  11.572  0.00  0.00    +0.000 A 
ATOM     19  C   UNL     1      44.483   3.941  10.509  0.00  0.00    +0.000 A 
ATOM     20  C   UNL     1      44.903   4.254   9.219  0.00  0.00    +0.000 A 
ATOM     21  N   UNL     1      45.710   5.314   8.966  0.00  0.00    +0.000 NA
ATOM     22  C   UNL     1      46.096   6.072  10.022  0.00  0.00    +0.000 A 
BRANCH  20  23
ATOM     23  C   UNL     1      44.498   3.404   8.035  0.00  0.00    +0.000 C 
BRANCH  23  24
ATOM     24  C   UNL     1      45.641   2.820   7.182  0.00  0.00    +0.000 C 
ATOM     25  C   UNL     1      46.417   1.701   7.863  0.00  0.00    +0.000 C 
ATOM     26  C   UNL     1      47.766   1.720   7.172  0.00  0.00    +0.000 C 
ATOM     27  C   UNL     1      47.947   3.148   6.693  0.00  0.00    +0.000 C 
ATOM     28  N   UNL     1      46.651   3.812   6.783  0.00  0.00    +0.000 NA
ATOM     29  H   UNL     1      46.398   4.246   5.897  0.00  0.00    +0.000 HD
ENDBRANCH  23  24
ENDBRANCH  20  23
ENDBRANCH  16  17
ENDBRANCH   3  16
TORSDOF 5
ENDMDL
MODEL 5
REMARK VINA RESULT:    -6.872      2.240      3.112
REMARK INTER + INTRA:          -9.676
REMARK INTER:                  -8.255
REMARK INTRA:                  -1.421
REMARK UNBOUND:                -0.796
REMARK  Name = 
REMARK  5 active torsions:
REMARK  status: ('A' for Active; 'I' for Inactive)
REMARK    1  A    between atoms: C_2  and  C_17
REMARK    2  A    between atoms: N_3  and  C_4
REMARK    3  A    between atoms: C_4  and  C_5
REMARK    4  A    between atoms: C_8  and  C_9
REMARK    5  A    between atoms: C_9  and  C_10
REMARK                            x       y       z     vdW  Elec       q    Type
REMARK                         _______ _______ _______ _____ _____    ______ ____
ROOT
ATOM      1  O   UNL     1      48.700   8.638  16.003  0.00  0.00    +0.000 OA
ATOM      2  C   UNL     1      48.982   7.490  15.673  0.00  0.00    +0.000 C 
ATOM      3  N   UNL     1      49.178   7.129  14.367  0.00  0.00    +0.000 N 
ATOM      4  H   UNL     1      49.225   6.146  14.128  0.00  0.00    +0.000 HD
ENDROOT
BRANCH   2   5
ATOM      5  C   UNL     1      49.177   6.432  16.673  0.00  0.00    +0.000 A 
ATOM      6  C   UNL     1      50.098   6.613  17.695  0.00  0.00    +0.000 A 
ATOM      7  S   UNL     1      50.213   5.281  18.754  0.00  0.00    +0.000 S 
ATOM      8  C   UNL     1      48.999   4.436  17.913  0.00  0.00    +0.000 A 
ATOM      9  N   UNL     1      48.587   3.208  18.326  0.00  0.00    +0.000 NA
ATOM     10  C   UNL     1      47.627   2.702  17.626  0.00  0.00    +0.000 A 
ATOM     11  N   UNL     1      47.050   3.311  16.541  0.00  0.00    +0.000 N 
ATOM     12  C   UNL     1      47.489   4.511  16.039  0.00  0.00    +0.000 A 
ATOM     13  O   UNL     1      47.055   4.951  14.978  0.00  0.00    +0.000 OA
ATOM     14  C   UNL     1      48.533   5.148  16.821  0.00  0.00    +0.000 A 
ATOM     15  H   UNL     1      46.325   2.846  16.014  0.00  0.00    +0.000 HD
ENDBRANCH   2   5
BRANCH   3  16
ATOM     16  C   UNL     1      48.930   8.033  13.273  0.00  0.00    +0.000 C 
BRANCH  16  17
ATOM     17  C   UNL     1      47.542   7.861  12.735  0.00  0.00    +0.000 A 
ATOM     18  C   UNL     1      46.516   8.739  13.079  0.00  0.00    +0.000 A 
ATOM     19  C   UNL     1      45.239   8.539  12.564  0.00  0.00    +0.000 A 
ATOM     20  C   UNL     1      45.014   7.487  11.680  0.00  0.00    +0.000 A 
ATOM     21  N   UNL     1      46.003   6.634  11.316  0.00  0.00    +0.000 NA
ATOM     22  C   UNL     1      47.235   6.843  11.844  0.00  0.00    +0.000 A 
BRANCH  20  23
ATOM     23  C   UNL     1      43.641   7.228  11.102  0.00  0.00    +0.000 C 
BRANCH  23  24
ATOM     24  C   UNL     1      43.085   5.799  11.255  0.00  0.00    +0.000 C 
ATOM     25  C   UNL     1      43.340   5.175  12.621  0.00  0.00    +0.000 C 
ATOM     26  C   UNL     1      43.288   3.684  12.355  0.00  0.00    +0.000 C 
ATOM     27  C   UNL     1      43.691   3.524  10.902  0.00  0.00    +0.000 C 
ATOM     28  N   UNL     1      43.631   4.843  10.279  0.00  0.00    +0.000 NA
ATOM     29  H   UNL     1      43.060   4.825   9.436  0.00  0.00    +0.000 HD
ENDBRANCH  23  24
ENDBRANCH  20  23
ENDBRANCH  16  17
ENDBRANCH   3  16
TORSDOF 5
ENDMDL
MODEL 6
REMARK VINA RESULT:    -6.709      3.272      7.825
REMARK INTER + INTRA:          -9.466
REMARK INTER:                  -8.634
REMARK INTRA:                  -0.832
REMARK UNBOUND:                -0.796
REMARK  Name = 
REMARK  5 active torsions:
REMARK  status: ('A' for Active; 'I' for Inactive)
REMARK    1  A    between atoms: C_2  and  C_17
REMARK    2  A    between atoms: N_3  and  C_4
REMARK    3  A    between atoms: C_4  and  C_5
REMARK    4  A    between atoms: C_8  and  C_9
REMARK    5  A    between atoms: C_9  and  C_10
REMARK                            x       y       z     vdW  Elec       q    Type
REMARK                         _______ _______ _______ _____ _____    ______ ____
ROOT
ATOM      1  O   UNL     1      47.152   8.003  11.791  0.00  0.00    +0.000 OA
ATOM      2  C   UNL     1      46.579   7.250  12.574  0.00  0.00    +0.000 C 
ATOM      3  N   UNL     1      47.006   7.068  13.862  0.00  0.00    +0.000 N 
ATOM      4  H   UNL     1      46.620   6.307  14.407  0.00  0.00    +0.000 HD
ENDROOT
BRANCH   2   5
ATOM      5  C   UNL     1      45.359   6.529  12.188  0.00  0.00    +0.000 A 
ATOM      6  C   UNL     1      44.305   7.221  11.611  0.00  0.00    +0.000 A 
ATOM      7  S   UNL     1      42.961   6.236  11.245  0.00  0.00    +0.000 S 
ATOM      8  C   UNL     1      43.762   4.841  11.798  0.00  0.00    +0.000 A 
ATOM      9  N   UNL     1      43.165   3.620  11.738  0.00  0.00    +0.000 NA
ATOM     10  C   UNL     1      43.903   2.643  12.146  0.00  0.00    +0.000 A 
ATOM     11  N   UNL     1      45.183   2.778  12.621  0.00  0.00    +0.000 N 
ATOM     12  C   UNL     1      45.795   3.998  12.777  0.00  0.00    +0.000 A 
ATOM     13  O   UNL     1      46.877   4.095  13.348  0.00  0.00    +0.000 OA
ATOM     14  C   UNL     1      45.027   5.127  12.284  0.00  0.00    +0.000 A 
ATOM     15  H   UNL     1      45.695   1.976  12.957  0.00  0.00    +0.000 HD
ENDBRANCH   2   5
BRANCH   3  16
ATOM     16  C   UNL     1      48.237   7.633  14.352  0.00  0.00    +0.000 C 
BRANCH  16  17
ATOM     17  C   UNL     1      48.884   6.730  15.357  0.00  0.00    +0.000 A 
ATOM     18  C   UNL     1      50.172   6.974  15.831  0.00  0.00    +0.000 A 
ATOM     19  C   UNL     1      50.740   6.106  16.758  0.00  0.00    +0.000 A 
ATOM     20  C   UNL     1      49.997   5.026  17.229  0.00  0.00    +0.000 A 
ATOM     21  N   UNL     1      48.736   4.782  16.796  0.00  0.00    +0.000 NA
ATOM     22  C   UNL     1      48.212   5.636  15.883  0.00  0.00    +0.000 A 
BRANCH  20  23
ATOM     23  C   UNL     1      50.577   4.053  18.231  0.00  0.00    +0.000 C 
BRANCH  23  24
ATOM     24  C   UNL     1      51.687   3.115  17.718  0.00  0.00    +0.000 C 
ATOM     25  C   UNL     1      51.193   1.736  17.299  0.00  0.00    +0.000 C 
ATOM     26  C   UNL     1      52.418   0.854  17.432  0.00  0.00    +0.000 C 
ATOM     27  C   UNL     1      53.273   1.518  18.494  0.00  0.00    +0.000 C 
ATOM     28  N   UNL     1      52.754   2.867  18.700  0.00  0.00    +0.000 NA
ATOM     29  H   UNL     1      53.493   3.562  18.610  0.00  0.00    +0.000 HD
ENDBRANCH  23  24
ENDBRANCH  20  23
ENDBRANCH  16  17
ENDBRANCH   3  16
TORSDOF 5
ENDMDL
MODEL 7
REMARK VINA RESULT:    -6.704      2.139      2.819
REMARK INTER + INTRA:          -9.459
REMARK INTER:                  -8.659
REMARK INTRA:                  -0.800
REMARK UNBOUND:                -0.796
REMARK  Name = 
REMARK  5 active torsions:
REMARK  status: ('A' for Active; 'I' for Inactive)
REMARK    1  A    between atoms: C_2  and  C_17
REMARK    2  A    between atoms: N_3  and  C_4
REMARK    3  A    between atoms: C_4  and  C_5
REMARK    4  A    between atoms: C_8  and  C_9
REMARK    5  A    between atoms: C_9  and  C_10
REMARK                            x       y       z     vdW  Elec       q    Type
REMARK                         _______ _______ _______ _____ _____    ______ ____
ROOT
ATOM      1  O   UNL     1      48.862   7.919  16.284  0.00  0.00    +0.000 OA
ATOM      2  C   UNL     1      48.705   6.746  15.955  0.00  0.00    +0.000 C 
ATOM      3  N   UNL     1      48.126   6.390  14.766  0.00  0.00    +0.000 N 
ATOM      4  H   UNL     1      47.852   5.426  14.620  0.00  0.00    +0.000 HD
ENDROOT
BRANCH   2   5
ATOM      5  C   UNL     1      49.180   5.644  16.800  0.00  0.00    +0.000 A 
ATOM      6  C   UNL     1      48.267   4.754  17.348  0.00  0.00    +0.000 A 
ATOM      7  S   UNL     1      48.986   3.550  18.319  0.00  0.00    +0.000 S 
ATOM      8  C   UNL     1      50.547   4.145  17.999  0.00  0.00    +0.000 A 
ATOM      9  N   UNL     1      51.648   3.536  18.516  0.00  0.00    +0.000 NA
ATOM     10  C   UNL     1      52.770   4.062  18.155  0.00  0.00    +0.000 A 
ATOM     11  N   UNL     1      52.890   5.151  17.330  0.00  0.00    +0.000 N 
ATOM     12  C   UNL     1      51.806   5.847  16.852  0.00  0.00    +0.000 A 
ATOM     13  O   UNL     1      51.950   6.905  16.246  0.00  0.00    +0.000 OA
ATOM     14  C   UNL     1      50.519   5.266  17.187  0.00  0.00    +0.000 A 
ATOM     15  H   UNL     1      53.798   5.536  17.112  0.00  0.00    +0.000 HD
ENDBRANCH   2   5
BRANCH   3  16
ATOM     16  C   UNL     1      47.529   7.356  13.880  0.00  0.00    +0.000 C 
BRANCH  16  17
ATOM     17  C   UNL     1      46.498   6.718  13.001  0.00  0.00    +0.000 A 
ATOM     18  C   UNL     1      45.512   7.475  12.371  0.00  0.00    +0.000 A 
ATOM     19  C   UNL     1      44.567   6.843  11.569  0.00  0.00    +0.000 A 
ATOM     20  C   UNL     1      44.644   5.466  11.376  0.00  0.00    +0.000 A 
ATOM     21  N   UNL     1      45.607   4.714  11.964  0.00  0.00    +0.000 NA
ATOM     22  C   UNL     1      46.507   5.354  12.750  0.00  0.00    +0.000 A 
BRANCH  20  23
ATOM     23  C   UNL     1      43.634   4.737  10.519  0.00  0.00    +0.000 C 
BRANCH  23  24
ATOM     24  C   UNL     1      44.160   4.108   9.214  0.00  0.00    +0.000 C 
ATOM     25  C   UNL     1      44.622   2.664   9.361  0.00  0.00    +0.000 C 
ATOM     26  C   UNL     1      45.605   2.479   8.223  0.00  0.00    +0.000 C 
ATOM     27  C   UNL     1      46.160   3.863   7.947  0.00  0.00    +0.000 C 
ATOM     28  N   UNL     1      45.302   4.827   8.628  0.00  0.00    +0.000 NA
ATOM     29  H   UNL     1      44.979   5.549   7.986  0.00  0.00    +0.000 HD
ENDBRANCH  23  24
ENDBRANCH  20  23
ENDBRANCH  16  17
ENDBRANCH   3  16
TORSDOF 5
ENDMDL
MODEL 8
REMARK VINA RESULT:    -6.602      4.346      7.671
REMARK INTER + INTRA:          -9.328
REMARK INTER:                  -8.165
REMARK INTRA:                  -1.163
REMARK UNBOUND:                -0.796
REMARK  Name = 
REMARK  5 active torsions:
REMARK  status: ('A' for Active; 'I' for Inactive)
REMARK    1  A    between atoms: C_2  and  C_17
REMARK    2  A    between atoms: N_3  and  C_4
REMARK    3  A    between atoms: C_4  and  C_5
REMARK    4  A    between atoms: C_8  and  C_9
REMARK    5  A    between atoms: C_9  and  C_10
REMARK                            x       y       z     vdW  Elec       q    Type
REMARK                         _______ _______ _______ _____ _____    ______ ____
ROOT
ATOM      1  O   UNL     1      43.572   7.262  11.373  0.00  0.00    +0.000 OA
ATOM      2  C   UNL     1      44.500   6.462  11.452  0.00  0.00    +0.000 C 
ATOM      3  N   UNL     1      45.758   6.835  11.843  0.00  0.00    +0.000 N 
ATOM      4  H   UNL     1      46.527   6.187  11.716  0.00  0.00    +0.000 HD
ENDROOT
BRANCH   2   5
ATOM      5  C   UNL     1      44.304   5.033  11.176  0.00  0.00    +0.000 A 
ATOM      6  C   UNL     1      43.508   4.272  12.020  0.00  0.00    +0.000 A 
ATOM      7  S   UNL     1      43.406   2.631  11.567  0.00  0.00    +0.000 S 
ATOM      8  C   UNL     1      44.381   2.891  10.197  0.00  0.00    +0.000 A 
ATOM      9  N   UNL     1      44.667   1.875   9.339  0.00  0.00    +0.000 NA
ATOM     10  C   UNL     1      45.376   2.222   8.317  0.00  0.00    +0.000 A 
ATOM     11  N   UNL     1      45.835   3.493   8.082  0.00  0.00    +0.000 N 
ATOM     12  C   UNL     1      45.640   4.530   8.962  0.00  0.00    +0.000 A 
ATOM     13  O   UNL     1      46.195   5.613   8.797  0.00  0.00    +0.000 OA
ATOM     14  C   UNL     1      44.804   4.206  10.103  0.00  0.00    +0.000 A 
ATOM     15  H   UNL     1      46.415   3.692   7.280  0.00  0.00    +0.000 HD
ENDBRANCH   2   5
BRANCH   3  16
ATOM     16  C   UNL     1      46.123   8.212  12.053  0.00  0.00    +0.000 C 
BRANCH  16  17
ATOM     17  C   UNL     1      47.610   8.371  12.139  0.00  0.00    +0.000 A 
ATOM     18  C   UNL     1      48.237   9.559  11.767  0.00  0.00    +0.000 A 
ATOM     19  C   UNL     1      49.622   9.662  11.854  0.00  0.00    +0.000 A 
ATOM     20  C   UNL     1      50.358   8.589  12.349  0.00  0.00    +0.000 A 
ATOM     21  N   UNL     1      49.767   7.432  12.734  0.00  0.00    +0.000 NA
ATOM     22  C   UNL     1      48.418   7.353  12.627  0.00  0.00    +0.000 A 
BRANCH  20  23
ATOM     23  C   UNL     1      51.866   8.655  12.452  0.00  0.00    +0.000 C 
BRANCH  23  24
ATOM     24  C   UNL     1      52.665   8.121  11.248  0.00  0.00    +0.000 C 
ATOM     25  C   UNL     1      52.893   9.148  10.147  0.00  0.00    +0.000 C 
ATOM     26  C   UNL     1      53.111   8.308   8.904  0.00  0.00    +0.000 C 
ATOM     27  C   UNL     1      52.361   7.015   9.162  0.00  0.00    +0.000 C 
ATOM     28  N   UNL     1      52.037   6.968  10.584  0.00  0.00    +0.000 NA
ATOM     29  H   UNL     1      52.354   6.096  11.004  0.00  0.00    +0.000 HD
ENDBRANCH  23  24
ENDBRANCH  20  23
ENDBRANCH  16  17
ENDBRANCH   3  16
TORSDOF 5
ENDMDL
MODEL 9
REMARK VINA RESULT:    -6.294      3.363      8.934
REMARK INTER + INTRA:          -8.930
REMARK INTER:                  -7.702
REMARK INTRA:                  -1.228
REMARK UNBOUND:                -0.796
REMARK  Name = 
REMARK  5 active torsions:
REMARK  status: ('A' for Active; 'I' for Inactive)
REMARK    1  A    between atoms: C_2  and  C_17
REMARK    2  A    between atoms: N_3  and  C_4
REMARK    3  A    between atoms: C_4  and  C_5
REMARK    4  A    between atoms: C_8  and  C_9
REMARK    5  A    between atoms: C_9  and  C_10
REMARK                            x       y       z     vdW  Elec       q    Type
REMARK                         _______ _______ _______ _____ _____    ______ ____
ROOT
ATOM      1  O   UNL     1      47.368   3.260  13.667  0.00  0.00    +0.000 OA
ATOM      2  C   UNL     1      46.696   4.224  14.025  0.00  0.00    +0.000 C 
ATOM      3  N   UNL     1      46.813   4.777  15.271  0.00  0.00    +0.000 N 
ATOM      4  H   UNL     1      46.117   5.444  15.583  0.00  0.00    +0.000 HD
ENDROOT
BRANCH   2   5
ATOM      5  C   UNL     1      45.752   4.879  13.111  0.00  0.00    +0.000 A 
ATOM      6  C   UNL     1      44.756   4.133  12.499  0.00  0.00    +0.000 A 
ATOM      7  S   UNL     1      43.762   5.046  11.455  0.00  0.00    +0.000 S 
ATOM      8  C   UNL     1      44.598   6.481  11.825  0.00  0.00    +0.000 A 
ATOM      9  N   UNL     1      44.226   7.669  11.276  0.00  0.00    +0.000 NA
ATOM     10  C   UNL     1      44.914   8.684  11.680  0.00  0.00    +0.000 A 
ATOM     11  N   UNL     1      45.950   8.615  12.576  0.00  0.00    +0.000 N 
ATOM     12  C   UNL     1      46.413   7.430  13.091  0.00  0.00    +0.000 A 
ATOM     13  O   UNL     1      47.437   7.390  13.767  0.00  0.00    +0.000 OA
ATOM     14  C   UNL     1      45.639   6.262  12.709  0.00  0.00    +0.000 A 
ATOM     15  H   UNL     1      46.471   9.444  12.825  0.00  0.00    +0.000 HD
ENDBRANCH   2   5
BRANCH   3  16
ATOM     16  C   UNL     1      47.627   4.186  16.303  0.00  0.00    +0.000 C 
BRANCH  16  17
ATOM     17  C   UNL     1      47.936   5.179  17.381  0.00  0.00    +0.000 A 
ATOM     18  C   UNL     1      47.170   5.251  18.544  0.00  0.00    +0.000 A 
ATOM     19  C   UNL     1      47.485   6.193  19.518  0.00  0.00    +0.000 A 
ATOM     20  C   UNL     1      48.588   7.024  19.335  0.00  0.00    +0.000 A 
ATOM     21  N   UNL     1      49.358   6.956  18.222  0.00  0.00    +0.000 NA
ATOM     22  C   UNL     1      49.021   6.039  17.282  0.00  0.00    +0.000 A 
BRANCH  20  23
ATOM     23  C   UNL     1      48.962   8.067  20.364  0.00  0.00    +0.000 C 
BRANCH  23  24
ATOM     24  C   UNL     1      48.551   9.520  20.056  0.00  0.00    +0.000 C 
ATOM     25  C   UNL     1      47.067   9.801  20.248  0.00  0.00    +0.000 C 
ATOM     26  C   UNL     1      46.804  10.996  19.353  0.00  0.00    +0.000 C 
ATOM     27  C   UNL     1      47.847  10.907  18.255  0.00  0.00    +0.000 C 
ATOM     28  N   UNL     1      48.857   9.944  18.681  0.00  0.00    +0.000 NA
ATOM     29  H   UNL     1      49.792  10.344  18.628  0.00  0.00    +0.000 HD
ENDBRANCH  23  24
ENDBRANCH  20  23
ENDBRANCH  16  17
ENDBRANCH   3  16
TORSDOF 5
ENDMDL
