MODEL 1
REMARK VINA RESULT:    -7.829      0.000      0.000
REMARK INTER + INTRA:         -12.602
REMARK INTER:                 -11.491
REMARK INTRA:                  -1.111
REMARK UNBOUND:                -1.111
REMARK  Name = 
REMARK  9 active torsions:
REMARK  status: ('A' for Active; 'I' for Inactive)
REMARK    1  A    between atoms: C_1  and  O_2
REMARK    2  A    between atoms: O_2  and  C_3
REMARK    3  A    between atoms: C_10  and  C_11
REMARK    4  A    between atoms: N_13  and  C_14
REMARK    5  A    between atoms: C_14  and  C_15
REMARK    6  A    between atoms: C_18  and  C_19
REMARK    7  A    between atoms: C_19  and  O_20
REMARK    8  A    between atoms: O_20  and  C_21
REMARK    9  A    between atoms: C_21  and  C_22
REMARK                            x       y       z     vdW  Elec       q    Type
REMARK                         _______ _______ _______ _____ _____    ______ ____
ROOT
ATOM      1  C   UNL     1      47.822   7.198  13.232  0.00  0.00    +0.000 C 
ENDROOT
BRANCH   1   2
ATOM      2  C   UNL     1      46.773   6.260  12.692  0.00  0.00    +0.000 A 
ATOM      3  C   UNL     1      46.207   5.269  13.504  0.00  0.00    +0.000 A 
ATOM      4  C   UNL     1      45.184   4.446  13.015  0.00  0.00    +0.000 A 
ATOM      5  C   UNL     1      44.713   4.593  11.703  0.00  0.00    +0.000 A 
ATOM      6  C   UNL     1      45.318   5.548  10.877  0.00  0.00    +0.000 A 
ATOM      7  C   UNL     1      46.341   6.369  11.363  0.00  0.00    +0.000 A 
BRANCH   5   8
ATOM      8  C   UNL     1      43.574   3.744  11.193  0.00  0.00    +0.000 C 
BRANCH   8   9
ATOM      9  O   UNL     1      43.798   3.430   9.821  0.00  0.00    +0.000 OA
BRANCH   9  10
ATOM     10  C   UNL     1      44.498   2.189   9.674  0.00  0.00    +0.000 C 
BRANCH  10  11
ATOM     11  C   UNL     1      45.531   2.272   8.568  0.00  0.00    +0.000 A 
ATOM     12  N   UNL     1      45.708   3.464   7.957  0.00  0.00    +0.000 NA
ATOM     13  C   UNL     1      46.623   3.502   6.968  0.00  0.00    +0.000 A 
ATOM     14  C   UNL     1      47.367   2.414   6.579  0.00  0.00    +0.000 A 
ATOM     15  C   UNL     1      47.124   1.252   7.271  0.00  0.00    +0.000 A 
ATOM     16  N   UNL     1      46.224   1.152   8.266  0.00  0.00    +0.000 NA
ENDBRANCH  10  11
ENDBRANCH   9  10
ENDBRANCH   8   9
ENDBRANCH   5   8
ENDBRANCH   1   2
BRANCH   1  19
ATOM     17  C   UNL     1      49.027   7.061  15.365  0.00  0.00    +0.000 C 
ATOM     18  O   UNL     1      50.099   6.917  14.778  0.00  0.00    +0.000 OA
ATOM     19  N   UNL     1      47.856   7.194  14.672  0.00  0.00    +0.000 N 
ATOM     20  H   UNL     1      46.972   7.244  15.165  0.00  0.00    +0.000 HD
BRANCH  17  28
ATOM     21  C   UNL     1      48.832   4.639  17.813  0.00  0.00    +0.000 A 
ATOM     22  N   UNL     1      48.673   3.929  18.948  0.00  0.00    +0.000 NA
ATOM     23  C   UNL     1      48.570   4.593  20.101  0.00  0.00    +0.000 A 
ATOM     24  N   UNL     1      48.610   5.910  20.270  0.00  0.00    +0.000 NA
ATOM     25  C   UNL     1      48.754   6.584  19.116  0.00  0.00    +0.000 A 
ATOM     26  S   UNL     1      48.837   8.280  19.147  0.00  0.00    +0.000 S 
ATOM     27  C   UNL     1      48.979   8.350  17.456  0.00  0.00    +0.000 A 
ATOM     28  C   UNL     1      48.963   7.108  16.835  0.00  0.00    +0.000 A 
ATOM     29  C   UNL     1      48.857   6.047  17.836  0.00  0.00    +0.000 A 
BRANCH  21  31
ATOM     30  C   UNL     1      47.840   3.228  16.219  0.00  0.00    +0.000 C 
ATOM     31  O   UNL     1      49.001   3.951  16.629  0.00  0.00    +0.000 OA
ENDBRANCH  21  31
ENDBRANCH  17  28
ENDBRANCH   1  19
TORSDOF 8
ENDMDL
MODEL 2
REMARK VINA RESULT:    -7.500      1.642      2.612
REMARK INTER + INTRA:         -12.120
REMARK INTER:                 -10.956
REMARK INTRA:                  -1.163
REMARK UNBOUND:                -1.111
REMARK  Name = 
REMARK  9 active torsions:
REMARK  status: ('A' for Active; 'I' for Inactive)
REMARK    1  A    between atoms: C_1  and  O_2
REMARK    2  A    between atoms: O_2  and  C_3
REMARK    3  A    between atoms: C_10  and  C_11
REMARK    4  A    between atoms: N_13  and  C_14
REMARK    5  A    between atoms: C_14  and  C_15
REMARK    6  A    between atoms: C_18  and  C_19
REMARK    7  A    between atoms: C_19  and  O_20
REMARK    8  A    between atoms: O_20  and  C_21
REMARK    9  A    between atoms: C_21  and  C_22
REMARK                            x       y       z     vdW  Elec       q    Type
REMARK                         _______ _______ _______ _____ _____    ______ ____
ROOT
ATOM      1  C   UNL     1      48.369   6.698  13.818  0.00  0.00    +0.000 C 
ENDROOT
BRANCH   1   2
ATOM      2  C   UNL     1      47.225   6.126  13.020  0.00  0.00    +0.000 A 
ATOM      3  C   UNL     1      46.456   5.067  13.520  0.00  0.00    +0.000 A 
ATOM      4  C   UNL     1      45.353   4.587  12.803  0.00  0.00    +0.000 A 
ATOM      5  C   UNL     1      45.001   5.151  11.570  0.00  0.00    +0.000 A 
ATOM      6  C   UNL     1      45.803   6.173  11.047  0.00  0.00    +0.000 A 
ATOM      7  C   UNL     1      46.906   6.651  11.761  0.00  0.00    +0.000 A 
BRANCH   5   8
ATOM      8  C   UNL     1      43.780   4.671  10.822  0.00  0.00    +0.000 C 
BRANCH   8   9
ATOM      9  O   UNL     1      44.157   4.281   9.505  0.00  0.00    +0.000 OA
BRANCH   9  10
ATOM     10  C   UNL     1      44.498   2.891   9.445  0.00  0.00    +0.000 C 
BRANCH  10  11
ATOM     11  C   UNL     1      45.529   2.627   8.367  0.00  0.00    +0.000 A 
ATOM     12  N   UNL     1      45.790   3.618   7.485  0.00  0.00    +0.000 NA
ATOM     13  C   UNL     1      46.699   3.347   6.529  0.00  0.00    +0.000 A 
ATOM     14  C   UNL     1      47.361   2.147   6.427  0.00  0.00    +0.000 A 
ATOM     15  C   UNL     1      47.037   1.210   7.378  0.00  0.00    +0.000 A 
ATOM     16  N   UNL     1      46.137   1.421   8.356  0.00  0.00    +0.000 NA
ENDBRANCH  10  11
ENDBRANCH   9  10
ENDBRANCH   8   9
ENDBRANCH   5   8
ENDBRANCH   1   2
BRANCH   1  19
ATOM     17  C   UNL     1      49.032   6.496  16.172  0.00  0.00    +0.000 C 
ATOM     18  O   UNL     1      50.184   6.213  15.848  0.00  0.00    +0.000 OA
ATOM     19  N   UNL     1      48.073   6.739  15.227  0.00  0.00    +0.000 N 
ATOM     20  H   UNL     1      47.112   6.905  15.503  0.00  0.00    +0.000 HD
BRANCH  17  28
ATOM     21  C   UNL     1      47.782   9.061  18.110  0.00  0.00    +0.000 A 
ATOM     22  N   UNL     1      47.377   9.880  19.101  0.00  0.00    +0.000 NA
ATOM     23  C   UNL     1      47.287   9.384  20.337  0.00  0.00    +0.000 A 
ATOM     24  N   UNL     1      47.555   8.140  20.718  0.00  0.00    +0.000 NA
ATOM     25  C   UNL     1      47.970   7.357  19.708  0.00  0.00    +0.000 A 
ATOM     26  S   UNL     1      48.344   5.730  20.015  0.00  0.00    +0.000 S 
ATOM     27  C   UNL     1      48.767   5.473  18.389  0.00  0.00    +0.000 A 
ATOM     28  C   UNL     1      48.640   6.600  17.588  0.00  0.00    +0.000 A 
ATOM     29  C   UNL     1      48.134   7.722  18.375  0.00  0.00    +0.000 A 
BRANCH  21  31
ATOM     30  C   UNL     1      49.029  10.237  16.504  0.00  0.00    +0.000 C 
ATOM     31  O   UNL     1      47.815   9.556  16.823  0.00  0.00    +0.000 OA
ENDBRANCH  21  31
ENDBRANCH  17  28
ENDBRANCH   1  19
TORSDOF 8
ENDMDL
MODEL 3
REMARK VINA RESULT:    -7.069      1.712      3.117
REMARK INTER + INTRA:         -11.486
REMARK INTER:                 -10.170
REMARK INTRA:                  -1.317
REMARK UNBOUND:                -1.111
REMARK  Name = 
REMARK  9 active torsions:
REMARK  status: ('A' for Active; 'I' for Inactive)
REMARK    1  A    between atoms: C_1  and  O_2
REMARK    2  A    between atoms: O_2  and  C_3
REMARK    3  A    between atoms: C_10  and  C_11
REMARK    4  A    between atoms: N_13  and  C_14
REMARK    5  A    between atoms: C_14  and  C_15
REMARK    6  A    between atoms: C_18  and  C_19
REMARK    7  A    between atoms: C_19  and  O_20
REMARK    8  A    between atoms: O_20  and  C_21
REMARK    9  A    between atoms: C_21  and  C_22
REMARK                            x       y       z     vdW  Elec       q    Type
REMARK                         _______ _______ _______ _____ _____    ______ ____
ROOT
ATOM      1  C   UNL     1      47.434   4.106  14.967  0.00  0.00    +0.000 C 
ENDROOT
BRANCH   1   2
ATOM      2  C   UNL     1      46.523   4.282  13.780  0.00  0.00    +0.000 A 
ATOM      3  C   UNL     1      46.013   3.173  13.092  0.00  0.00    +0.000 A 
ATOM      4  C   UNL     1      45.112   3.343  12.033  0.00  0.00    +0.000 A 
ATOM      5  C   UNL     1      44.710   4.626  11.635  0.00  0.00    +0.000 A 
ATOM      6  C   UNL     1      45.263   5.734  12.288  0.00  0.00    +0.000 A 
ATOM      7  C   UNL     1      46.164   5.565  13.345  0.00  0.00    +0.000 A 
BRANCH   5   8
ATOM      8  C   UNL     1      43.699   4.809  10.530  0.00  0.00    +0.000 C 
BRANCH   8   9
ATOM      9  O   UNL     1      43.994   3.910   9.466  0.00  0.00    +0.000 OA
BRANCH   9  10
ATOM     10  C   UNL     1      45.040   4.413   8.626  0.00  0.00    +0.000 C 
BRANCH  10  11
ATOM     11  C   UNL     1      45.895   3.287   8.082  0.00  0.00    +0.000 A 
ATOM     12  N   UNL     1      46.881   3.604   7.214  0.00  0.00    +0.000 NA
ATOM     13  C   UNL     1      47.613   2.579   6.736  0.00  0.00    +0.000 A 
ATOM     14  C   UNL     1      47.412   1.268   7.097  0.00  0.00    +0.000 A 
ATOM     15  C   UNL     1      46.397   1.050   7.996  0.00  0.00    +0.000 A 
ATOM     16  N   UNL     1      45.631   2.032   8.507  0.00  0.00    +0.000 NA
ENDBRANCH  10  11
ENDBRANCH   9  10
ENDBRANCH   8   9
ENDBRANCH   5   8
ENDBRANCH   1   2
BRANCH   1  19
ATOM     17  C   UNL     1      48.624   5.507  16.592  0.00  0.00    +0.000 C 
ATOM     18  O   UNL     1      49.434   4.608  16.811  0.00  0.00    +0.000 OA
ATOM     19  N   UNL     1      47.599   5.333  15.703  0.00  0.00    +0.000 N 
ATOM     20  H   UNL     1      46.899   6.055  15.580  0.00  0.00    +0.000 HD
BRANCH  17  28
ATOM     21  C   UNL     1      48.726   8.765  15.464  0.00  0.00    +0.000 A 
ATOM     22  N   UNL     1      48.868  10.096  15.307  0.00  0.00    +0.000 NA
ATOM     23  C   UNL     1      49.044  10.847  16.396  0.00  0.00    +0.000 A 
ATOM     24  N   UNL     1      49.096  10.427  17.656  0.00  0.00    +0.000 NA
ATOM     25  C   UNL     1      48.965   9.094  17.771  0.00  0.00    +0.000 A 
ATOM     26  S   UNL     1      48.994   8.386  19.314  0.00  0.00    +0.000 S 
ATOM     27  C   UNL     1      48.812   6.831  18.653  0.00  0.00    +0.000 A 
ATOM     28  C   UNL     1      48.731   6.812  17.267  0.00  0.00    +0.000 A 
ATOM     29  C   UNL     1      48.793   8.174  16.741  0.00  0.00    +0.000 A 
BRANCH  21  31
ATOM     30  C   UNL     1      49.659   7.673  13.606  0.00  0.00    +0.000 C 
ATOM     31  O   UNL     1      48.481   7.997  14.345  0.00  0.00    +0.000 OA
ENDBRANCH  21  31
ENDBRANCH  17  28
ENDBRANCH   1  19
TORSDOF 8
ENDMDL
MODEL 4
REMARK VINA RESULT:    -6.999      1.629      2.449
REMARK INTER + INTRA:         -11.384
REMARK INTER:                 -10.384
REMARK INTRA:                  -1.000
REMARK UNBOUND:                -1.111
REMARK  Name = 
REMARK  9 active torsions:
REMARK  status: ('A' for Active; 'I' for Inactive)
REMARK    1  A    between atoms: C_1  and  O_2
REMARK    2  A    between atoms: O_2  and  C_3
REMARK    3  A    between atoms: C_10  and  C_11
REMARK    4  A    between atoms: N_13  and  C_14
REMARK    5  A    between atoms: C_14  and  C_15
REMARK    6  A    between atoms: C_18  and  C_19
REMARK    7  A    between atoms: C_19  and  O_20
REMARK    8  A    between atoms: O_20  and  C_21
REMARK    9  A    between atoms: C_21  and  C_22
REMARK                            x       y       z     vdW  Elec       q    Type
REMARK                         _______ _______ _______ _____ _____    ______ ____
ROOT
ATOM      1  C   UNL     1      47.470   4.231  15.070  0.00  0.00    +0.000 C 
ENDROOT
BRANCH   1   2
ATOM      2  C   UNL     1      46.539   4.361  13.892  0.00  0.00    +0.000 A 
ATOM      3  C   UNL     1      46.142   3.235  13.159  0.00  0.00    +0.000 A 
ATOM      4  C   UNL     1      45.223   3.355  12.109  0.00  0.00    +0.000 A 
ATOM      5  C   UNL     1      44.688   4.604  11.766  0.00  0.00    +0.000 A 
ATOM      6  C   UNL     1      45.127   5.736  12.465  0.00  0.00    +0.000 A 
ATOM      7  C   UNL     1      46.047   5.617  13.512  0.00  0.00    +0.000 A 
BRANCH   5   8
ATOM      8  C   UNL     1      43.657   4.728  10.671  0.00  0.00    +0.000 C 
BRANCH   8   9
ATOM      9  O   UNL     1      43.932   3.770   9.653  0.00  0.00    +0.000 OA
BRANCH   9  10
ATOM     10  C   UNL     1      44.682   4.347   8.577  0.00  0.00    +0.000 C 
BRANCH  10  11
ATOM     11  C   UNL     1      45.620   3.331   7.959  0.00  0.00    +0.000 A 
ATOM     12  N   UNL     1      45.667   2.097   8.509  0.00  0.00    +0.000 NA
ATOM     13  C   UNL     1      46.522   1.221   7.946  0.00  0.00    +0.000 A 
ATOM     14  C   UNL     1      47.313   1.519   6.862  0.00  0.00    +0.000 A 
ATOM     15  C   UNL     1      47.182   2.794   6.367  0.00  0.00    +0.000 A 
ATOM     16  N   UNL     1      46.347   3.713   6.886  0.00  0.00    +0.000 NA
ENDBRANCH  10  11
ENDBRANCH   9  10
ENDBRANCH   8   9
ENDBRANCH   5   8
ENDBRANCH   1   2
BRANCH   1  19
ATOM     17  C   UNL     1      48.640   5.774  16.576  0.00  0.00    +0.000 C 
ATOM     18  O   UNL     1      49.615   5.025  16.625  0.00  0.00    +0.000 OA
ATOM     19  N   UNL     1      47.536   5.447  15.838  0.00  0.00    +0.000 N 
ATOM     20  H   UNL     1      46.713   6.038  15.858  0.00  0.00    +0.000 HD
BRANCH  17  28
ATOM     21  C   UNL     1      47.817   6.680  19.801  0.00  0.00    +0.000 A 
ATOM     22  N   UNL     1      47.489   7.317  20.942  0.00  0.00    +0.000 NA
ATOM     23  C   UNL     1      47.608   8.645  20.983  0.00  0.00    +0.000 A 
ATOM     24  N   UNL     1      48.027   9.439  20.004  0.00  0.00    +0.000 NA
ATOM     25  C   UNL     1      48.331   8.771  18.878  0.00  0.00    +0.000 A 
ATOM     26  S   UNL     1      48.897   9.629  17.527  0.00  0.00    +0.000 S 
ATOM     27  C   UNL     1      49.013   8.202  16.612  0.00  0.00    +0.000 A 
ATOM     28  C   UNL     1      48.627   7.058  17.297  0.00  0.00    +0.000 A 
ATOM     29  C   UNL     1      48.245   7.398  18.667  0.00  0.00    +0.000 A 
BRANCH  21  31
ATOM     30  C   UNL     1      48.924   4.668  20.296  0.00  0.00    +0.000 C 
ATOM     31  O   UNL     1      47.754   5.301  19.779  0.00  0.00    +0.000 OA
ENDBRANCH  21  31
ENDBRANCH  17  28
ENDBRANCH   1  19
TORSDOF 8
ENDMDL
MODEL 5
REMARK VINA RESULT:    -6.695      2.819      4.745
REMARK INTER + INTRA:         -10.937
REMARK INTER:                  -9.687
REMARK INTRA:                  -1.250
REMARK UNBOUND:                -1.111
REMARK  Name = 
REMARK  9 active torsions:
REMARK  status: ('A' for Active; 'I' for Inactive)
REMARK    1  A    between atoms: C_1  and  O_2
REMARK    2  A    between atoms: O_2  and  C_3
REMARK    3  A    between atoms: C_10  and  C_11
REMARK    4  A    between atoms: N_13  and  C_14
REMARK    5  A    between atoms: C_14  and  C_15
REMARK    6  A    between atoms: C_18  and  C_19
REMARK    7  A    between atoms: C_19  and  O_20
REMARK    8  A    between atoms: O_20  and  C_21
REMARK    9  A    between atoms: C_21  and  C_22
REMARK                            x       y       z     vdW  Elec       q    Type
REMARK                         _______ _______ _______ _____ _____    ______ ____
ROOT
ATOM      1  C   UNL     1      47.639   5.524  14.695  0.00  0.00    +0.000 C 
ENDROOT
BRANCH   1   2
ATOM      2  C   UNL     1      46.578   5.045  13.738  0.00  0.00    +0.000 A 
ATOM      3  C   UNL     1      46.528   3.706  13.329  0.00  0.00    +0.000 A 
ATOM      4  C   UNL     1      45.498   3.254  12.494  0.00  0.00    +0.000 A 
ATOM      5  C   UNL     1      44.504   4.134  12.044  0.00  0.00    +0.000 A 
ATOM      6  C   UNL     1      44.587   5.483  12.410  0.00  0.00    +0.000 A 
ATOM      7  C   UNL     1      45.616   5.936  13.243  0.00  0.00    +0.000 A 
BRANCH   5   8
ATOM      8  C   UNL     1      43.364   3.637  11.188  0.00  0.00    +0.000 C 
BRANCH   8   9
ATOM      9  O   UNL     1      43.887   2.921  10.074  0.00  0.00    +0.000 OA
BRANCH   9  10
ATOM     10  C   UNL     1      44.435   3.806   9.090  0.00  0.00    +0.000 C 
BRANCH  10  11
ATOM     11  C   UNL     1      45.477   3.105   8.243  0.00  0.00    +0.000 A 
ATOM     12  N   UNL     1      46.055   3.807   7.243  0.00  0.00    +0.000 NA
ATOM     13  C   UNL     1      46.967   3.151   6.498  0.00  0.00    +0.000 A 
ATOM     14  C   UNL     1      47.329   1.843   6.717  0.00  0.00    +0.000 A 
ATOM     15  C   UNL     1      46.696   1.221   7.766  0.00  0.00    +0.000 A 
ATOM     16  N   UNL     1      45.777   1.823   8.545  0.00  0.00    +0.000 NA
ENDBRANCH  10  11
ENDBRANCH   9  10
ENDBRANCH   8   9
ENDBRANCH   5   8
ENDBRANCH   1   2
BRANCH   1  19
ATOM     17  C   UNL     1      48.933   7.593  14.951  0.00  0.00    +0.000 C 
ATOM     18  O   UNL     1      48.768   7.574  16.170  0.00  0.00    +0.000 OA
ATOM     19  N   UNL     1      48.396   6.622  14.151  0.00  0.00    +0.000 N 
ATOM     20  H   UNL     1      48.480   6.684  13.143  0.00  0.00    +0.000 HD
BRANCH  17  28
ATOM     21  C   UNL     1      48.481   9.497  12.111  0.00  0.00    +0.000 A 
ATOM     22  N   UNL     1      48.603  10.303  11.037  0.00  0.00    +0.000 NA
ATOM     23  C   UNL     1      49.702  11.052  10.929  0.00  0.00    +0.000 A 
ATOM     24  N   UNL     1      50.721  11.102  11.780  0.00  0.00    +0.000 NA
ATOM     25  C   UNL     1      50.570  10.275  12.830  0.00  0.00    +0.000 A 
ATOM     26  S   UNL     1      51.774  10.220  14.025  0.00  0.00    +0.000 S 
ATOM     27  C   UNL     1      50.922   9.034  14.894  0.00  0.00    +0.000 A 
ATOM     28  C   UNL     1      49.723   8.654  14.304  0.00  0.00    +0.000 A 
ATOM     29  C   UNL     1      49.500   9.421  13.080  0.00  0.00    +0.000 A 
BRANCH  21  31
ATOM     30  C   UNL     1      46.141   9.579  12.299  0.00  0.00    +0.000 C 
ATOM     31  O   UNL     1      47.317   8.770  12.254  0.00  0.00    +0.000 OA
ENDBRANCH  21  31
ENDBRANCH  17  28
ENDBRANCH   1  19
TORSDOF 8
ENDMDL
MODEL 6
REMARK VINA RESULT:    -6.519      3.783      5.432
REMARK INTER + INTRA:         -10.680
REMARK INTER:                  -9.681
REMARK INTRA:                  -0.999
REMARK UNBOUND:                -1.111
REMARK  Name = 
REMARK  9 active torsions:
REMARK  status: ('A' for Active; 'I' for Inactive)
REMARK    1  A    between atoms: C_1  and  O_2
REMARK    2  A    between atoms: O_2  and  C_3
REMARK    3  A    between atoms: C_10  and  C_11
REMARK    4  A    between atoms: N_13  and  C_14
REMARK    5  A    between atoms: C_14  and  C_15
REMARK    6  A    between atoms: C_18  and  C_19
REMARK    7  A    between atoms: C_19  and  O_20
REMARK    8  A    between atoms: O_20  and  C_21
REMARK    9  A    between atoms: C_21  and  C_22
REMARK                            x       y       z     vdW  Elec       q    Type
REMARK                         _______ _______ _______ _____ _____    ______ ____
ROOT
ATOM      1  C   UNL     1      48.147   6.681  13.796  0.00  0.00    +0.000 C 
ENDROOT
BRANCH   1   2
ATOM      2  C   UNL     1      46.963   6.177  13.011  0.00  0.00    +0.000 A 
ATOM      3  C   UNL     1      46.721   6.624  11.705  0.00  0.00    +0.000 A 
ATOM      4  C   UNL     1      45.659   6.099  10.958  0.00  0.00    +0.000 A 
ATOM      5  C   UNL     1      44.812   5.125  11.504  0.00  0.00    +0.000 A 
ATOM      6  C   UNL     1      45.023   4.721  12.828  0.00  0.00    +0.000 A 
ATOM      7  C   UNL     1      46.082   5.245  13.576  0.00  0.00    +0.000 A 
BRANCH   5   8
ATOM      8  C   UNL     1      43.700   4.520  10.682  0.00  0.00    +0.000 C 
BRANCH   8   9
ATOM      9  O   UNL     1      44.210   4.139   9.407  0.00  0.00    +0.000 OA
BRANCH   9  10
ATOM     10  C   UNL     1      44.528   2.743   9.364  0.00  0.00    +0.000 C 
BRANCH  10  11
ATOM     11  C   UNL     1      45.577   2.454   8.310  0.00  0.00    +0.000 A 
ATOM     12  N   UNL     1      46.176   1.242   8.329  0.00  0.00    +0.000 NA
ATOM     13  C   UNL     1      47.115   1.021   7.389  0.00  0.00    +0.000 A 
ATOM     14  C   UNL     1      47.467   1.945   6.434  0.00  0.00    +0.000 A 
ATOM     15  C   UNL     1      46.792   3.140   6.489  0.00  0.00    +0.000 A 
ATOM     16  N   UNL     1      45.845   3.420   7.404  0.00  0.00    +0.000 NA
ENDBRANCH  10  11
ENDBRANCH   9  10
ENDBRANCH   8   9
ENDBRANCH   5   8
ENDBRANCH   1   2
BRANCH   1  19
ATOM     17  C   UNL     1      49.962   8.004  12.810  0.00  0.00    +0.000 C 
ATOM     18  O   UNL     1      49.541   9.027  13.347  0.00  0.00    +0.000 OA
ATOM     19  N   UNL     1      49.322   6.807  12.973  0.00  0.00    +0.000 N 
ATOM     20  H   UNL     1      49.637   5.984  12.472  0.00  0.00    +0.000 HD
BRANCH  17  28
ATOM     21  C   UNL     1      53.233   8.923  13.406  0.00  0.00    +0.000 A 
ATOM     22  N   UNL     1      54.530   9.280  13.333  0.00  0.00    +0.000 NA
ATOM     23  C   UNL     1      55.160   9.143  12.164  0.00  0.00    +0.000 A 
ATOM     24  N   UNL     1      54.646   8.679  11.031  0.00  0.00    +0.000 NA
ATOM     25  C   UNL     1      53.348   8.347  11.138  0.00  0.00    +0.000 A 
ATOM     26  S   UNL     1      52.533   7.723   9.786  0.00  0.00    +0.000 S 
ATOM     27  C   UNL     1      51.082   7.597  10.661  0.00  0.00    +0.000 A 
ATOM     28  C   UNL     1      51.178   8.023  11.979  0.00  0.00    +0.000 A 
ATOM     29  C   UNL     1      52.547   8.446  12.272  0.00  0.00    +0.000 A 
BRANCH  21  31
ATOM     30  C   UNL     1      52.668   7.800  15.391  0.00  0.00    +0.000 C 
ATOM     31  O   UNL     1      52.599   9.006  14.629  0.00  0.00    +0.000 OA
ENDBRANCH  21  31
ENDBRANCH  17  28
ENDBRANCH   1  19
TORSDOF 8
ENDMDL
MODEL 7
REMARK VINA RESULT:    -6.251      4.732      6.697
REMARK INTER + INTRA:         -10.286
REMARK INTER:                  -9.389
REMARK INTRA:                  -0.897
REMARK UNBOUND:                -1.111
REMARK  Name = 
REMARK  9 active torsions:
REMARK  status: ('A' for Active; 'I' for Inactive)
REMARK    1  A    between atoms: C_1  and  O_2
REMARK    2  A    between atoms: O_2  and  C_3
REMARK    3  A    between atoms: C_10  and  C_11
REMARK    4  A    between atoms: N_13  and  C_14
REMARK    5  A    between atoms: C_14  and  C_15
REMARK    6  A    between atoms: C_18  and  C_19
REMARK    7  A    between atoms: C_19  and  O_20
REMARK    8  A    between atoms: O_20  and  C_21
REMARK    9  A    between atoms: C_21  and  C_22
REMARK                            x       y       z     vdW  Elec       q    Type
REMARK                         _______ _______ _______ _____ _____    ______ ____
ROOT
ATOM      1  C   UNL     1      49.388   7.338  13.143  0.00  0.00    +0.000 C 
ENDROOT
BRANCH   1   2
ATOM      2  C   UNL     1      48.078   6.675  12.804  0.00  0.00    +0.000 A 
ATOM      3  C   UNL     1      47.395   6.992  11.622  0.00  0.00    +0.000 A 
ATOM      4  C   UNL     1      46.213   6.323  11.281  0.00  0.00    +0.000 A 
ATOM      5  C   UNL     1      45.686   5.329  12.117  0.00  0.00    +0.000 A 
ATOM      6  C   UNL     1      46.341   5.052  13.324  0.00  0.00    +0.000 A 
ATOM      7  C   UNL     1      47.520   5.722  13.667  0.00  0.00    +0.000 A 
BRANCH   5   8
ATOM      8  C   UNL     1      44.443   4.569  11.725  0.00  0.00    +0.000 C 
BRANCH   8   9
ATOM      9  O   UNL     1      44.349   4.519  10.304  0.00  0.00    +0.000 OA
BRANCH   9  10
ATOM     10  C   UNL     1      44.237   3.171   9.831  0.00  0.00    +0.000 C 
BRANCH  10  11
ATOM     11  C   UNL     1      45.279   2.875   8.772  0.00  0.00    +0.000 A 
ATOM     12  N   UNL     1      45.772   1.619   8.705  0.00  0.00    +0.000 NA
ATOM     13  C   UNL     1      46.708   1.391   7.763  0.00  0.00    +0.000 A 
ATOM     14  C   UNL     1      47.157   2.351   6.888  0.00  0.00    +0.000 A 
ATOM     15  C   UNL     1      46.584   3.593   7.028  0.00  0.00    +0.000 A 
ATOM     16  N   UNL     1      45.646   3.881   7.949  0.00  0.00    +0.000 NA
ENDBRANCH  10  11
ENDBRANCH   9  10
ENDBRANCH   8   9
ENDBRANCH   5   8
ENDBRANCH   1   2
BRANCH   1  19
ATOM     17  C   UNL     1      51.151   8.669  12.076  0.00  0.00    +0.000 C 
ATOM     18  O   UNL     1      51.853   8.591  13.084  0.00  0.00    +0.000 OA
ATOM     19  N   UNL     1      49.915   8.086  12.031  0.00  0.00    +0.000 N 
ATOM     20  H   UNL     1      49.318   8.212  11.222  0.00  0.00    +0.000 HD
BRANCH  17  28
ATOM     21  C   UNL     1      53.258   7.821   9.481  0.00  0.00    +0.000 A 
ATOM     22  N   UNL     1      54.082   7.792   8.415  0.00  0.00    +0.000 NA
ATOM     23  C   UNL     1      54.174   8.886   7.655  0.00  0.00    +0.000 A 
ATOM     24  N   UNL     1      53.529  10.034   7.829  0.00  0.00    +0.000 NA
ATOM     25  C   UNL     1      52.729  10.030   8.909  0.00  0.00    +0.000 A 
ATOM     26  S   UNL     1      51.817  11.415   9.275  0.00  0.00    +0.000 S 
ATOM     27  C   UNL     1      51.164  10.675  10.658  0.00  0.00    +0.000 A 
ATOM     28  C   UNL     1      51.618   9.381  10.874  0.00  0.00    +0.000 A 
ATOM     29  C   UNL     1      52.535   8.985   9.807  0.00  0.00    +0.000 A 
BRANCH  21  31
ATOM     30  C   UNL     1      53.830   5.553   9.699  0.00  0.00    +0.000 C 
ATOM     31  O   UNL     1      53.116   6.670  10.228  0.00  0.00    +0.000 OA
ENDBRANCH  21  31
ENDBRANCH  17  28
ENDBRANCH   1  19
TORSDOF 8
ENDMDL
MODEL 8
REMARK VINA RESULT:    -6.217      1.907      2.484
REMARK INTER + INTRA:         -10.235
REMARK INTER:                  -9.098
REMARK INTRA:                  -1.138
REMARK UNBOUND:                -1.111
REMARK  Name = 
REMARK  9 active torsions:
REMARK  status: ('A' for Active; 'I' for Inactive)
REMARK    1  A    between atoms: C_1  and  O_2
REMARK    2  A    between atoms: O_2  and  C_3
REMARK    3  A    between atoms: C_10  and  C_11
REMARK    4  A    between atoms: N_13  and  C_14
REMARK    5  A    between atoms: C_14  and  C_15
REMARK    6  A    between atoms: C_18  and  C_19
REMARK    7  A    between atoms: C_19  and  O_20
REMARK    8  A    between atoms: O_20  and  C_21
REMARK    9  A    between atoms: C_21  and  C_22
REMARK                            x       y       z     vdW  Elec       q    Type
REMARK                         _______ _______ _______ _____ _____    ______ ____
ROOT
ATOM      1  C   UNL     1      49.210   7.496  14.120  0.00  0.00    +0.000 C 
ENDROOT
BRANCH   1   2
ATOM      2  C   UNL     1      47.914   7.031  13.506  0.00  0.00    +0.000 A 
ATOM      3  C   UNL     1      47.672   5.670  13.277  0.00  0.00    +0.000 A 
ATOM      4  C   UNL     1      46.439   5.241  12.770  0.00  0.00    +0.000 A 
ATOM      5  C   UNL     1      45.428   6.164  12.472  0.00  0.00    +0.000 A 
ATOM      6  C   UNL     1      45.691   7.528  12.650  0.00  0.00    +0.000 A 
ATOM      7  C   UNL     1      46.923   7.958  13.155  0.00  0.00    +0.000 A 
BRANCH   5   8
ATOM      8  C   UNL     1      44.080   5.699  11.977  0.00  0.00    +0.000 C 
BRANCH   8   9
ATOM      9  O   UNL     1      44.150   5.459  10.575  0.00  0.00    +0.000 OA
BRANCH   9  10
ATOM     10  C   UNL     1      43.814   4.103  10.255  0.00  0.00    +0.000 C 
BRANCH  10  11
ATOM     11  C   UNL     1      44.794   3.516   9.261  0.00  0.00    +0.000 A 
ATOM     12  N   UNL     1      45.373   4.355   8.373  0.00  0.00    +0.000 NA
ATOM     13  C   UNL     1      46.228   3.800   7.492  0.00  0.00    +0.000 A 
ATOM     14  C   UNL     1      46.534   2.461   7.470  0.00  0.00    +0.000 A 
ATOM     15  C   UNL     1      45.906   1.694   8.421  0.00  0.00    +0.000 A 
ATOM     16  N   UNL     1      45.042   2.190   9.326  0.00  0.00    +0.000 NA
ENDBRANCH  10  11
ENDBRANCH   9  10
ENDBRANCH   8   9
ENDBRANCH   5   8
ENDBRANCH   1   2
BRANCH   1  19
ATOM     17  C   UNL     1      50.732   6.914  15.954  0.00  0.00    +0.000 C 
ATOM     18  O   UNL     1      51.584   7.692  15.526  0.00  0.00    +0.000 OA
ATOM     19  N   UNL     1      49.537   6.752  15.309  0.00  0.00    +0.000 N 
ATOM     20  H   UNL     1      48.870   6.060  15.631  0.00  0.00    +0.000 HD
BRANCH  17  28
ATOM     21  C   UNL     1      48.924   6.485  18.860  0.00  0.00    +0.000 A 
ATOM     22  N   UNL     1      48.483   6.207  20.103  0.00  0.00    +0.000 NA
ATOM     23  C   UNL     1      49.241   5.436  20.886  0.00  0.00    +0.000 A 
ATOM     24  N   UNL     1      50.412   4.892  20.576  0.00  0.00    +0.000 NA
ATOM     25  C   UNL     1      50.826   5.203  19.336  0.00  0.00    +0.000 A 
ATOM     26  S   UNL     1      52.300   4.581  18.769  0.00  0.00    +0.000 S 
ATOM     27  C   UNL     1      52.121   5.384  17.283  0.00  0.00    +0.000 A 
ATOM     28  C   UNL     1      50.958   6.136  17.184  0.00  0.00    +0.000 A 
ATOM     29  C   UNL     1      50.167   6.003  18.407  0.00  0.00    +0.000 A 
BRANCH  21  31
ATOM     30  C   UNL     1      48.239   8.639  18.219  0.00  0.00    +0.000 C 
ATOM     31  O   UNL     1      48.112   7.229  18.029  0.00  0.00    +0.000 OA
ENDBRANCH  21  31
ENDBRANCH  17  28
ENDBRANCH   1  19
TORSDOF 8
ENDMDL
MODEL 9
REMARK VINA RESULT:    -6.205      3.640      5.645
REMARK INTER + INTRA:         -10.219
REMARK INTER:                  -9.484
REMARK INTRA:                  -0.735
REMARK UNBOUND:                -1.111
REMARK  Name = 
REMARK  9 active torsions:
REMARK  status: ('A' for Active; 'I' for Inactive)
REMARK    1  A    between atoms: C_1  and  O_2
REMARK    2  A    between atoms: O_2  and  C_3
REMARK    3  A    between atoms: C_10  and  C_11
REMARK    4  A    between atoms: N_13  and  C_14
REMARK    5  A    between atoms: C_14  and  C_15
REMARK    6  A    between atoms: C_18  and  C_19
REMARK    7  A    between atoms: C_19  and  O_20
REMARK    8  A    between atoms: O_20  and  C_21
REMARK    9  A    between atoms: C_21  and  C_22
REMARK                            x       y       z     vdW  Elec       q    Type
REMARK                         _______ _______ _______ _____ _____    ______ ____
ROOT
ATOM      1  C   UNL     1      48.048   6.243  13.654  0.00  0.00    +0.000 C 
ENDROOT
BRANCH   1   2
ATOM      2  C   UNL     1      46.801   5.522  13.209  0.00  0.00    +0.000 A 
ATOM      3  C   UNL     1      45.692   6.229  12.728  0.00  0.00    +0.000 A 
ATOM      4  C   UNL     1      44.564   5.549  12.252  0.00  0.00    +0.000 A 
ATOM      5  C   UNL     1      44.519   4.148  12.256  0.00  0.00    +0.000 A 
ATOM      6  C   UNL     1      45.607   3.444  12.788  0.00  0.00    +0.000 A 
ATOM      7  C   UNL     1      46.733   4.123  13.265  0.00  0.00    +0.000 A 
BRANCH   5   8
ATOM      8  C   UNL     1      43.328   3.412  11.694  0.00  0.00    +0.000 C 
BRANCH   8   9
ATOM      9  O   UNL     1      43.696   2.782  10.470  0.00  0.00    +0.000 OA
BRANCH   9  10
ATOM     10  C   UNL     1      44.164   3.735   9.508  0.00  0.00    +0.000 C 
BRANCH  10  11
ATOM     11  C   UNL     1      45.219   3.128   8.606  0.00  0.00    +0.000 A 
ATOM     12  N   UNL     1      45.782   3.923   7.669  0.00  0.00    +0.000 NA
ATOM     13  C   UNL     1      46.706   3.350   6.872  0.00  0.00    +0.000 A 
ATOM     14  C   UNL     1      47.093   2.036   6.980  0.00  0.00    +0.000 A 
ATOM     15  C   UNL     1      46.472   1.315   7.971  0.00  0.00    +0.000 A 
ATOM     16  N   UNL     1      45.543   1.831   8.797  0.00  0.00    +0.000 NA
ENDBRANCH  10  11
ENDBRANCH   9  10
ENDBRANCH   8   9
ENDBRANCH   5   8
ENDBRANCH   1   2
BRANCH   1  19
ATOM     17  C   UNL     1      49.291   8.291  13.124  0.00  0.00    +0.000 C 
ATOM     18  O   UNL     1      49.844   8.268  14.223  0.00  0.00    +0.000 OA
ATOM     19  N   UNL     1      48.382   7.331  12.772  0.00  0.00    +0.000 N 
ATOM     20  H   UNL     1      47.882   7.397  11.893  0.00  0.00    +0.000 HD
BRANCH  17  28
ATOM     21  C   UNL     1      52.185   9.304  11.544  0.00  0.00    +0.000 A 
ATOM     22  N   UNL     1      53.150   9.950  10.860  0.00  0.00    +0.000 NA
ATOM     23  C   UNL     1      52.804  11.009  10.125  0.00  0.00    +0.000 A 
ATOM     24  N   UNL     1      51.585  11.516   9.979  0.00  0.00    +0.000 NA
ATOM     25  C   UNL     1      50.652  10.855  10.686  0.00  0.00    +0.000 A 
ATOM     26  S   UNL     1      49.034  11.361  10.607  0.00  0.00    +0.000 S 
ATOM     27  C   UNL     1      48.553  10.146  11.692  0.00  0.00    +0.000 A 
ATOM     28  C   UNL     1      49.594   9.342  12.138  0.00  0.00    +0.000 A 
ATOM     29  C   UNL     1      50.849   9.751  11.510  0.00  0.00    +0.000 A 
BRANCH  21  31
ATOM     30  C   UNL     1      53.459   8.424  13.310  0.00  0.00    +0.000 C 
ATOM     31  O   UNL     1      52.531   8.173  12.254  0.00  0.00    +0.000 OA
ENDBRANCH  21  31
ENDBRANCH  17  28
ENDBRANCH   1  19
TORSDOF 8
ENDMDL
