MODEL 1
REMARK VINA RESULT:    -7.736      0.000      0.000
REMARK INTER + INTRA:         -10.461
REMARK INTER:                  -9.997
REMARK INTRA:                  -0.464
REMARK UNBOUND:                -0.464
REMARK  Name = 
REMARK  6 active torsions:
REMARK  status: ('A' for Active; 'I' for Inactive)
REMARK    1  A    between atoms: N_1  and  C_2
REMARK    2  A    between atoms: C_2  and  C_3
REMARK    3  A    between atoms: C_6  and  C_7
REMARK    4  A    between atoms: C_7  and  C_8
REMARK    5  A    between atoms: C_8  and  C_9
REMARK    6  A    between atoms: C_13  and  O_14
REMARK                            x       y       z     vdW  Elec       q    Type
REMARK                         _______ _______ _______ _____ _____    ______ ____
ROOT
ATOM      1  C   UNL     1      46.590   2.330   7.575  0.00  0.00    +0.000 A 
ATOM      2  C   UNL     1      45.790   1.592   8.456  0.00  0.00    +0.000 A 
ATOM      3  C   UNL     1      44.869   2.227   9.293  0.00  0.00    +0.000 A 
ATOM      4  C   UNL     1      44.740   3.622   9.294  0.00  0.00    +0.000 A 
ATOM      5  C   UNL     1      45.518   4.358   8.388  0.00  0.00    +0.000 A 
ATOM      6  C   UNL     1      46.435   3.721   7.543  0.00  0.00    +0.000 A 
ENDROOT
BRANCH   1   7
ATOM      7  C   UNL     1      47.615   1.643   6.710  0.00  0.00    +0.000 C 
BRANCH   7   8
ATOM      8  N   UNL     1      48.667   2.557   6.278  0.00  0.00    +0.000 NA
ATOM      9  H   UNL     1      49.514   2.026   6.090  0.00  0.00    +0.000 HD
ATOM     10  H   UNL     1      48.884   3.189   7.046  0.00  0.00    +0.000 HD
ENDBRANCH   7   8
ENDBRANCH   1   7
BRANCH   4  11
ATOM     11  C   UNL     1      43.756   4.348  10.190  0.00  0.00    +0.000 C 
BRANCH  11  12
ATOM     12  C   UNL     1      43.763   3.884  11.652  0.00  0.00    +0.000 C 
BRANCH  12  13
ATOM     13  C   UNL     1      44.945   4.406  12.421  0.00  0.00    +0.000 A 
ATOM     14  C   UNL     1      45.293   5.753  12.390  0.00  0.00    +0.000 A 
ATOM     15  N   UNL     1      46.382   6.246  13.030  0.00  0.00    +0.000 NA
ATOM     16  C   UNL     1      47.113   5.328  13.704  0.00  0.00    +0.000 A 
ATOM     17  C   UNL     1      46.764   3.986  13.750  0.00  0.00    +0.000 A 
ATOM     18  N   UNL     1      45.679   3.503  13.120  0.00  0.00    +0.000 NA
BRANCH  17  19
ATOM     19  O   UNL     1      47.498   3.058  14.427  0.00  0.00    +0.000 OA
ATOM     20  H   UNL     1      47.947   2.492  13.783  0.00  0.00    +0.000 HD
ENDBRANCH  17  19
ENDBRANCH  12  13
ENDBRANCH  11  12
ENDBRANCH   4  11
TORSDOF 6
ENDMDL
MODEL 2
REMARK VINA RESULT:    -7.154      2.105      2.666
REMARK INTER + INTRA:          -9.709
REMARK INTER:                  -9.362
REMARK INTRA:                  -0.347
REMARK UNBOUND:                -0.464
REMARK  Name = 
REMARK  6 active torsions:
REMARK  status: ('A' for Active; 'I' for Inactive)
REMARK    1  A    between atoms: N_1  and  C_2
REMARK    2  A    between atoms: C_2  and  C_3
REMARK    3  A    between atoms: C_6  and  C_7
REMARK    4  A    between atoms: C_7  and  C_8
REMARK    5  A    between atoms: C_8  and  C_9
REMARK    6  A    between atoms: C_13  and  O_14
REMARK                            x       y       z     vdW  Elec       q    Type
REMARK                         _______ _______ _______ _____ _____    ______ ____
ROOT
ATOM      1  C   UNL     1      46.622   2.710   6.808  0.00  0.00    +0.000 A 
ATOM      2  C   UNL     1      46.069   3.932   7.208  0.00  0.00    +0.000 A 
ATOM      3  C   UNL     1      45.290   4.023   8.364  0.00  0.00    +0.000 A 
ATOM      4  C   UNL     1      45.017   2.889   9.140  0.00  0.00    +0.000 A 
ATOM      5  C   UNL     1      45.599   1.671   8.757  0.00  0.00    +0.000 A 
ATOM      6  C   UNL     1      46.387   1.581   7.603  0.00  0.00    +0.000 A 
ENDROOT
BRANCH   1   7
ATOM      7  C   UNL     1      47.422   2.609   5.534  0.00  0.00    +0.000 C 
BRANCH   7   8
ATOM      8  N   UNL     1      48.602   1.766   5.695  0.00  0.00    +0.000 NA
ATOM      9  H   UNL     1      49.435   2.350   5.676  0.00  0.00    +0.000 HD
ATOM     10  H   UNL     1      48.667   1.141   4.893  0.00  0.00    +0.000 HD
ENDBRANCH   7   8
ENDBRANCH   1   7
BRANCH   4  11
ATOM     11  C   UNL     1      44.173   2.947  10.398  0.00  0.00    +0.000 C 
BRANCH  11  12
ATOM     12  C   UNL     1      44.957   3.261  11.678  0.00  0.00    +0.000 C 
BRANCH  12  13
ATOM     13  C   UNL     1      45.092   4.737  11.929  0.00  0.00    +0.000 A 
ATOM     14  C   UNL     1      46.096   5.244  12.749  0.00  0.00    +0.000 A 
ATOM     15  N   UNL     1      46.213   6.564  13.037  0.00  0.00    +0.000 NA
ATOM     16  C   UNL     1      45.277   7.358  12.467  0.00  0.00    +0.000 A 
ATOM     17  C   UNL     1      44.282   6.861  11.639  0.00  0.00    +0.000 A 
ATOM     18  N   UNL     1      44.174   5.552  11.350  0.00  0.00    +0.000 NA
BRANCH  17  19
ATOM     19  O   UNL     1      43.337   7.658  11.065  0.00  0.00    +0.000 OA
ATOM     20  H   UNL     1      43.080   8.339  11.703  0.00  0.00    +0.000 HD
ENDBRANCH  17  19
ENDBRANCH  12  13
ENDBRANCH  11  12
ENDBRANCH   4  11
TORSDOF 6
ENDMDL
MODEL 3
REMARK VINA RESULT:    -6.922      2.563      6.043
REMARK INTER + INTRA:          -9.410
REMARK INTER:                  -9.009
REMARK INTRA:                  -0.401
REMARK UNBOUND:                -0.464
REMARK  Name = 
REMARK  6 active torsions:
REMARK  status: ('A' for Active; 'I' for Inactive)
REMARK    1  A    between atoms: N_1  and  C_2
REMARK    2  A    between atoms: C_2  and  C_3
REMARK    3  A    between atoms: C_6  and  C_7
REMARK    4  A    between atoms: C_7  and  C_8
REMARK    5  A    between atoms: C_8  and  C_9
REMARK    6  A    between atoms: C_13  and  O_14
REMARK                            x       y       z     vdW  Elec       q    Type
REMARK                         _______ _______ _______ _____ _____    ______ ____
ROOT
ATOM      1  C   UNL     1      46.760   5.997  12.845  0.00  0.00    +0.000 A 
ATOM      2  C   UNL     1      46.155   4.776  13.164  0.00  0.00    +0.000 A 
ATOM      3  C   UNL     1      45.375   4.096  12.225  0.00  0.00    +0.000 A 
ATOM      4  C   UNL     1      45.152   4.630  10.949  0.00  0.00    +0.000 A 
ATOM      5  C   UNL     1      45.787   5.837  10.620  0.00  0.00    +0.000 A 
ATOM      6  C   UNL     1      46.575   6.516  11.557  0.00  0.00    +0.000 A 
ENDROOT
BRANCH   1   7
ATOM      7  C   UNL     1      47.561   6.750  13.877  0.00  0.00    +0.000 C 
BRANCH   7   8
ATOM      8  N   UNL     1      48.012   5.882  14.959  0.00  0.00    +0.000 NA
ATOM      9  H   UNL     1      47.824   6.335  15.850  0.00  0.00    +0.000 HD
ATOM     10  H   UNL     1      49.023   5.778  14.892  0.00  0.00    +0.000 HD
ENDBRANCH   7   8
ENDBRANCH   1   7
BRANCH   4  11
ATOM     11  C   UNL     1      44.309   3.923   9.907  0.00  0.00    +0.000 C 
BRANCH  11  12
ATOM     12  C   UNL     1      44.812   4.080   8.467  0.00  0.00    +0.000 C 
BRANCH  12  13
ATOM     13  C   UNL     1      45.725   2.962   8.046  0.00  0.00    +0.000 A 
ATOM     14  C   UNL     1      45.519   1.655   8.477  0.00  0.00    +0.000 A 
ATOM     15  N   UNL     1      46.353   0.635   8.158  0.00  0.00    +0.000 NA
ATOM     16  C   UNL     1      47.409   0.980   7.385  0.00  0.00    +0.000 A 
ATOM     17  C   UNL     1      47.614   2.279   6.941  0.00  0.00    +0.000 A 
ATOM     18  N   UNL     1      46.780   3.286   7.254  0.00  0.00    +0.000 NA
BRANCH  17  19
ATOM     19  O   UNL     1      48.677   2.631   6.165  0.00  0.00    +0.000 OA
ATOM     20  H   UNL     1      48.342   3.005   5.337  0.00  0.00    +0.000 HD
ENDBRANCH  17  19
ENDBRANCH  12  13
ENDBRANCH  11  12
ENDBRANCH   4  11
TORSDOF 6
ENDMDL
MODEL 4
REMARK VINA RESULT:    -6.427      2.376      2.826
REMARK INTER + INTRA:          -8.770
REMARK INTER:                  -8.453
REMARK INTRA:                  -0.317
REMARK UNBOUND:                -0.464
REMARK  Name = 
REMARK  6 active torsions:
REMARK  status: ('A' for Active; 'I' for Inactive)
REMARK    1  A    between atoms: N_1  and  C_2
REMARK    2  A    between atoms: C_2  and  C_3
REMARK    3  A    between atoms: C_6  and  C_7
REMARK    4  A    between atoms: C_7  and  C_8
REMARK    5  A    between atoms: C_8  and  C_9
REMARK    6  A    between atoms: C_13  and  O_14
REMARK                            x       y       z     vdW  Elec       q    Type
REMARK                         _______ _______ _______ _____ _____    ______ ____
ROOT
ATOM      1  C   UNL     1      46.228   2.187   7.920  0.00  0.00    +0.000 A 
ATOM      2  C   UNL     1      45.307   1.703   8.855  0.00  0.00    +0.000 A 
ATOM      3  C   UNL     1      44.524   2.579   9.611  0.00  0.00    +0.000 A 
ATOM      4  C   UNL     1      44.659   3.967   9.475  0.00  0.00    +0.000 A 
ATOM      5  C   UNL     1      45.559   4.451   8.513  0.00  0.00    +0.000 A 
ATOM      6  C   UNL     1      46.338   3.573   7.750  0.00  0.00    +0.000 A 
ENDROOT
BRANCH   1   7
ATOM      7  C   UNL     1      47.104   1.239   7.142  0.00  0.00    +0.000 C 
BRANCH   7   8
ATOM      8  N   UNL     1      47.159  -0.083   7.756  0.00  0.00    +0.000 NA
ATOM      9  H   UNL     1      46.796  -0.026   8.704  0.00  0.00    +0.000 HD
ATOM     10  H   UNL     1      48.135  -0.365   7.834  0.00  0.00    +0.000 HD
ENDBRANCH   7   8
ENDBRANCH   1   7
BRANCH   4  11
ATOM     11  C   UNL     1      43.831   4.949  10.280  0.00  0.00    +0.000 C 
BRANCH  11  12
ATOM     12  C   UNL     1      44.398   5.275  11.666  0.00  0.00    +0.000 C 
BRANCH  12  13
ATOM     13  C   UNL     1      44.631   6.747  11.867  0.00  0.00    +0.000 A 
ATOM     14  C   UNL     1      44.056   7.694  11.025  0.00  0.00    +0.000 A 
ATOM     15  N   UNL     1      44.287   9.024  11.148  0.00  0.00    +0.000 NA
ATOM     16  C   UNL     1      45.124   9.368  12.154  0.00  0.00    +0.000 A 
ATOM     17  C   UNL     1      45.691   8.430  13.005  0.00  0.00    +0.000 A 
ATOM     18  N   UNL     1      45.452   7.112  12.885  0.00  0.00    +0.000 NA
BRANCH  17  19
ATOM     19  O   UNL     1      46.536   8.772  14.019  0.00  0.00    +0.000 OA
ATOM     20  H   UNL     1      46.510   8.074  14.689  0.00  0.00    +0.000 HD
ENDBRANCH  17  19
ENDBRANCH  12  13
ENDBRANCH  11  12
ENDBRANCH   4  11
TORSDOF 6
ENDMDL
MODEL 5
REMARK VINA RESULT:    -5.720      3.027      6.446
REMARK INTER + INTRA:          -7.856
REMARK INTER:                  -7.489
REMARK INTRA:                  -0.366
REMARK UNBOUND:                -0.464
REMARK  Name = 
REMARK  6 active torsions:
REMARK  status: ('A' for Active; 'I' for Inactive)
REMARK    1  A    between atoms: N_1  and  C_2
REMARK    2  A    between atoms: C_2  and  C_3
REMARK    3  A    between atoms: C_6  and  C_7
REMARK    4  A    between atoms: C_7  and  C_8
REMARK    5  A    between atoms: C_8  and  C_9
REMARK    6  A    between atoms: C_13  and  O_14
REMARK                            x       y       z     vdW  Elec       q    Type
REMARK                         _______ _______ _______ _____ _____    ______ ____
ROOT
ATOM      1  C   UNL     1      48.035   6.921  14.113  0.00  0.00    +0.000 A 
ATOM      2  C   UNL     1      47.826   7.950  13.188  0.00  0.00    +0.000 A 
ATOM      3  C   UNL     1      46.988   7.765  12.086  0.00  0.00    +0.000 A 
ATOM      4  C   UNL     1      46.354   6.536  11.861  0.00  0.00    +0.000 A 
ATOM      5  C   UNL     1      46.536   5.517  12.807  0.00  0.00    +0.000 A 
ATOM      6  C   UNL     1      47.371   5.704  13.916  0.00  0.00    +0.000 A 
ENDROOT
BRANCH   1   7
ATOM      7  C   UNL     1      48.978   7.110  15.274  0.00  0.00    +0.000 C 
BRANCH   7   8
ATOM      8  N   UNL     1      50.370   6.913  14.885  0.00  0.00    +0.000 NA
ATOM      9  H   UNL     1      50.844   7.813  14.874  0.00  0.00    +0.000 HD
ATOM     10  H   UNL     1      50.394   6.559  13.931  0.00  0.00    +0.000 HD
ENDBRANCH   7   8
ENDBRANCH   1   7
BRANCH   4  11
ATOM     11  C   UNL     1      45.440   6.297  10.675  0.00  0.00    +0.000 C 
BRANCH  11  12
ATOM     12  C   UNL     1      44.704   4.952  10.698  0.00  0.00    +0.000 C 
BRANCH  12  13
ATOM     13  C   UNL     1      45.158   4.022   9.608  0.00  0.00    +0.000 A 
ATOM     14  C   UNL     1      45.002   2.644   9.719  0.00  0.00    +0.000 A 
ATOM     15  N   UNL     1      45.447   1.775   8.778  0.00  0.00    +0.000 NA
ATOM     16  C   UNL     1      46.060   2.348   7.716  0.00  0.00    +0.000 A 
ATOM     17  C   UNL     1      46.208   3.722   7.594  0.00  0.00    +0.000 A 
ATOM     18  N   UNL     1      45.758   4.580   8.526  0.00  0.00    +0.000 NA
BRANCH  17  19
ATOM     19  O   UNL     1      46.827   4.302   6.527  0.00  0.00    +0.000 OA
ATOM     20  H   UNL     1      47.407   3.647   6.114  0.00  0.00    +0.000 HD
ENDBRANCH  17  19
ENDBRANCH  12  13
ENDBRANCH  11  12
ENDBRANCH   4  11
TORSDOF 6
ENDMDL
MODEL 6
REMARK VINA RESULT:    -5.202      2.939      4.632
REMARK INTER + INTRA:          -7.187
REMARK INTER:                  -6.863
REMARK INTRA:                  -0.324
REMARK UNBOUND:                -0.464
REMARK  Name = 
REMARK  6 active torsions:
REMARK  status: ('A' for Active; 'I' for Inactive)
REMARK    1  A    between atoms: N_1  and  C_2
REMARK    2  A    between atoms: C_2  and  C_3
REMARK    3  A    between atoms: C_6  and  C_7
REMARK    4  A    between atoms: C_7  and  C_8
REMARK    5  A    between atoms: C_8  and  C_9
REMARK    6  A    between atoms: C_13  and  O_14
REMARK                            x       y       z     vdW  Elec       q    Type
REMARK                         _______ _______ _______ _____ _____    ______ ____
ROOT
ATOM      1  C   UNL     1      44.987   4.219  10.623  0.00  0.00    +0.000 A 
ATOM      2  C   UNL     1      45.522   5.479  10.333  0.00  0.00    +0.000 A 
ATOM      3  C   UNL     1      46.151   6.236  11.324  0.00  0.00    +0.000 A 
ATOM      4  C   UNL     1      46.238   5.769  12.642  0.00  0.00    +0.000 A 
ATOM      5  C   UNL     1      45.731   4.492  12.924  0.00  0.00    +0.000 A 
ATOM      6  C   UNL     1      45.107   3.729  11.929  0.00  0.00    +0.000 A 
ENDROOT
BRANCH   1   7
ATOM      7  C   UNL     1      44.267   3.427   9.561  0.00  0.00    +0.000 C 
BRANCH   7   8
ATOM      8  N   UNL     1      44.231   4.131   8.284  0.00  0.00    +0.000 NA
ATOM      9  H   UNL     1      43.977   5.102   8.445  0.00  0.00    +0.000 HD
ATOM     10  H   UNL     1      43.492   3.728   7.711  0.00  0.00    +0.000 HD
ENDBRANCH   7   8
ENDBRANCH   1   7
BRANCH   4  11
ATOM     11  C   UNL     1      46.909   6.564  13.745  0.00  0.00    +0.000 C 
BRANCH  11  12
ATOM     12  C   UNL     1      48.200   5.938  14.287  0.00  0.00    +0.000 C 
BRANCH  12  13
ATOM     13  C   UNL     1      48.087   5.533  15.731  0.00  0.00    +0.000 A 
ATOM     14  C   UNL     1      48.785   6.206  16.729  0.00  0.00    +0.000 A 
ATOM     15  N   UNL     1      48.745   5.834  18.032  0.00  0.00    +0.000 NA
ATOM     16  C   UNL     1      47.975   4.753  18.294  0.00  0.00    +0.000 A 
ATOM     17  C   UNL     1      47.267   4.085  17.306  0.00  0.00    +0.000 A 
ATOM     18  N   UNL     1      47.303   4.463  16.016  0.00  0.00    +0.000 NA
BRANCH  17  19
ATOM     19  O   UNL     1      46.491   2.995  17.566  0.00  0.00    +0.000 OA
ATOM     20  H   UNL     1      45.724   3.016  16.977  0.00  0.00    +0.000 HD
ENDBRANCH  17  19
ENDBRANCH  12  13
ENDBRANCH  11  12
ENDBRANCH   4  11
TORSDOF 6
ENDMDL
MODEL 7
REMARK VINA RESULT:    -5.092      2.280      3.332
REMARK INTER + INTRA:          -7.044
REMARK INTER:                  -6.772
REMARK INTRA:                  -0.273
REMARK UNBOUND:                -0.464
REMARK  Name = 
REMARK  6 active torsions:
REMARK  status: ('A' for Active; 'I' for Inactive)
REMARK    1  A    between atoms: N_1  and  C_2
REMARK    2  A    between atoms: C_2  and  C_3
REMARK    3  A    between atoms: C_6  and  C_7
REMARK    4  A    between atoms: C_7  and  C_8
REMARK    5  A    between atoms: C_8  and  C_9
REMARK    6  A    between atoms: C_13  and  O_14
REMARK                            x       y       z     vdW  Elec       q    Type
REMARK                         _______ _______ _______ _____ _____    ______ ____
ROOT
ATOM      1  C   UNL     1      45.260   3.720   8.800  0.00  0.00    +0.000 A 
ATOM      2  C   UNL     1      45.585   5.040   9.132  0.00  0.00    +0.000 A 
ATOM      3  C   UNL     1      45.523   5.484  10.455  0.00  0.00    +0.000 A 
ATOM      4  C   UNL     1      45.105   4.628  11.483  0.00  0.00    +0.000 A 
ATOM      5  C   UNL     1      44.811   3.297  11.155  0.00  0.00    +0.000 A 
ATOM      6  C   UNL     1      44.881   2.849   9.830  0.00  0.00    +0.000 A 
ENDROOT
BRANCH   1   7
ATOM      7  C   UNL     1      45.283   3.260   7.365  0.00  0.00    +0.000 C 
BRANCH   7   8
ATOM      8  N   UNL     1      46.630   3.282   6.805  0.00  0.00    +0.000 NA
ATOM      9  H   UNL     1      46.919   2.331   6.593  0.00  0.00    +0.000 HD
ATOM     10  H   UNL     1      47.272   3.630   7.515  0.00  0.00    +0.000 HD
ENDBRANCH   7   8
ENDBRANCH   1   7
BRANCH   4  11
ATOM     11  C   UNL     1      45.021   5.075  12.929  0.00  0.00    +0.000 C 
BRANCH  11  12
ATOM     12  C   UNL     1      46.372   5.165  13.648  0.00  0.00    +0.000 C 
BRANCH  12  13
ATOM     13  C   UNL     1      47.152   6.393  13.267  0.00  0.00    +0.000 A 
ATOM     14  C   UNL     1      46.548   7.644  13.199  0.00  0.00    +0.000 A 
ATOM     15  N   UNL     1      47.211   8.760  12.809  0.00  0.00    +0.000 NA
ATOM     16  C   UNL     1      48.512   8.569  12.485  0.00  0.00    +0.000 A 
ATOM     17  C   UNL     1      49.123   7.326  12.563  0.00  0.00    +0.000 A 
ATOM     18  N   UNL     1      48.464   6.223  12.958  0.00  0.00    +0.000 NA
BRANCH  17  19
ATOM     19  O   UNL     1      50.432   7.129  12.236  0.00  0.00    +0.000 OA
ATOM     20  H   UNL     1      50.540   6.215  11.937  0.00  0.00    +0.000 HD
ENDBRANCH  17  19
ENDBRANCH  12  13
ENDBRANCH  11  12
ENDBRANCH   4  11
TORSDOF 6
ENDMDL
MODEL 8
REMARK VINA RESULT:    -4.895      3.371      6.079
REMARK INTER + INTRA:          -6.790
REMARK INTER:                  -6.478
REMARK INTRA:                  -0.312
REMARK UNBOUND:                -0.464
REMARK  Name = 
REMARK  6 active torsions:
REMARK  status: ('A' for Active; 'I' for Inactive)
REMARK    1  A    between atoms: N_1  and  C_2
REMARK    2  A    between atoms: C_2  and  C_3
REMARK    3  A    between atoms: C_6  and  C_7
REMARK    4  A    between atoms: C_7  and  C_8
REMARK    5  A    between atoms: C_8  and  C_9
REMARK    6  A    between atoms: C_13  and  O_14
REMARK                            x       y       z     vdW  Elec       q    Type
REMARK                         _______ _______ _______ _____ _____    ______ ____
ROOT
ATOM      1  C   UNL     1      49.331   8.766  12.687  0.00  0.00    +0.000 A 
ATOM      2  C   UNL     1      49.068   7.592  11.972  0.00  0.00    +0.000 A 
ATOM      3  C   UNL     1      47.757   7.155  11.767  0.00  0.00    +0.000 A 
ATOM      4  C   UNL     1      46.670   7.864  12.294  0.00  0.00    +0.000 A 
ATOM      5  C   UNL     1      46.933   9.059  12.981  0.00  0.00    +0.000 A 
ATOM      6  C   UNL     1      48.246   9.501  13.181  0.00  0.00    +0.000 A 
ENDROOT
BRANCH   1   7
ATOM      7  C   UNL     1      50.749   9.207  12.946  0.00  0.00    +0.000 C 
BRANCH   7   8
ATOM      8  N   UNL     1      51.712   8.151  12.655  0.00  0.00    +0.000 NA
ATOM      9  H   UNL     1      52.196   8.370  11.788  0.00  0.00    +0.000 HD
ATOM     10  H   UNL     1      51.204   7.283  12.494  0.00  0.00    +0.000 HD
ENDBRANCH   7   8
ENDBRANCH   1   7
BRANCH   4  11
ATOM     11  C   UNL     1      45.235   7.419  12.096  0.00  0.00    +0.000 C 
BRANCH  11  12
ATOM     12  C   UNL     1      44.884   6.082  12.758  0.00  0.00    +0.000 C 
BRANCH  12  13
ATOM     13  C   UNL     1      44.666   4.979  11.760  0.00  0.00    +0.000 A 
ATOM     14  C   UNL     1      45.124   5.084  10.450  0.00  0.00    +0.000 A 
ATOM     15  N   UNL     1      44.898   4.131   9.513  0.00  0.00    +0.000 NA
ATOM     16  C   UNL     1      44.189   3.062   9.945  0.00  0.00    +0.000 A 
ATOM     17  C   UNL     1      43.740   2.945  11.252  0.00  0.00    +0.000 A 
ATOM     18  N   UNL     1      43.973   3.889  12.180  0.00  0.00    +0.000 NA
BRANCH  17  19
ATOM     19  O   UNL     1      43.024   1.871  11.690  0.00  0.00    +0.000 OA
ATOM     20  H   UNL     1      42.083   2.099  11.667  0.00  0.00    +0.000 HD
ENDBRANCH  17  19
ENDBRANCH  12  13
ENDBRANCH  11  12
ENDBRANCH   4  11
TORSDOF 6
ENDMDL
MODEL 9
REMARK VINA RESULT:    -4.845      4.516      5.730
REMARK INTER + INTRA:          -6.725
REMARK INTER:                  -6.632
REMARK INTRA:                  -0.093
REMARK UNBOUND:                -0.464
REMARK  Name = 
REMARK  6 active torsions:
REMARK  status: ('A' for Active; 'I' for Inactive)
REMARK    1  A    between atoms: N_1  and  C_2
REMARK    2  A    between atoms: C_2  and  C_3
REMARK    3  A    between atoms: C_6  and  C_7
REMARK    4  A    between atoms: C_7  and  C_8
REMARK    5  A    between atoms: C_8  and  C_9
REMARK    6  A    between atoms: C_13  and  O_14
REMARK                            x       y       z     vdW  Elec       q    Type
REMARK                         _______ _______ _______ _____ _____    ______ ____
ROOT
ATOM      1  C   UNL     1      44.381   5.703  11.797  0.00  0.00    +0.000 A 
ATOM      2  C   UNL     1      44.593   4.851  12.887  0.00  0.00    +0.000 A 
ATOM      3  C   UNL     1      45.810   4.855  13.573  0.00  0.00    +0.000 A 
ATOM      4  C   UNL     1      46.861   5.690  13.172  0.00  0.00    +0.000 A 
ATOM      5  C   UNL     1      46.635   6.567  12.101  0.00  0.00    +0.000 A 
ATOM      6  C   UNL     1      45.413   6.569  11.417  0.00  0.00    +0.000 A 
ENDROOT
BRANCH   1   7
ATOM      7  C   UNL     1      43.083   5.661  11.031  0.00  0.00    +0.000 C 
BRANCH   7   8
ATOM      8  N   UNL     1      41.996   6.306  11.759  0.00  0.00    +0.000 NA
ATOM      9  H   UNL     1      42.337   6.608  12.669  0.00  0.00    +0.000 HD
ATOM     10  H   UNL     1      41.268   5.617  11.934  0.00  0.00    +0.000 HD
ENDBRANCH   7   8
ENDBRANCH   1   7
BRANCH   4  11
ATOM     11  C   UNL     1      48.197   5.719  13.889  0.00  0.00    +0.000 C 
BRANCH  11  12
ATOM     12  C   UNL     1      48.120   6.135  15.363  0.00  0.00    +0.000 C 
BRANCH  12  13
ATOM     13  C   UNL     1      48.167   4.961  16.301  0.00  0.00    +0.000 A 
ATOM     14  C   UNL     1      47.032   4.205  16.574  0.00  0.00    +0.000 A 
ATOM     15  N   UNL     1      47.029   3.174  17.454  0.00  0.00    +0.000 NA
ATOM     16  C   UNL     1      48.218   2.931  18.054  0.00  0.00    +0.000 A 
ATOM     17  C   UNL     1      49.357   3.673  17.777  0.00  0.00    +0.000 A 
ATOM     18  N   UNL     1      49.357   4.690  16.897  0.00  0.00    +0.000 NA
BRANCH  17  19
ATOM     19  O   UNL     1      50.556   3.433  18.380  0.00  0.00    +0.000 OA
ATOM     20  H   UNL     1      50.536   3.820  19.267  0.00  0.00    +0.000 HD
ENDBRANCH  17  19
ENDBRANCH  12  13
ENDBRANCH  11  12
ENDBRANCH   4  11
TORSDOF 6
ENDMDL
