MODEL 1
REMARK VINA RESULT:    -7.855      0.000      0.000
REMARK INTER + INTRA:         -11.018
REMARK INTER:                 -10.151
REMARK INTRA:                  -0.867
REMARK UNBOUND:                -0.867
REMARK  Name = 
REMARK  7 active torsions:
REMARK  status: ('A' for Active; 'I' for Inactive)
REMARK    1  A    between atoms: C_1  and  C_2
REMARK    2  A    between atoms: C_2  and  C_3
REMARK    3  A    between atoms: C_2  and  C_4
REMARK    4  A    between atoms: C_2  and  C_20
REMARK    5  A    between atoms: C_5  and  C_6
REMARK    6  A    between atoms: C_8  and  C_9
REMARK    7  A    between atoms: C_13  and  C_14
REMARK                            x       y       z     vdW  Elec       q    Type
REMARK                         _______ _______ _______ _____ _____    ______ ____
ROOT
ATOM      1  C   UNL     1      46.829   6.020  12.801  0.00  0.00    +0.000 A 
ATOM      2  C   UNL     1      47.032   5.233  13.931  0.00  0.00    +0.000 A 
ATOM      3  C   UNL     1      47.864   5.691  14.965  0.00  0.00    +0.000 A 
ATOM      4  C   UNL     1      48.473   6.939  14.782  0.00  0.00    +0.000 A 
ATOM      5  C   UNL     1      48.237   7.648  13.616  0.00  0.00    +0.000 A 
ATOM      6  N   UNL     1      47.428   7.217  12.632  0.00  0.00    +0.000 NA
ENDROOT
BRANCH   3   7
ATOM      7  C   UNL     1      48.079   4.897  16.195  0.00  0.00    +0.000 A 
ATOM      8  C   UNL     1      47.247   3.829  16.551  0.00  0.00    +0.000 A 
ATOM      9  N   UNL     1      47.393   3.056  17.657  0.00  0.00    +0.000 NA
ATOM     10  C   UNL     1      48.421   3.359  18.478  0.00  0.00    +0.000 A 
ATOM     11  C   UNL     1      49.309   4.392  18.239  0.00  0.00    +0.000 A 
ATOM     12  C   UNL     1      49.135   5.161  17.084  0.00  0.00    +0.000 A 
BRANCH  11  13
ATOM     13  C   UNL     1      50.375   4.658  19.152  0.00  0.00    +0.000 C 
ATOM     14  N   UNL     1      51.245   4.879  19.885  0.00  0.00    +0.000 NA
ENDBRANCH  11  13
ENDBRANCH   3   7
BRANCH   1  16
ATOM     15  C   UNL     1      45.358   4.342  11.718  0.00  0.00    +0.000 C 
ATOM     16  C   UNL     1      45.916   5.567  11.742  0.00  0.00    +0.000 C 
BRANCH  15  18
ATOM     17  C   UNL     1      43.576   2.668  11.243  0.00  0.00    +0.000 C 
ATOM     18  C   UNL     1      44.416   3.819  10.638  0.00  0.00    +0.000 C 
ATOM     19  C   UNL     1      43.420   4.945  10.274  0.00  0.00    +0.000 C 
BRANCH  18  20
ATOM     20  C   UNL     1      45.215   3.404   9.383  0.00  0.00    +0.000 A 
ATOM     21  C   UNL     1      45.604   4.331   8.397  0.00  0.00    +0.000 A 
ATOM     22  C   UNL     1      46.276   3.921   7.242  0.00  0.00    +0.000 A 
ATOM     23  C   UNL     1      46.571   2.579   7.052  0.00  0.00    +0.000 A 
ATOM     24  F   UNL     1      47.199   2.210   5.926  0.00  0.00    +0.000 F 
ATOM     25  C   UNL     1      46.210   1.638   8.010  0.00  0.00    +0.000 A 
ATOM     26 CL   UNL     1      46.561  -0.031   7.775  0.00  0.00    +0.000 Cl
ATOM     27  C   UNL     1      45.540   2.046   9.168  0.00  0.00    +0.000 A 
ENDBRANCH  18  20
ENDBRANCH  15  18
ENDBRANCH   1  16
TORSDOF 5
ENDMDL
MODEL 2
REMARK VINA RESULT:    -7.538      2.056      4.341
REMARK INTER + INTRA:         -10.608
REMARK INTER:                  -9.684
REMARK INTRA:                  -0.924
REMARK UNBOUND:                -0.867
REMARK  Name = 
REMARK  7 active torsions:
REMARK  status: ('A' for Active; 'I' for Inactive)
REMARK    1  A    between atoms: C_1  and  C_2
REMARK    2  A    between atoms: C_2  and  C_3
REMARK    3  A    between atoms: C_2  and  C_4
REMARK    4  A    between atoms: C_2  and  C_20
REMARK    5  A    between atoms: C_5  and  C_6
REMARK    6  A    between atoms: C_8  and  C_9
REMARK    7  A    between atoms: C_13  and  C_14
REMARK                            x       y       z     vdW  Elec       q    Type
REMARK                         _______ _______ _______ _____ _____    ______ ____
ROOT
ATOM      1  C   UNL     1      46.544   4.524  13.863  0.00  0.00    +0.000 A 
ATOM      2  C   UNL     1      47.220   5.694  13.534  0.00  0.00    +0.000 A 
ATOM      3  C   UNL     1      48.103   6.278  14.457  0.00  0.00    +0.000 A 
ATOM      4  C   UNL     1      48.237   5.639  15.696  0.00  0.00    +0.000 A 
ATOM      5  C   UNL     1      47.509   4.489  15.952  0.00  0.00    +0.000 A 
ATOM      6  N   UNL     1      46.675   3.921  15.063  0.00  0.00    +0.000 NA
ENDROOT
BRANCH   3   7
ATOM      7  C   UNL     1      48.863   7.506  14.131  0.00  0.00    +0.000 A 
ATOM      8  C   UNL     1      49.932   7.952  14.915  0.00  0.00    +0.000 A 
ATOM      9  N   UNL     1      50.675   9.062  14.669  0.00  0.00    +0.000 NA
ATOM     10  C   UNL     1      50.337   9.790  13.584  0.00  0.00    +0.000 A 
ATOM     11  C   UNL     1      49.298   9.456  12.735  0.00  0.00    +0.000 A 
ATOM     12  C   UNL     1      48.561   8.300  13.012  0.00  0.00    +0.000 A 
BRANCH  11  13
ATOM     13  C   UNL     1      48.993  10.275  11.604  0.00  0.00    +0.000 C 
ATOM     14  N   UNL     1      48.736  10.939  10.690  0.00  0.00    +0.000 NA
ENDBRANCH  11  13
ENDBRANCH   3   7
BRANCH   1  16
ATOM     15  C   UNL     1      45.400   4.402  11.665  0.00  0.00    +0.000 C 
ATOM     16  C   UNL     1      45.661   3.881  12.878  0.00  0.00    +0.000 C 
BRANCH  15  18
ATOM     17  C   UNL     1      43.716   2.610  11.269  0.00  0.00    +0.000 C 
ATOM     18  C   UNL     1      44.483   3.784  10.614  0.00  0.00    +0.000 C 
ATOM     19  C   UNL     1      43.420   4.837  10.219  0.00  0.00    +0.000 C 
BRANCH  18  20
ATOM     20  C   UNL     1      45.296   3.371   9.368  0.00  0.00    +0.000 A 
ATOM     21  C   UNL     1      45.733   4.305   8.409  0.00  0.00    +0.000 A 
ATOM     22  C   UNL     1      46.417   3.899   7.260  0.00  0.00    +0.000 A 
ATOM     23  C   UNL     1      46.676   2.552   7.048  0.00  0.00    +0.000 A 
ATOM     24  F   UNL     1      47.317   2.187   5.929  0.00  0.00    +0.000 F 
ATOM     25  C   UNL     1      46.267   1.603   7.980  0.00  0.00    +0.000 A 
ATOM     26 CL   UNL     1      46.574  -0.070   7.717  0.00  0.00    +0.000 Cl
ATOM     27  C   UNL     1      45.585   2.009   9.132  0.00  0.00    +0.000 A 
ENDBRANCH  18  20
ENDBRANCH  15  18
ENDBRANCH   1  16
TORSDOF 5
ENDMDL
MODEL 3
REMARK VINA RESULT:    -7.197      2.044      3.245
REMARK INTER + INTRA:         -10.168
REMARK INTER:                  -9.336
REMARK INTRA:                  -0.832
REMARK UNBOUND:                -0.867
REMARK  Name = 
REMARK  7 active torsions:
REMARK  status: ('A' for Active; 'I' for Inactive)
REMARK    1  A    between atoms: C_1  and  C_2
REMARK    2  A    between atoms: C_2  and  C_3
REMARK    3  A    between atoms: C_2  and  C_4
REMARK    4  A    between atoms: C_2  and  C_20
REMARK    5  A    between atoms: C_5  and  C_6
REMARK    6  A    between atoms: C_8  and  C_9
REMARK    7  A    between atoms: C_13  and  C_14
REMARK                            x       y       z     vdW  Elec       q    Type
REMARK                         _______ _______ _______ _____ _____    ______ ____
ROOT
ATOM      1  C   UNL     1      46.598   5.183  13.658  0.00  0.00    +0.000 A 
ATOM      2  C   UNL     1      47.577   6.172  13.666  0.00  0.00    +0.000 A 
ATOM      3  C   UNL     1      48.458   6.280  14.754  0.00  0.00    +0.000 A 
ATOM      4  C   UNL     1      48.280   5.371  15.805  0.00  0.00    +0.000 A 
ATOM      5  C   UNL     1      47.266   4.431  15.729  0.00  0.00    +0.000 A 
ATOM      6  N   UNL     1      46.431   4.318  14.680  0.00  0.00    +0.000 NA
ENDROOT
BRANCH   3   7
ATOM      7  C   UNL     1      49.531   7.299  14.784  0.00  0.00    +0.000 A 
ATOM      8  C   UNL     1      49.552   8.387  13.904  0.00  0.00    +0.000 A 
ATOM      9  N   UNL     1      50.498   9.360  13.884  0.00  0.00    +0.000 NA
ATOM     10  C   UNL     1      51.500   9.252  14.782  0.00  0.00    +0.000 A 
ATOM     11  C   UNL     1      51.593   8.222  15.700  0.00  0.00    +0.000 A 
ATOM     12  C   UNL     1      50.594   7.242  15.700  0.00  0.00    +0.000 A 
BRANCH  11  13
ATOM     13  C   UNL     1      52.683   8.167  16.622  0.00  0.00    +0.000 C 
ATOM     14  N   UNL     1      53.561   8.126  17.377  0.00  0.00    +0.000 NA
ENDBRANCH  11  13
ENDBRANCH   3   7
BRANCH   1  16
ATOM     15  C   UNL     1      45.213   3.851  12.090  0.00  0.00    +0.000 C 
ATOM     16  C   UNL     1      45.710   5.034  12.496  0.00  0.00    +0.000 C 
BRANCH  15  18
ATOM     17  C   UNL     1      43.326   2.481  11.214  0.00  0.00    +0.000 C 
ATOM     18  C   UNL     1      44.301   3.639  10.886  0.00  0.00    +0.000 C 
ATOM     19  C   UNL     1      43.431   4.907  10.708  0.00  0.00    +0.000 C 
BRANCH  18  20
ATOM     20  C   UNL     1      45.138   3.398   9.612  0.00  0.00    +0.000 A 
ATOM     21  C   UNL     1      45.513   4.445   8.747  0.00  0.00    +0.000 A 
ATOM     22  C   UNL     1      46.221   4.193   7.569  0.00  0.00    +0.000 A 
ATOM     23  C   UNL     1      46.569   2.892   7.235  0.00  0.00    +0.000 A 
ATOM     24  F   UNL     1      47.232   2.676   6.090  0.00  0.00    +0.000 F 
ATOM     25  C   UNL     1      46.223   1.835   8.071  0.00  0.00    +0.000 A 
ATOM     26 CL   UNL     1      46.640   0.217   7.656  0.00  0.00    +0.000 Cl
ATOM     27  C   UNL     1      45.517   2.086   9.252  0.00  0.00    +0.000 A 
ENDBRANCH  18  20
ENDBRANCH  15  18
ENDBRANCH   1  16
TORSDOF 5
ENDMDL
MODEL 4
REMARK VINA RESULT:    -7.133      2.289      3.297
REMARK INTER + INTRA:         -10.085
REMARK INTER:                  -9.242
REMARK INTRA:                  -0.843
REMARK UNBOUND:                -0.867
REMARK  Name = 
REMARK  7 active torsions:
REMARK  status: ('A' for Active; 'I' for Inactive)
REMARK    1  A    between atoms: C_1  and  C_2
REMARK    2  A    between atoms: C_2  and  C_3
REMARK    3  A    between atoms: C_2  and  C_4
REMARK    4  A    between atoms: C_2  and  C_20
REMARK    5  A    between atoms: C_5  and  C_6
REMARK    6  A    between atoms: C_8  and  C_9
REMARK    7  A    between atoms: C_13  and  C_14
REMARK                            x       y       z     vdW  Elec       q    Type
REMARK                         _______ _______ _______ _____ _____    ______ ____
ROOT
ATOM      1  C   UNL     1      47.133   4.376  15.089  0.00  0.00    +0.000 A 
ATOM      2  C   UNL     1      47.327   4.987  16.324  0.00  0.00    +0.000 A 
ATOM      3  C   UNL     1      48.026   4.314  17.338  0.00  0.00    +0.000 A 
ATOM      4  C   UNL     1      48.481   3.022  17.044  0.00  0.00    +0.000 A 
ATOM      5  C   UNL     1      48.225   2.477  15.797  0.00  0.00    +0.000 A 
ATOM      6  N   UNL     1      47.569   3.127  14.819  0.00  0.00    +0.000 NA
ENDROOT
BRANCH   3   7
ATOM      7  C   UNL     1      48.279   4.944  18.654  0.00  0.00    +0.000 A 
ATOM      8  C   UNL     1      49.009   4.304  19.661  0.00  0.00    +0.000 A 
ATOM      9  N   UNL     1      49.284   4.827  20.883  0.00  0.00    +0.000 NA
ATOM     10  C   UNL     1      48.798   6.060  21.139  0.00  0.00    +0.000 A 
ATOM     11  C   UNL     1      48.058   6.792  20.228  0.00  0.00    +0.000 A 
ATOM     12  C   UNL     1      47.804   6.227  18.975  0.00  0.00    +0.000 A 
BRANCH  11  13
ATOM     13  C   UNL     1      47.572   8.092  20.567  0.00  0.00    +0.000 C 
ATOM     14  N   UNL     1      47.188   9.150  20.843  0.00  0.00    +0.000 NA
ENDBRANCH  11  13
ENDBRANCH   3   7
BRANCH   1  16
ATOM     15  C   UNL     1      45.283   4.698  13.468  0.00  0.00    +0.000 C 
ATOM     16  C   UNL     1      46.449   5.100  14.007  0.00  0.00    +0.000 C 
BRANCH  15  18
ATOM     17  C   UNL     1      43.020   5.275  12.602  0.00  0.00    +0.000 C 
ATOM     18  C   UNL     1      44.540   5.403  12.338  0.00  0.00    +0.000 C 
ATOM     19  C   UNL     1      44.872   6.914  12.407  0.00  0.00    +0.000 C 
BRANCH  18  20
ATOM     20  C   UNL     1      44.977   4.835  10.970  0.00  0.00    +0.000 A 
ATOM     21  C   UNL     1      45.672   5.609  10.020  0.00  0.00    +0.000 A 
ATOM     22  C   UNL     1      46.006   5.089   8.766  0.00  0.00    +0.000 A 
ATOM     23  C   UNL     1      45.652   3.788   8.440  0.00  0.00    +0.000 A 
ATOM     24  F   UNL     1      45.966   3.321   7.224  0.00  0.00    +0.000 F 
ATOM     25  C   UNL     1      44.973   2.993   9.358  0.00  0.00    +0.000 A 
ATOM     26 CL   UNL     1      44.519   1.382   8.954  0.00  0.00    +0.000 Cl
ATOM     27  C   UNL     1      44.641   3.511  10.614  0.00  0.00    +0.000 A 
ENDBRANCH  18  20
ENDBRANCH  15  18
ENDBRANCH   1  16
TORSDOF 5
ENDMDL
MODEL 5
REMARK VINA RESULT:    -6.974      4.006      8.735
REMARK INTER + INTRA:          -9.880
REMARK INTER:                  -9.089
REMARK INTRA:                  -0.790
REMARK UNBOUND:                -0.867
REMARK  Name = 
REMARK  7 active torsions:
REMARK  status: ('A' for Active; 'I' for Inactive)
REMARK    1  A    between atoms: C_1  and  C_2
REMARK    2  A    between atoms: C_2  and  C_3
REMARK    3  A    between atoms: C_2  and  C_4
REMARK    4  A    between atoms: C_2  and  C_20
REMARK    5  A    between atoms: C_5  and  C_6
REMARK    6  A    between atoms: C_8  and  C_9
REMARK    7  A    between atoms: C_13  and  C_14
REMARK                            x       y       z     vdW  Elec       q    Type
REMARK                         _______ _______ _______ _____ _____    ______ ____
ROOT
ATOM      1  C   UNL     1      47.093   7.283  12.995  0.00  0.00    +0.000 A 
ATOM      2  C   UNL     1      46.747   6.193  12.202  0.00  0.00    +0.000 A 
ATOM      3  C   UNL     1      45.624   6.264  11.362  0.00  0.00    +0.000 A 
ATOM      4  C   UNL     1      44.887   7.456  11.389  0.00  0.00    +0.000 A 
ATOM      5  C   UNL     1      45.287   8.485  12.225  0.00  0.00    +0.000 A 
ATOM      6  N   UNL     1      46.371   8.423  13.019  0.00  0.00    +0.000 NA
ENDROOT
BRANCH   3   7
ATOM      7  C   UNL     1      45.242   5.137  10.482  0.00  0.00    +0.000 A 
ATOM      8  C   UNL     1      44.240   4.224  10.829  0.00  0.00    +0.000 A 
ATOM      9  N   UNL     1      43.836   3.176  10.067  0.00  0.00    +0.000 NA
ATOM     10  C   UNL     1      44.467   3.005   8.886  0.00  0.00    +0.000 A 
ATOM     11  C   UNL     1      45.476   3.836   8.433  0.00  0.00    +0.000 A 
ATOM     12  C   UNL     1      45.859   4.913   9.240  0.00  0.00    +0.000 A 
BRANCH  11  13
ATOM     13  C   UNL     1      46.103   3.595   7.173  0.00  0.00    +0.000 C 
ATOM     14  N   UNL     1      46.617   3.391   6.154  0.00  0.00    +0.000 NA
ENDBRANCH  11  13
ENDBRANCH   3   7
BRANCH   1  16
ATOM     15  C   UNL     1      48.303   7.537  15.145  0.00  0.00    +0.000 C 
ATOM     16  C   UNL     1      48.299   7.230  13.835  0.00  0.00    +0.000 C 
BRANCH  15  18
ATOM     17  C   UNL     1      50.745   8.020  15.248  0.00  0.00    +0.000 C 
ATOM     18  C   UNL     1      49.526   7.512  16.056  0.00  0.00    +0.000 C 
ATOM     19  C   UNL     1      49.301   8.532  17.198  0.00  0.00    +0.000 C 
BRANCH  18  20
ATOM     20  C   UNL     1      49.726   6.100  16.650  0.00  0.00    +0.000 A 
ATOM     21  C   UNL     1      50.996   5.605  17.006  0.00  0.00    +0.000 A 
ATOM     22  C   UNL     1      51.158   4.303  17.486  0.00  0.00    +0.000 A 
ATOM     23  C   UNL     1      50.054   3.473  17.620  0.00  0.00    +0.000 A 
ATOM     24  F   UNL     1      50.239   2.222  18.065  0.00  0.00    +0.000 F 
ATOM     25  C   UNL     1      48.784   3.932  17.287  0.00  0.00    +0.000 A 
ATOM     26 CL   UNL     1      47.412   2.903  17.438  0.00  0.00    +0.000 Cl
ATOM     27  C   UNL     1      48.621   5.236  16.808  0.00  0.00    +0.000 A 
ENDBRANCH  18  20
ENDBRANCH  15  18
ENDBRANCH   1  16
TORSDOF 5
ENDMDL
MODEL 6
REMARK VINA RESULT:    -6.897      2.618      3.912
REMARK INTER + INTRA:          -9.780
REMARK INTER:                  -8.868
REMARK INTRA:                  -0.912
REMARK UNBOUND:                -0.867
REMARK  Name = 
REMARK  7 active torsions:
REMARK  status: ('A' for Active; 'I' for Inactive)
REMARK    1  A    between atoms: C_1  and  C_2
REMARK    2  A    between atoms: C_2  and  C_3
REMARK    3  A    between atoms: C_2  and  C_4
REMARK    4  A    between atoms: C_2  and  C_20
REMARK    5  A    between atoms: C_5  and  C_6
REMARK    6  A    between atoms: C_8  and  C_9
REMARK    7  A    between atoms: C_13  and  C_14
REMARK                            x       y       z     vdW  Elec       q    Type
REMARK                         _______ _______ _______ _____ _____    ______ ____
ROOT
ATOM      1  C   UNL     1      47.489   4.189  15.089  0.00  0.00    +0.000 A 
ATOM      2  C   UNL     1      47.492   5.032  16.196  0.00  0.00    +0.000 A 
ATOM      3  C   UNL     1      47.895   4.543  17.449  0.00  0.00    +0.000 A 
ATOM      4  C   UNL     1      48.261   3.193  17.515  0.00  0.00    +0.000 A 
ATOM      5  C   UNL     1      48.207   2.416  16.369  0.00  0.00    +0.000 A 
ATOM      6  N   UNL     1      47.836   2.887  15.165  0.00  0.00    +0.000 NA
ENDROOT
BRANCH   3   7
ATOM      7  C   UNL     1      47.940   5.417  18.643  0.00  0.00    +0.000 A 
ATOM      8  C   UNL     1      48.308   4.939  19.906  0.00  0.00    +0.000 A 
ATOM      9  N   UNL     1      48.378   5.686  21.037  0.00  0.00    +0.000 NA
ATOM     10  C   UNL     1      48.054   6.992  20.923  0.00  0.00    +0.000 A 
ATOM     11  C   UNL     1      47.671   7.581  19.733  0.00  0.00    +0.000 A 
ATOM     12  C   UNL     1      47.620   6.784  18.585  0.00  0.00    +0.000 A 
BRANCH  11  13
ATOM     13  C   UNL     1      47.338   8.970  19.685  0.00  0.00    +0.000 C 
ATOM     14  N   UNL     1      47.065  10.096  19.656  0.00  0.00    +0.000 NA
ENDBRANCH  11  13
ENDBRANCH   3   7
BRANCH   1  16
ATOM     15  C   UNL     1      46.028   5.467  13.545  0.00  0.00    +0.000 C 
ATOM     16  C   UNL     1      47.120   4.712  13.765  0.00  0.00    +0.000 C 
BRANCH  15  18
ATOM     17  C   UNL     1      44.507   7.098  12.436  0.00  0.00    +0.000 C 
ATOM     18  C   UNL     1      45.593   6.022  12.192  0.00  0.00    +0.000 C 
ATOM     19  C   UNL     1      46.800   6.754  11.557  0.00  0.00    +0.000 C 
BRANCH  18  20
ATOM     20  C   UNL     1      45.130   4.878  11.264  0.00  0.00    +0.000 A 
ATOM     21  C   UNL     1      44.295   3.836  11.712  0.00  0.00    +0.000 A 
ATOM     22  C   UNL     1      43.937   2.780  10.868  0.00  0.00    +0.000 A 
ATOM     23  C   UNL     1      44.406   2.748   9.563  0.00  0.00    +0.000 A 
ATOM     24  F   UNL     1      44.064   1.715   8.781  0.00  0.00    +0.000 F 
ATOM     25  C   UNL     1      45.226   3.766   9.085  0.00  0.00    +0.000 A 
ATOM     26 CL   UNL     1      45.822   3.725   7.471  0.00  0.00    +0.000 Cl
ATOM     27  C   UNL     1      45.582   4.824   9.928  0.00  0.00    +0.000 A 
ENDBRANCH  18  20
ENDBRANCH  15  18
ENDBRANCH   1  16
TORSDOF 5
ENDMDL
MODEL 7
REMARK VINA RESULT:    -6.772      4.250      8.654
REMARK INTER + INTRA:          -9.618
REMARK INTER:                  -8.717
REMARK INTRA:                  -0.901
REMARK UNBOUND:                -0.867
REMARK  Name = 
REMARK  7 active torsions:
REMARK  status: ('A' for Active; 'I' for Inactive)
REMARK    1  A    between atoms: C_1  and  C_2
REMARK    2  A    between atoms: C_2  and  C_3
REMARK    3  A    between atoms: C_2  and  C_4
REMARK    4  A    between atoms: C_2  and  C_20
REMARK    5  A    between atoms: C_5  and  C_6
REMARK    6  A    between atoms: C_8  and  C_9
REMARK    7  A    between atoms: C_13  and  C_14
REMARK                            x       y       z     vdW  Elec       q    Type
REMARK                         _______ _______ _______ _____ _____    ______ ____
ROOT
ATOM      1  C   UNL     1      48.456   7.002  14.261  0.00  0.00    +0.000 A 
ATOM      2  C   UNL     1      47.352   6.301  13.785  0.00  0.00    +0.000 A 
ATOM      3  C   UNL     1      46.769   6.658  12.559  0.00  0.00    +0.000 A 
ATOM      4  C   UNL     1      47.339   7.741  11.878  0.00  0.00    +0.000 A 
ATOM      5  C   UNL     1      48.424   8.400  12.432  0.00  0.00    +0.000 A 
ATOM      6  N   UNL     1      48.993   8.049  13.600  0.00  0.00    +0.000 NA
ENDROOT
BRANCH   3   7
ATOM      7  C   UNL     1      45.613   5.917  12.007  0.00  0.00    +0.000 A 
ATOM      8  C   UNL     1      44.421   5.752  12.721  0.00  0.00    +0.000 A 
ATOM      9  N   UNL     1      43.322   5.093  12.272  0.00  0.00    +0.000 NA
ATOM     10  C   UNL     1      43.403   4.550  11.039  0.00  0.00    +0.000 A 
ATOM     11  C   UNL     1      44.525   4.641  10.237  0.00  0.00    +0.000 A 
ATOM     12  C   UNL     1      45.635   5.336  10.728  0.00  0.00    +0.000 A 
BRANCH  11  13
ATOM     13  C   UNL     1      44.542   4.039   8.941  0.00  0.00    +0.000 C 
ATOM     14  N   UNL     1      44.564   3.558   7.887  0.00  0.00    +0.000 NA
ENDBRANCH  11  13
ENDBRANCH   3   7
BRANCH   1  16
ATOM     15  C   UNL     1      48.480   5.879  16.472  0.00  0.00    +0.000 C 
ATOM     16  C   UNL     1      49.101   6.596  15.518  0.00  0.00    +0.000 C 
BRANCH  15  18
ATOM     17  C   UNL     1      49.914   6.631  18.365  0.00  0.00    +0.000 C 
ATOM     18  C   UNL     1      49.097   5.444  17.797  0.00  0.00    +0.000 C 
ATOM     19  C   UNL     1      47.951   5.179  18.803  0.00  0.00    +0.000 C 
BRANCH  18  20
ATOM     20  C   UNL     1      49.931   4.158  17.606  0.00  0.00    +0.000 A 
ATOM     21  C   UNL     1      49.357   2.944  17.181  0.00  0.00    +0.000 A 
ATOM     22  C   UNL     1      50.122   1.780  17.072  0.00  0.00    +0.000 A 
ATOM     23  C   UNL     1      51.473   1.807  17.385  0.00  0.00    +0.000 A 
ATOM     24  F   UNL     1      52.180   0.672  17.291  0.00  0.00    +0.000 F 
ATOM     25  C   UNL     1      52.075   2.992  17.800  0.00  0.00    +0.000 A 
ATOM     26 CL   UNL     1      53.748   3.030  18.203  0.00  0.00    +0.000 Cl
ATOM     27  C   UNL     1      51.311   4.158  17.907  0.00  0.00    +0.000 A 
ENDBRANCH  18  20
ENDBRANCH  15  18
ENDBRANCH   1  16
TORSDOF 5
ENDMDL
MODEL 8
REMARK VINA RESULT:    -6.528      1.668      2.233
REMARK INTER + INTRA:          -9.304
REMARK INTER:                  -8.469
REMARK INTRA:                  -0.835
REMARK UNBOUND:                -0.867
REMARK  Name = 
REMARK  7 active torsions:
REMARK  status: ('A' for Active; 'I' for Inactive)
REMARK    1  A    between atoms: C_1  and  C_2
REMARK    2  A    between atoms: C_2  and  C_3
REMARK    3  A    between atoms: C_2  and  C_4
REMARK    4  A    between atoms: C_2  and  C_20
REMARK    5  A    between atoms: C_5  and  C_6
REMARK    6  A    between atoms: C_8  and  C_9
REMARK    7  A    between atoms: C_13  and  C_14
REMARK                            x       y       z     vdW  Elec       q    Type
REMARK                         _______ _______ _______ _____ _____    ______ ____
ROOT
ATOM      1  C   UNL     1      47.276   5.839  13.837  0.00  0.00    +0.000 A 
ATOM      2  C   UNL     1      47.601   5.416  15.122  0.00  0.00    +0.000 A 
ATOM      3  C   UNL     1      48.688   5.994  15.798  0.00  0.00    +0.000 A 
ATOM      4  C   UNL     1      49.412   6.976  15.110  0.00  0.00    +0.000 A 
ATOM      5  C   UNL     1      49.036   7.323  13.823  0.00  0.00    +0.000 A 
ATOM      6  N   UNL     1      47.985   6.781  13.181  0.00  0.00    +0.000 NA
ENDROOT
BRANCH   3   7
ATOM      7  C   UNL     1      49.046   5.590  17.176  0.00  0.00    +0.000 A 
ATOM      8  C   UNL     1      48.127   5.639  18.231  0.00  0.00    +0.000 A 
ATOM      9  N   UNL     1      48.387   5.277  19.513  0.00  0.00    +0.000 NA
ATOM     10  C   UNL     1      49.638   4.847  19.781  0.00  0.00    +0.000 A 
ATOM     11  C   UNL     1      50.635   4.757  18.827  0.00  0.00    +0.000 A 
ATOM     12  C   UNL     1      50.329   5.129  17.514  0.00  0.00    +0.000 A 
BRANCH  11  13
ATOM     13  C   UNL     1      51.939   4.295  19.181  0.00  0.00    +0.000 C 
ATOM     14  N   UNL     1      53.000   3.920  19.458  0.00  0.00    +0.000 NA
ENDBRANCH  11  13
ENDBRANCH   3   7
BRANCH   1  16
ATOM     15  C   UNL     1      45.208   6.021  12.480  0.00  0.00    +0.000 C 
ATOM     16  C   UNL     1      46.106   5.275  13.148  0.00  0.00    +0.000 C 
BRANCH  15  18
ATOM     17  C   UNL     1      42.987   4.947  12.826  0.00  0.00    +0.000 C 
ATOM     18  C   UNL     1      43.972   5.488  11.761  0.00  0.00    +0.000 C 
ATOM     19  C   UNL     1      43.262   6.677  11.071  0.00  0.00    +0.000 C 
BRANCH  18  20
ATOM     20  C   UNL     1      44.376   4.436  10.705  0.00  0.00    +0.000 A 
ATOM     21  C   UNL     1      43.971   3.090  10.789  0.00  0.00    +0.000 A 
ATOM     22  C   UNL     1      44.398   2.145   9.851  0.00  0.00    +0.000 A 
ATOM     23  C   UNL     1      45.235   2.529   8.814  0.00  0.00    +0.000 A 
ATOM     24  F   UNL     1      45.646   1.599   7.940  0.00  0.00    +0.000 F 
ATOM     25  C   UNL     1      45.647   3.853   8.696  0.00  0.00    +0.000 A 
ATOM     26 CL   UNL     1      46.697   4.333   7.418  0.00  0.00    +0.000 Cl
ATOM     27  C   UNL     1      45.218   4.800   9.631  0.00  0.00    +0.000 A 
ENDBRANCH  18  20
ENDBRANCH  15  18
ENDBRANCH   1  16
TORSDOF 5
ENDMDL
MODEL 9
REMARK VINA RESULT:    -6.450      3.069      5.472
REMARK INTER + INTRA:          -9.203
REMARK INTER:                  -8.251
REMARK INTRA:                  -0.952
REMARK UNBOUND:                -0.867
REMARK  Name = 
REMARK  7 active torsions:
REMARK  status: ('A' for Active; 'I' for Inactive)
REMARK    1  A    between atoms: C_1  and  C_2
REMARK    2  A    between atoms: C_2  and  C_3
REMARK    3  A    between atoms: C_2  and  C_4
REMARK    4  A    between atoms: C_2  and  C_20
REMARK    5  A    between atoms: C_5  and  C_6
REMARK    6  A    between atoms: C_8  and  C_9
REMARK    7  A    between atoms: C_13  and  C_14
REMARK                            x       y       z     vdW  Elec       q    Type
REMARK                         _______ _______ _______ _____ _____    ______ ____
ROOT
ATOM      1  C   UNL     1      47.562   5.994  13.422  0.00  0.00    +0.000 A 
ATOM      2  C   UNL     1      48.319   6.732  12.518  0.00  0.00    +0.000 A 
ATOM      3  C   UNL     1      49.450   7.437  12.961  0.00  0.00    +0.000 A 
ATOM      4  C   UNL     1      49.743   7.369  14.329  0.00  0.00    +0.000 A 
ATOM      5  C   UNL     1      48.924   6.630  15.165  0.00  0.00    +0.000 A 
ATOM      6  N   UNL     1      47.849   5.942  14.740  0.00  0.00    +0.000 NA
ENDROOT
BRANCH   3   7
ATOM      7  C   UNL     1      50.297   8.208  12.024  0.00  0.00    +0.000 A 
ATOM      8  C   UNL     1      50.345   9.607  12.038  0.00  0.00    +0.000 A 
ATOM      9  N   UNL     1      51.105  10.373  11.214  0.00  0.00    +0.000 NA
ATOM     10  C   UNL     1      51.863   9.722  10.307  0.00  0.00    +0.000 A 
ATOM     11  C   UNL     1      51.899   8.345  10.191  0.00  0.00    +0.000 A 
ATOM     12  C   UNL     1      51.112   7.586  11.063  0.00  0.00    +0.000 A 
BRANCH  11  13
ATOM     13  C   UNL     1      52.724   7.721   9.205  0.00  0.00    +0.000 C 
ATOM     14  N   UNL     1      53.388   7.205   8.408  0.00  0.00    +0.000 NA
ENDBRANCH  11  13
ENDBRANCH   3   7
BRANCH   1  16
ATOM     15  C   UNL     1      45.554   5.645  12.008  0.00  0.00    +0.000 C 
ATOM     16  C   UNL     1      46.409   5.211  12.952  0.00  0.00    +0.000 C 
BRANCH  15  18
ATOM     17  C   UNL     1      43.708   4.116  12.685  0.00  0.00    +0.000 C 
ATOM     18  C   UNL     1      44.338   4.880  11.495  0.00  0.00    +0.000 C 
ATOM     19  C   UNL     1      43.281   5.908  11.025  0.00  0.00    +0.000 C 
BRANCH  18  20
ATOM     20  C   UNL     1      44.736   3.965  10.316  0.00  0.00    +0.000 A 
ATOM     21  C   UNL     1      44.357   2.610  10.252  0.00  0.00    +0.000 A 
ATOM     22  C   UNL     1      44.779   1.789   9.203  0.00  0.00    +0.000 A 
ATOM     23  C   UNL     1      45.585   2.306   8.200  0.00  0.00    +0.000 A 
ATOM     24  F   UNL     1      45.992   1.491   7.216  0.00  0.00    +0.000 F 
ATOM     25  C   UNL     1      45.971   3.643   8.227  0.00  0.00    +0.000 A 
ATOM     26 CL   UNL     1      46.983   4.287   6.993  0.00  0.00    +0.000 Cl
ATOM     27  C   UNL     1      45.547   4.467   9.275  0.00  0.00    +0.000 A 
ENDBRANCH  18  20
ENDBRANCH  15  18
ENDBRANCH   1  16
TORSDOF 5
ENDMDL
