MODEL 1
REMARK VINA RESULT:    -8.467      0.000      0.000
REMARK INTER + INTRA:         -11.572
REMARK INTER:                 -11.189
REMARK INTRA:                  -0.382
REMARK UNBOUND:                -0.382
REMARK  Name = 
REMARK  6 active torsions:
REMARK  status: ('A' for Active; 'I' for Inactive)
REMARK    1  A    between atoms: N_1  and  S_2
REMARK    2  A    between atoms: S_2  and  C_5
REMARK    3  A    between atoms: C_8  and  N_9
REMARK    4  A    between atoms: N_9  and  C_10
REMARK    5  A    between atoms: C_10  and  C_11
REMARK    6  A    between atoms: C_16  and  C_17
REMARK                            x       y       z     vdW  Elec       q    Type
REMARK                         _______ _______ _______ _____ _____    ______ ____
ROOT
ATOM      1  N   UNL     1      47.562   6.716  12.244  0.00  0.00    +0.000 N 
ATOM      2  H   UNL     1      47.884   6.025  11.571  0.00  0.00    +0.000 HD
ENDROOT
BRANCH   1   6
ATOM      3  C   UNL     1      47.471   4.906  15.915  0.00  0.00    +0.000 A 
ATOM      4  C   UNL     1      48.241   6.032  15.728  0.00  0.00    +0.000 A 
ATOM      5  N   UNL     1      48.284   6.678  14.530  0.00  0.00    +0.000 NA
ATOM      6  C   UNL     1      47.530   6.160  13.531  0.00  0.00    +0.000 A 
ATOM      7  C   UNL     1      46.754   5.014  13.760  0.00  0.00    +0.000 A 
ATOM      8  N   UNL     1      46.688   4.362  14.947  0.00  0.00    +0.000 NA
BRANCH   3   9
ATOM      9  S   UNL     1      47.481   4.044  17.459  0.00  0.00    +0.000 S 
ATOM     10  O   UNL     1      48.844   3.969  17.939  0.00  0.00    +0.000 OA
ATOM     11  O   UNL     1      46.647   2.867  17.361  0.00  0.00    +0.000 OA
BRANCH   9  12
ATOM     12  N   UNL     1      46.702   5.093  18.519  0.00  0.00    +0.000 NA
ATOM     13  H   UNL     1      46.397   5.932  18.023  0.00  0.00    +0.000 HD
ATOM     14  H   UNL     1      47.300   5.274  19.328  0.00  0.00    +0.000 HD
ENDBRANCH   9  12
ENDBRANCH   3   9
ENDBRANCH   1   6
BRANCH   1  15
ATOM     15  C   UNL     1      46.330   7.361  11.813  0.00  0.00    +0.000 C 
BRANCH  15  16
ATOM     16  C   UNL     1      45.414   6.315  11.212  0.00  0.00    +0.000 A 
ATOM     17  C   UNL     1      44.065   6.253  11.571  0.00  0.00    +0.000 A 
ATOM     18  C   UNL     1      43.246   5.294  10.992  0.00  0.00    +0.000 A 
ATOM     19  F   UNL     1      41.953   5.239  11.341  0.00  0.00    +0.000 F 
ATOM     20  C   UNL     1      43.737   4.385  10.056  0.00  0.00    +0.000 A 
ATOM     21  C   UNL     1      45.089   4.403   9.677  0.00  0.00    +0.000 A 
ATOM     22  C   UNL     1      45.907   5.389  10.269  0.00  0.00    +0.000 A 
BRANCH  21  23
ATOM     23  C   UNL     1      45.637   3.421   8.714  0.00  0.00    +0.000 A 
ATOM     24  C   UNL     1      46.255   3.808   7.514  0.00  0.00    +0.000 A 
ATOM     25  C   UNL     1      46.788   2.854   6.645  0.00  0.00    +0.000 A 
ATOM     26  C   UNL     1      46.681   1.520   6.987  0.00  0.00    +0.000 A 
ATOM     27  N   UNL     1      46.090   1.089   8.118  0.00  0.00    +0.000 NA
ATOM     28  C   UNL     1      45.592   2.043   8.945  0.00  0.00    +0.000 A 
ENDBRANCH  21  23
ENDBRANCH  15  16
ENDBRANCH   1  15
TORSDOF 6
ENDMDL
MODEL 2
REMARK VINA RESULT:    -8.274      4.864      7.577
REMARK INTER + INTRA:         -11.316
REMARK INTER:                 -10.629
REMARK INTRA:                  -0.687
REMARK UNBOUND:                -0.382
REMARK  Name = 
REMARK  6 active torsions:
REMARK  status: ('A' for Active; 'I' for Inactive)
REMARK    1  A    between atoms: N_1  and  S_2
REMARK    2  A    between atoms: S_2  and  C_5
REMARK    3  A    between atoms: C_8  and  N_9
REMARK    4  A    between atoms: N_9  and  C_10
REMARK    5  A    between atoms: C_10  and  C_11
REMARK    6  A    between atoms: C_16  and  C_17
REMARK                            x       y       z     vdW  Elec       q    Type
REMARK                         _______ _______ _______ _____ _____    ______ ____
ROOT
ATOM      1  N   UNL     1      43.713   4.079  10.665  0.00  0.00    +0.000 N 
ATOM      2  H   UNL     1      43.775   3.448  11.460  0.00  0.00    +0.000 HD
ENDROOT
BRANCH   1   6
ATOM      3  C   UNL     1      46.159   2.721   7.677  0.00  0.00    +0.000 A 
ATOM      4  C   UNL     1      45.895   4.068   7.783  0.00  0.00    +0.000 A 
ATOM      5  N   UNL     1      45.104   4.565   8.774  0.00  0.00    +0.000 NA
ATOM      6  C   UNL     1      44.592   3.670   9.653  0.00  0.00    +0.000 A 
ATOM      7  C   UNL     1      44.888   2.305   9.516  0.00  0.00    +0.000 A 
ATOM      8  N   UNL     1      45.681   1.790   8.544  0.00  0.00    +0.000 NA
BRANCH   3   9
ATOM      9  S   UNL     1      47.134   2.089   6.344  0.00  0.00    +0.000 S 
ATOM     10  O   UNL     1      46.693   2.708   5.112  0.00  0.00    +0.000 OA
ATOM     11  O   UNL     1      47.253   0.653   6.470  0.00  0.00    +0.000 OA
BRANCH   9  12
ATOM     12  N   UNL     1      48.670   2.719   6.624  0.00  0.00    +0.000 NA
ATOM     13  H   UNL     1      49.326   1.965   6.831  0.00  0.00    +0.000 HD
ATOM     14  H   UNL     1      48.618   3.445   7.341  0.00  0.00    +0.000 HD
ENDBRANCH   9  12
ENDBRANCH   3   9
ENDBRANCH   1   6
BRANCH   1  15
ATOM     15  C   UNL     1      43.833   5.473  11.069  0.00  0.00    +0.000 C 
BRANCH  15  16
ATOM     16  C   UNL     1      45.065   5.628  11.936  0.00  0.00    +0.000 A 
ATOM     17  C   UNL     1      45.266   4.808  13.049  0.00  0.00    +0.000 A 
ATOM     18  C   UNL     1      46.412   4.962  13.815  0.00  0.00    +0.000 A 
ATOM     19  F   UNL     1      46.598   4.173  14.883  0.00  0.00    +0.000 F 
ATOM     20  C   UNL     1      47.374   5.920  13.502  0.00  0.00    +0.000 A 
ATOM     21  C   UNL     1      47.207   6.775  12.400  0.00  0.00    +0.000 A 
ATOM     22  C   UNL     1      46.040   6.600  11.627  0.00  0.00    +0.000 A 
BRANCH  21  23
ATOM     23  C   UNL     1      48.199   7.824  12.075  0.00  0.00    +0.000 A 
ATOM     24  C   UNL     1      49.538   7.527  11.774  0.00  0.00    +0.000 A 
ATOM     25  C   UNL     1      50.437   8.541  11.442  0.00  0.00    +0.000 A 
ATOM     26  C   UNL     1      49.983   9.847  11.430  0.00  0.00    +0.000 A 
ATOM     27  N   UNL     1      48.714  10.193  11.719  0.00  0.00    +0.000 NA
ATOM     28  C   UNL     1      47.863   9.181  12.028  0.00  0.00    +0.000 A 
ENDBRANCH  21  23
ENDBRANCH  15  16
ENDBRANCH   1  15
TORSDOF 6
ENDMDL
MODEL 3
REMARK VINA RESULT:    -8.229      4.595      8.177
REMARK INTER + INTRA:         -11.257
REMARK INTER:                 -10.707
REMARK INTRA:                  -0.551
REMARK UNBOUND:                -0.382
REMARK  Name = 
REMARK  6 active torsions:
REMARK  status: ('A' for Active; 'I' for Inactive)
REMARK    1  A    between atoms: N_1  and  S_2
REMARK    2  A    between atoms: S_2  and  C_5
REMARK    3  A    between atoms: C_8  and  N_9
REMARK    4  A    between atoms: N_9  and  C_10
REMARK    5  A    between atoms: C_10  and  C_11
REMARK    6  A    between atoms: C_16  and  C_17
REMARK                            x       y       z     vdW  Elec       q    Type
REMARK                         _______ _______ _______ _____ _____    ______ ____
ROOT
ATOM      1  N   UNL     1      44.328   4.729  10.701  0.00  0.00    +0.000 N 
ATOM      2  H   UNL     1      43.339   4.870  10.515  0.00  0.00    +0.000 HD
ENDROOT
BRANCH   1   6
ATOM      3  C   UNL     1      46.241   2.845   7.611  0.00  0.00    +0.000 A 
ATOM      4  C   UNL     1      45.548   2.101   8.541  0.00  0.00    +0.000 A 
ATOM      5  N   UNL     1      44.881   2.688   9.572  0.00  0.00    +0.000 NA
ATOM      6  C   UNL     1      44.928   4.040   9.638  0.00  0.00    +0.000 A 
ATOM      7  C   UNL     1      45.639   4.765   8.670  0.00  0.00    +0.000 A 
ATOM      8  N   UNL     1      46.302   4.202   7.629  0.00  0.00    +0.000 NA
BRANCH   3   9
ATOM      9  S   UNL     1      47.156   2.059   6.319  0.00  0.00    +0.000 S 
ATOM     10  O   UNL     1      46.722   2.599   5.048  0.00  0.00    +0.000 OA
ATOM     11  O   UNL     1      47.206   0.634   6.559  0.00  0.00    +0.000 OA
BRANCH   9  12
ATOM     12  N   UNL     1      48.727   2.631   6.522  0.00  0.00    +0.000 NA
ATOM     13  H   UNL     1      49.395   1.865   6.420  0.00  0.00    +0.000 HD
ATOM     14  H   UNL     1      48.797   3.139   7.406  0.00  0.00    +0.000 HD
ENDBRANCH   9  12
ENDBRANCH   3   9
ENDBRANCH   1   6
BRANCH   1  15
ATOM     15  C   UNL     1      44.556   4.158  12.021  0.00  0.00    +0.000 C 
BRANCH  15  16
ATOM     16  C   UNL     1      45.703   4.894  12.683  0.00  0.00    +0.000 A 
ATOM     17  C   UNL     1      46.304   5.990  12.060  0.00  0.00    +0.000 A 
ATOM     18  C   UNL     1      47.342   6.655  12.696  0.00  0.00    +0.000 A 
ATOM     19  F   UNL     1      47.916   7.706  12.093  0.00  0.00    +0.000 F 
ATOM     20  C   UNL     1      47.805   6.255  13.949  0.00  0.00    +0.000 A 
ATOM     21  C   UNL     1      47.238   5.150  14.605  0.00  0.00    +0.000 A 
ATOM     22  C   UNL     1      46.178   4.490  13.947  0.00  0.00    +0.000 A 
BRANCH  21  23
ATOM     23  C   UNL     1      47.742   4.685  15.917  0.00  0.00    +0.000 A 
ATOM     24  C   UNL     1      47.500   3.390  16.400  0.00  0.00    +0.000 A 
ATOM     25  C   UNL     1      48.018   2.978  17.630  0.00  0.00    +0.000 A 
ATOM     26  C   UNL     1      48.762   3.879  18.366  0.00  0.00    +0.000 A 
ATOM     27  N   UNL     1      49.017   5.138  17.959  0.00  0.00    +0.000 NA
ATOM     28  C   UNL     1      48.508   5.502  16.755  0.00  0.00    +0.000 A 
ENDBRANCH  21  23
ENDBRANCH  15  16
ENDBRANCH   1  15
TORSDOF 6
ENDMDL
MODEL 4
REMARK VINA RESULT:    -7.785      1.880      2.399
REMARK INTER + INTRA:         -10.670
REMARK INTER:                 -10.152
REMARK INTRA:                  -0.518
REMARK UNBOUND:                -0.382
REMARK  Name = 
REMARK  6 active torsions:
REMARK  status: ('A' for Active; 'I' for Inactive)
REMARK    1  A    between atoms: N_1  and  S_2
REMARK    2  A    between atoms: S_2  and  C_5
REMARK    3  A    between atoms: C_8  and  N_9
REMARK    4  A    between atoms: N_9  and  C_10
REMARK    5  A    between atoms: C_10  and  C_11
REMARK    6  A    between atoms: C_16  and  C_17
REMARK                            x       y       z     vdW  Elec       q    Type
REMARK                         _______ _______ _______ _____ _____    ______ ____
ROOT
ATOM      1  N   UNL     1      46.483   4.127  14.483  0.00  0.00    +0.000 N 
ATOM      2  H   UNL     1      45.707   3.476  14.564  0.00  0.00    +0.000 HD
ENDROOT
BRANCH   1   6
ATOM      3  C   UNL     1      48.428   4.613  18.052  0.00  0.00    +0.000 A 
ATOM      4  C   UNL     1      47.646   3.498  17.847  0.00  0.00    +0.000 A 
ATOM      5  N   UNL     1      46.999   3.286  16.668  0.00  0.00    +0.000 NA
ATOM      6  C   UNL     1      47.164   4.224  15.705  0.00  0.00    +0.000 A 
ATOM      7  C   UNL     1      47.973   5.344  15.948  0.00  0.00    +0.000 A 
ATOM      8  N   UNL     1      48.635   5.570  17.110  0.00  0.00    +0.000 NA
BRANCH   3   9
ATOM      9  S   UNL     1      49.206   4.902  19.614  0.00  0.00    +0.000 S 
ATOM     10  O   UNL     1      48.787   6.196  20.108  0.00  0.00    +0.000 OA
ATOM     11  O   UNL     1      50.603   4.538  19.532  0.00  0.00    +0.000 OA
BRANCH   9  12
ATOM     12  N   UNL     1      48.483   3.785  20.645  0.00  0.00    +0.000 NA
ATOM     13  H   UNL     1      49.166   3.435  21.318  0.00  0.00    +0.000 HD
ATOM     14  H   UNL     1      48.019   3.059  20.096  0.00  0.00    +0.000 HD
ENDBRANCH   9  12
ENDBRANCH   3   9
ENDBRANCH   1   6
BRANCH   1  15
ATOM     15  C   UNL     1      46.069   5.395  13.898  0.00  0.00    +0.000 C 
BRANCH  15  16
ATOM     16  C   UNL     1      45.158   5.117  12.720  0.00  0.00    +0.000 A 
ATOM     17  C   UNL     1      43.810   5.481  12.757  0.00  0.00    +0.000 A 
ATOM     18  C   UNL     1      43.003   5.228  11.657  0.00  0.00    +0.000 A 
ATOM     19  F   UNL     1      41.709   5.578  11.698  0.00  0.00    +0.000 F 
ATOM     20  C   UNL     1      43.504   4.616  10.510  0.00  0.00    +0.000 A 
ATOM     21  C   UNL     1      44.850   4.221  10.435  0.00  0.00    +0.000 A 
ATOM     22  C   UNL     1      45.659   4.493  11.559  0.00  0.00    +0.000 A 
BRANCH  21  23
ATOM     23  C   UNL     1      45.392   3.534   9.241  0.00  0.00    +0.000 A 
ATOM     24  C   UNL     1      45.875   4.235   8.125  0.00  0.00    +0.000 A 
ATOM     25  C   UNL     1      46.407   3.553   7.029  0.00  0.00    +0.000 A 
ATOM     26  C   UNL     1      46.435   2.172   7.063  0.00  0.00    +0.000 A 
ATOM     27  N   UNL     1      45.977   1.446   8.101  0.00  0.00    +0.000 NA
ATOM     28  C   UNL     1      45.476   2.141   9.154  0.00  0.00    +0.000 A 
ENDBRANCH  21  23
ENDBRANCH  15  16
ENDBRANCH   1  15
TORSDOF 6
ENDMDL
MODEL 5
REMARK VINA RESULT:    -7.723      4.946      7.772
REMARK INTER + INTRA:         -10.588
REMARK INTER:                  -9.829
REMARK INTRA:                  -0.760
REMARK UNBOUND:                -0.382
REMARK  Name = 
REMARK  6 active torsions:
REMARK  status: ('A' for Active; 'I' for Inactive)
REMARK    1  A    between atoms: N_1  and  S_2
REMARK    2  A    between atoms: S_2  and  C_5
REMARK    3  A    between atoms: C_8  and  N_9
REMARK    4  A    between atoms: N_9  and  C_10
REMARK    5  A    between atoms: C_10  and  C_11
REMARK    6  A    between atoms: C_16  and  C_17
REMARK                            x       y       z     vdW  Elec       q    Type
REMARK                         _______ _______ _______ _____ _____    ______ ____
ROOT
ATOM      1  N   UNL     1      43.635   4.120  10.702  0.00  0.00    +0.000 N 
ATOM      2  H   UNL     1      42.672   3.814  10.591  0.00  0.00    +0.000 HD
ENDROOT
BRANCH   1   6
ATOM      3  C   UNL     1      46.081   2.774   7.708  0.00  0.00    +0.000 A 
ATOM      4  C   UNL     1      45.558   1.880   8.616  0.00  0.00    +0.000 A 
ATOM      5  N   UNL     1      44.724   2.281   9.614  0.00  0.00    +0.000 NA
ATOM      6  C   UNL     1      44.430   3.602   9.670  0.00  0.00    +0.000 A 
ATOM      7  C   UNL     1      44.977   4.483   8.723  0.00  0.00    +0.000 A 
ATOM      8  N   UNL     1      45.801   4.103   7.715  0.00  0.00    +0.000 NA
BRANCH   3   9
ATOM      9  S   UNL     1      47.215   2.242   6.459  0.00  0.00    +0.000 S 
ATOM     10  O   UNL     1      48.561   2.548   6.895  0.00  0.00    +0.000 OA
ATOM     11  O   UNL     1      46.729   2.648   5.160  0.00  0.00    +0.000 OA
BRANCH   9  12
ATOM     12  N   UNL     1      47.113   0.562   6.502  0.00  0.00    +0.000 NA
ATOM     13  H   UNL     1      47.960   0.149   6.110  0.00  0.00    +0.000 HD
ATOM     14  H   UNL     1      46.247   0.258   6.053  0.00  0.00    +0.000 HD
ENDBRANCH   9  12
ENDBRANCH   3   9
ENDBRANCH   1   6
BRANCH   1  15
ATOM     15  C   UNL     1      44.129   3.877  12.050  0.00  0.00    +0.000 C 
BRANCH  15  16
ATOM     16  C   UNL     1      45.042   5.017  12.450  0.00  0.00    +0.000 A 
ATOM     17  C   UNL     1      46.151   4.793  13.270  0.00  0.00    +0.000 A 
ATOM     18  C   UNL     1      46.979   5.854  13.606  0.00  0.00    +0.000 A 
ATOM     19  F   UNL     1      48.040   5.633  14.395  0.00  0.00    +0.000 F 
ATOM     20  C   UNL     1      46.732   7.146  13.146  0.00  0.00    +0.000 A 
ATOM     21  C   UNL     1      45.621   7.419  12.330  0.00  0.00    +0.000 A 
ATOM     22  C   UNL     1      44.794   6.327  11.991  0.00  0.00    +0.000 A 
BRANCH  21  23
ATOM     23  C   UNL     1      45.320   8.791  11.864  0.00  0.00    +0.000 A 
ATOM     24  C   UNL     1      46.157   9.882  12.145  0.00  0.00    +0.000 A 
ATOM     25  C   UNL     1      45.857  11.157  11.662  0.00  0.00    +0.000 A 
ATOM     26  C   UNL     1      44.708  11.322  10.911  0.00  0.00    +0.000 A 
ATOM     27  N   UNL     1      43.863  10.316  10.617  0.00  0.00    +0.000 NA
ATOM     28  C   UNL     1      44.190   9.088  11.094  0.00  0.00    +0.000 A 
ENDBRANCH  21  23
ENDBRANCH  15  16
ENDBRANCH   1  15
TORSDOF 6
ENDMDL
MODEL 6
REMARK VINA RESULT:    -7.599      4.411      7.745
REMARK INTER + INTRA:         -10.424
REMARK INTER:                  -9.763
REMARK INTRA:                  -0.661
REMARK UNBOUND:                -0.382
REMARK  Name = 
REMARK  6 active torsions:
REMARK  status: ('A' for Active; 'I' for Inactive)
REMARK    1  A    between atoms: N_1  and  S_2
REMARK    2  A    between atoms: S_2  and  C_5
REMARK    3  A    between atoms: C_8  and  N_9
REMARK    4  A    between atoms: N_9  and  C_10
REMARK    5  A    between atoms: C_10  and  C_11
REMARK    6  A    between atoms: C_16  and  C_17
REMARK                            x       y       z     vdW  Elec       q    Type
REMARK                         _______ _______ _______ _____ _____    ______ ____
ROOT
ATOM      1  N   UNL     1      43.729   4.098  10.785  0.00  0.00    +0.000 N 
ATOM      2  H   UNL     1      42.815   3.654  10.798  0.00  0.00    +0.000 HD
ENDROOT
BRANCH   1   6
ATOM      3  C   UNL     1      46.104   2.771   7.727  0.00  0.00    +0.000 A 
ATOM      4  C   UNL     1      45.631   1.876   8.662  0.00  0.00    +0.000 A 
ATOM      5  N   UNL     1      44.822   2.271   9.682  0.00  0.00    +0.000 NA
ATOM      6  C   UNL     1      44.501   3.586   9.733  0.00  0.00    +0.000 A 
ATOM      7  C   UNL     1      44.997   4.467   8.759  0.00  0.00    +0.000 A 
ATOM      8  N   UNL     1      45.795   4.094   7.729  0.00  0.00    +0.000 NA
BRANCH   3   9
ATOM      9  S   UNL     1      47.208   2.249   6.448  0.00  0.00    +0.000 S 
ATOM     10  O   UNL     1      48.566   2.520   6.868  0.00  0.00    +0.000 OA
ATOM     11  O   UNL     1      46.709   2.695   5.166  0.00  0.00    +0.000 OA
BRANCH   9  12
ATOM     12  N   UNL     1      47.077   0.571   6.452  0.00  0.00    +0.000 NA
ATOM     13  H   UNL     1      47.798   0.161   5.857  0.00  0.00    +0.000 HD
ATOM     14  H   UNL     1      46.122   0.300   6.208  0.00  0.00    +0.000 HD
ENDBRANCH   9  12
ENDBRANCH   3   9
ENDBRANCH   1   6
BRANCH   1  15
ATOM     15  C   UNL     1      44.364   4.070  12.095  0.00  0.00    +0.000 C 
BRANCH  15  16
ATOM     16  C   UNL     1      45.056   5.398  12.332  0.00  0.00    +0.000 A 
ATOM     17  C   UNL     1      44.552   6.577  11.777  0.00  0.00    +0.000 A 
ATOM     18  C   UNL     1      45.196   7.780  12.025  0.00  0.00    +0.000 A 
ATOM     19  F   UNL     1      44.709   8.907  11.488  0.00  0.00    +0.000 F 
ATOM     20  C   UNL     1      46.342   7.844  12.817  0.00  0.00    +0.000 A 
ATOM     21  C   UNL     1      46.890   6.681  13.383  0.00  0.00    +0.000 A 
ATOM     22  C   UNL     1      46.218   5.467  13.128  0.00  0.00    +0.000 A 
BRANCH  21  23
ATOM     23  C   UNL     1      48.128   6.723  14.194  0.00  0.00    +0.000 A 
ATOM     24  C   UNL     1      49.208   7.560  13.875  0.00  0.00    +0.000 A 
ATOM     25  C   UNL     1      50.347   7.595  14.682  0.00  0.00    +0.000 A 
ATOM     26  C   UNL     1      50.392   6.777  15.794  0.00  0.00    +0.000 A 
ATOM     27  N   UNL     1      49.391   5.946  16.145  0.00  0.00    +0.000 NA
ATOM     28  C   UNL     1      48.294   5.945  15.344  0.00  0.00    +0.000 A 
ENDBRANCH  21  23
ENDBRANCH  15  16
ENDBRANCH   1  15
TORSDOF 6
ENDMDL
MODEL 7
REMARK VINA RESULT:    -6.861      4.759      7.984
REMARK INTER + INTRA:          -9.449
REMARK INTER:                  -8.827
REMARK INTRA:                  -0.622
REMARK UNBOUND:                -0.382
REMARK  Name = 
REMARK  6 active torsions:
REMARK  status: ('A' for Active; 'I' for Inactive)
REMARK    1  A    between atoms: N_1  and  S_2
REMARK    2  A    between atoms: S_2  and  C_5
REMARK    3  A    between atoms: C_8  and  N_9
REMARK    4  A    between atoms: N_9  and  C_10
REMARK    5  A    between atoms: C_10  and  C_11
REMARK    6  A    between atoms: C_16  and  C_17
REMARK                            x       y       z     vdW  Elec       q    Type
REMARK                         _______ _______ _______ _____ _____    ______ ____
ROOT
ATOM      1  N   UNL     1      48.917   6.832  14.266  0.00  0.00    +0.000 N 
ATOM      2  H   UNL     1      49.334   7.287  13.458  0.00  0.00    +0.000 HD
ENDROOT
BRANCH   1   6
ATOM      3  C   UNL     1      45.339   5.246  13.067  0.00  0.00    +0.000 A 
ATOM      4  C   UNL     1      46.268   4.441  13.689  0.00  0.00    +0.000 A 
ATOM      5  N   UNL     1      47.461   4.932  14.122  0.00  0.00    +0.000 NA
ATOM      6  C   UNL     1      47.690   6.251  13.915  0.00  0.00    +0.000 A 
ATOM      7  C   UNL     1      46.717   7.041  13.283  0.00  0.00    +0.000 A 
ATOM      8  N   UNL     1      45.518   6.575  12.853  0.00  0.00    +0.000 NA
BRANCH   3   9
ATOM      9  S   UNL     1      43.823   4.574  12.452  0.00  0.00    +0.000 S 
ATOM     10  O   UNL     1      43.718   3.196  12.882  0.00  0.00    +0.000 OA
ATOM     11  O   UNL     1      43.655   4.949  11.066  0.00  0.00    +0.000 OA
BRANCH   9  12
ATOM     12  N   UNL     1      42.632   5.393  13.314  0.00  0.00    +0.000 NA
ATOM     13  H   UNL     1      42.721   6.400  13.166  0.00  0.00    +0.000 HD
ATOM     14  H   UNL     1      42.656   5.106  14.294  0.00  0.00    +0.000 HD
ENDBRANCH   9  12
ENDBRANCH   3   9
ENDBRANCH   1   6
BRANCH   1  15
ATOM     15  C   UNL     1      48.880   7.712  15.425  0.00  0.00    +0.000 C 
BRANCH  15  16
ATOM     16  C   UNL     1      49.068   6.881  16.678  0.00  0.00    +0.000 A 
ATOM     17  C   UNL     1      48.519   7.288  17.896  0.00  0.00    +0.000 A 
ATOM     18  C   UNL     1      48.692   6.498  19.023  0.00  0.00    +0.000 A 
ATOM     19  F   UNL     1      48.165   6.894  20.190  0.00  0.00    +0.000 F 
ATOM     20  C   UNL     1      49.406   5.302  18.972  0.00  0.00    +0.000 A 
ATOM     21  C   UNL     1      49.986   4.861  17.771  0.00  0.00    +0.000 A 
ATOM     22  C   UNL     1      49.793   5.673  16.632  0.00  0.00    +0.000 A 
BRANCH  21  23
ATOM     23  C   UNL     1      50.781   3.614  17.705  0.00  0.00    +0.000 A 
ATOM     24  C   UNL     1      52.118   3.550  18.127  0.00  0.00    +0.000 A 
ATOM     25  C   UNL     1      52.826   2.348  18.079  0.00  0.00    +0.000 A 
ATOM     26  C   UNL     1      52.184   1.225  17.593  0.00  0.00    +0.000 A 
ATOM     27  N   UNL     1      50.907   1.228  17.164  0.00  0.00    +0.000 NA
ATOM     28  C   UNL     1      50.245   2.411  17.234  0.00  0.00    +0.000 A 
ENDBRANCH  21  23
ENDBRANCH  15  16
ENDBRANCH   1  15
TORSDOF 6
ENDMDL
MODEL 8
REMARK VINA RESULT:    -6.765      5.315      8.885
REMARK INTER + INTRA:          -9.323
REMARK INTER:                  -8.786
REMARK INTRA:                  -0.537
REMARK UNBOUND:                -0.382
REMARK  Name = 
REMARK  6 active torsions:
REMARK  status: ('A' for Active; 'I' for Inactive)
REMARK    1  A    between atoms: N_1  and  S_2
REMARK    2  A    between atoms: S_2  and  C_5
REMARK    3  A    between atoms: C_8  and  N_9
REMARK    4  A    between atoms: N_9  and  C_10
REMARK    5  A    between atoms: C_10  and  C_11
REMARK    6  A    between atoms: C_16  and  C_17
REMARK                            x       y       z     vdW  Elec       q    Type
REMARK                         _______ _______ _______ _____ _____    ______ ____
ROOT
ATOM      1  N   UNL     1      47.146   5.155  15.230  0.00  0.00    +0.000 N 
ATOM      2  H   UNL     1      46.714   5.953  15.688  0.00  0.00    +0.000 HD
ENDROOT
BRANCH   1   6
ATOM      3  C   UNL     1      45.374   4.482  11.602  0.00  0.00    +0.000 A 
ATOM      4  C   UNL     1      45.578   3.431  12.468  0.00  0.00    +0.000 A 
ATOM      5  N   UNL     1      46.145   3.613  13.692  0.00  0.00    +0.000 NA
ATOM      6  C   UNL     1      46.495   4.879  14.020  0.00  0.00    +0.000 A 
ATOM      7  C   UNL     1      46.267   5.927  13.114  0.00  0.00    +0.000 A 
ATOM      8  N   UNL     1      45.695   5.770  11.895  0.00  0.00    +0.000 NA
BRANCH   3   9
ATOM      9  S   UNL     1      44.698   4.214   9.990  0.00  0.00    +0.000 S 
ATOM     10  O   UNL     1      44.216   2.852   9.910  0.00  0.00    +0.000 OA
ATOM     11  O   UNL     1      45.592   4.760   8.994  0.00  0.00    +0.000 OA
BRANCH   9  12
ATOM     12  N   UNL     1      43.313   5.170   9.962  0.00  0.00    +0.000 NA
ATOM     13  H   UNL     1      42.884   5.139   9.036  0.00  0.00    +0.000 HD
ATOM     14  H   UNL     1      43.537   6.111  10.294  0.00  0.00    +0.000 HD
ENDBRANCH   9  12
ENDBRANCH   3   9
ENDBRANCH   1   6
BRANCH   1  15
ATOM     15  C   UNL     1      47.287   4.022  16.134  0.00  0.00    +0.000 C 
BRANCH  15  16
ATOM     16  C   UNL     1      48.432   4.295  17.088  0.00  0.00    +0.000 A 
ATOM     17  C   UNL     1      48.394   5.388  17.957  0.00  0.00    +0.000 A 
ATOM     18  C   UNL     1      49.450   5.604  18.831  0.00  0.00    +0.000 A 
ATOM     19  F   UNL     1      49.409   6.656  19.661  0.00  0.00    +0.000 F 
ATOM     20  C   UNL     1      50.554   4.755  18.865  0.00  0.00    +0.000 A 
ATOM     21  C   UNL     1      50.639   3.651  18.000  0.00  0.00    +0.000 A 
ATOM     22  C   UNL     1      49.553   3.441  17.123  0.00  0.00    +0.000 A 
BRANCH  21  23
ATOM     23  C   UNL     1      51.821   2.760  17.994  0.00  0.00    +0.000 A 
ATOM     24  C   UNL     1      51.775   1.453  17.483  0.00  0.00    +0.000 A 
ATOM     25  C   UNL     1      52.918   0.652  17.466  0.00  0.00    +0.000 A 
ATOM     26  C   UNL     1      54.093   1.171  17.976  0.00  0.00    +0.000 A 
ATOM     27  N   UNL     1      54.195   2.413  18.488  0.00  0.00    +0.000 NA
ATOM     28  C   UNL     1      53.067   3.168  18.479  0.00  0.00    +0.000 A 
ENDBRANCH  21  23
ENDBRANCH  15  16
ENDBRANCH   1  15
TORSDOF 6
ENDMDL
MODEL 9
REMARK VINA RESULT:    -6.374      3.364      5.212
REMARK INTER + INTRA:          -8.806
REMARK INTER:                  -8.124
REMARK INTRA:                  -0.682
REMARK UNBOUND:                -0.382
REMARK  Name = 
REMARK  6 active torsions:
REMARK  status: ('A' for Active; 'I' for Inactive)
REMARK    1  A    between atoms: N_1  and  S_2
REMARK    2  A    between atoms: S_2  and  C_5
REMARK    3  A    between atoms: C_8  and  N_9
REMARK    4  A    between atoms: N_9  and  C_10
REMARK    5  A    between atoms: C_10  and  C_11
REMARK    6  A    between atoms: C_16  and  C_17
REMARK                            x       y       z     vdW  Elec       q    Type
REMARK                         _______ _______ _______ _____ _____    ______ ____
ROOT
ATOM      1  N   UNL     1      46.459   4.036  15.020  0.00  0.00    +0.000 N 
ATOM      2  H   UNL     1      45.626   4.601  15.164  0.00  0.00    +0.000 HD
ENDROOT
BRANCH   1   6
ATOM      3  C   UNL     1      49.298   4.690  17.896  0.00  0.00    +0.000 A 
ATOM      4  C   UNL     1      49.222   5.530  16.807  0.00  0.00    +0.000 A 
ATOM      5  N   UNL     1      48.281   5.362  15.839  0.00  0.00    +0.000 NA
ATOM      6  C   UNL     1      47.419   4.330  15.998  0.00  0.00    +0.000 A 
ATOM      7  C   UNL     1      47.522   3.497  17.123  0.00  0.00    +0.000 A 
ATOM      8  N   UNL     1      48.445   3.653  18.105  0.00  0.00    +0.000 NA
BRANCH   3   9
ATOM      9  S   UNL     1      50.570   4.885  19.108  0.00  0.00    +0.000 S 
ATOM     10  O   UNL     1      50.806   6.299  19.308  0.00  0.00    +0.000 OA
ATOM     11  O   UNL     1      51.652   3.969  18.826  0.00  0.00    +0.000 OA
BRANCH   9  12
ATOM     12  N   UNL     1      49.858   4.355  20.539  0.00  0.00    +0.000 NA
ATOM     13  H   UNL     1      49.275   5.093  20.935  0.00  0.00    +0.000 HD
ATOM     14  H   UNL     1      50.578   3.999  21.171  0.00  0.00    +0.000 HD
ENDBRANCH   9  12
ENDBRANCH   3   9
ENDBRANCH   1   6
BRANCH   1  15
ATOM     15  C   UNL     1      46.930   4.107  13.644  0.00  0.00    +0.000 C 
BRANCH  15  16
ATOM     16  C   UNL     1      46.012   5.020  12.857  0.00  0.00    +0.000 A 
ATOM     17  C   UNL     1      44.920   4.505  12.155  0.00  0.00    +0.000 A 
ATOM     18  C   UNL     1      44.086   5.367  11.457  0.00  0.00    +0.000 A 
ATOM     19  F   UNL     1      43.041   4.867  10.784  0.00  0.00    +0.000 F 
ATOM     20  C   UNL     1      44.312   6.742  11.437  0.00  0.00    +0.000 A 
ATOM     21  C   UNL     1      45.407   7.301  12.118  0.00  0.00    +0.000 A 
ATOM     22  C   UNL     1      46.239   6.411  12.830  0.00  0.00    +0.000 A 
BRANCH  21  23
ATOM     23  C   UNL     1      45.686   8.754  12.076  0.00  0.00    +0.000 A 
ATOM     24  C   UNL     1      46.983   9.275  12.199  0.00  0.00    +0.000 A 
ATOM     25  C   UNL     1      47.211  10.650  12.124  0.00  0.00    +0.000 A 
ATOM     26  C   UNL     1      46.128  11.488  11.940  0.00  0.00    +0.000 A 
ATOM     27  N   UNL     1      44.860  11.047  11.826  0.00  0.00    +0.000 NA
ATOM     28  C   UNL     1      44.675   9.704  11.893  0.00  0.00    +0.000 A 
ENDBRANCH  21  23
ENDBRANCH  15  16
ENDBRANCH   1  15
TORSDOF 6
ENDMDL
