MODEL 1
REMARK VINA RESULT:    -8.069      0.000      0.000
REMARK INTER + INTRA:         -11.015
REMARK INTER:                 -10.427
REMARK INTRA:                  -0.588
REMARK UNBOUND:                -0.588
REMARK  Name = 
REMARK  6 active torsions:
REMARK  status: ('A' for Active; 'I' for Inactive)
REMARK    1  A    between atoms: C_1  and  O_2
REMARK    2  A    between atoms: O_2  and  C_3
REMARK    3  A    between atoms: C_6  and  C_7
REMARK    4  A    between atoms: C_7  and  N_8
REMARK    5  A    between atoms: N_8  and  C_9
REMARK    6  A    between atoms: C_12  and  C_13
REMARK                            x       y       z     vdW  Elec       q    Type
REMARK                         _______ _______ _______ _____ _____    ______ ____
ROOT
ATOM      1  N   UNL     1      43.821   3.741  10.629  0.00  0.00    +0.000 N 
ATOM      2  H   UNL     1      42.979   3.173  10.635  0.00  0.00    +0.000 HD
ENDROOT
BRANCH   1   3
ATOM      3  C   UNL     1      44.696   3.470   9.569  0.00  0.00    +0.000 A 
ATOM      4  C   UNL     1      45.266   4.445   8.753  0.00  0.00    +0.000 A 
ATOM      5  C   UNL     1      46.149   4.079   7.732  0.00  0.00    +0.000 A 
ATOM      6  C   UNL     1      46.469   2.733   7.585  0.00  0.00    +0.000 A 
ATOM      7  N   UNL     1      45.977   1.750   8.384  0.00  0.00    +0.000 NA
ATOM      8  C   UNL     1      45.119   2.152   9.350  0.00  0.00    +0.000 A 
BRANCH   6   9
ATOM      9  C   UNL     1      47.412   2.295   6.503  0.00  0.00    +0.000 C 
ATOM     10  N   UNL     1      47.269   2.958   5.311  0.00  0.00    +0.000 N 
ATOM     11  O   UNL     1      48.247   1.415   6.668  0.00  0.00    +0.000 OA
ATOM     12  H   UNL     1      46.552   3.665   5.220  0.00  0.00    +0.000 HD
ATOM     13  H   UNL     1      47.854   2.710   4.528  0.00  0.00    +0.000 HD
ENDBRANCH   6   9
ENDBRANCH   1   3
BRANCH   1  14
ATOM     14  C   UNL     1      43.837   4.930  11.489  0.00  0.00    +0.000 C 
ATOM     15  C   UNL     1      42.764   5.998  11.392  0.00  0.00    +0.000 C 
ATOM     16  C   UNL     1      42.689   5.000  12.498  0.00  0.00    +0.000 C 
BRANCH  14  20
ATOM     17  C   UNL     1      47.690   6.031  13.237  0.00  0.00    +0.000 A 
ATOM     18  C   UNL     1      47.137   6.808  12.223  0.00  0.00    +0.000 A 
ATOM     19  C   UNL     1      45.923   6.434  11.629  0.00  0.00    +0.000 A 
ATOM     20  C   UNL     1      45.217   5.290  12.041  0.00  0.00    +0.000 A 
ATOM     21  C   UNL     1      45.824   4.496  13.030  0.00  0.00    +0.000 A 
ATOM     22  C   UNL     1      47.036   4.862  13.622  0.00  0.00    +0.000 A 
BRANCH  17  24
ATOM     23  C   UNL     1      48.706   6.606  15.306  0.00  0.00    +0.000 C 
ATOM     24  O   UNL     1      48.840   6.299  13.925  0.00  0.00    +0.000 OA
ENDBRANCH  17  24
ENDBRANCH  14  20
ENDBRANCH   1  14
TORSDOF 5
ENDMDL
MODEL 2
REMARK VINA RESULT:    -6.930      2.621      6.835
REMARK INTER + INTRA:          -9.544
REMARK INTER:                  -9.010
REMARK INTRA:                  -0.534
REMARK UNBOUND:                -0.588
REMARK  Name = 
REMARK  6 active torsions:
REMARK  status: ('A' for Active; 'I' for Inactive)
REMARK    1  A    between atoms: C_1  and  O_2
REMARK    2  A    between atoms: O_2  and  C_3
REMARK    3  A    between atoms: C_6  and  C_7
REMARK    4  A    between atoms: C_7  and  N_8
REMARK    5  A    between atoms: N_8  and  C_9
REMARK    6  A    between atoms: C_12  and  C_13
REMARK                            x       y       z     vdW  Elec       q    Type
REMARK                         _______ _______ _______ _____ _____    ______ ____
ROOT
ATOM      1  N   UNL     1      44.810   6.185  10.863  0.00  0.00    +0.000 N 
ATOM      2  H   UNL     1      44.243   6.843  10.337  0.00  0.00    +0.000 HD
ENDROOT
BRANCH   1   3
ATOM      3  C   UNL     1      45.688   6.779  11.778  0.00  0.00    +0.000 A 
ATOM      4  C   UNL     1      46.939   6.264  12.115  0.00  0.00    +0.000 A 
ATOM      5  C   UNL     1      47.756   6.943  13.023  0.00  0.00    +0.000 A 
ATOM      6  C   UNL     1      47.308   8.153  13.542  0.00  0.00    +0.000 A 
ATOM      7  N   UNL     1      46.118   8.720  13.210  0.00  0.00    +0.000 NA
ATOM      8  C   UNL     1      45.358   8.022  12.337  0.00  0.00    +0.000 A 
BRANCH   6   9
ATOM      9  C   UNL     1      48.153   8.915  14.521  0.00  0.00    +0.000 C 
ATOM     10  N   UNL     1      47.556   9.156  15.732  0.00  0.00    +0.000 N 
ATOM     11  O   UNL     1      49.290   9.291  14.262  0.00  0.00    +0.000 OA
ATOM     12  H   UNL     1      46.609   8.841  15.890  0.00  0.00    +0.000 HD
ATOM     13  H   UNL     1      48.054   9.678  16.438  0.00  0.00    +0.000 HD
ENDBRANCH   6   9
ENDBRANCH   1   3
BRANCH   1  14
ATOM     14  C   UNL     1      44.405   4.774  10.834  0.00  0.00    +0.000 C 
ATOM     15  C   UNL     1      43.928   4.056  12.082  0.00  0.00    +0.000 C 
ATOM     16  C   UNL     1      42.917   4.535  11.097  0.00  0.00    +0.000 C 
BRANCH  14  20
ATOM     17  C   UNL     1      46.280   2.434   7.653  0.00  0.00    +0.000 A 
ATOM     18  C   UNL     1      46.289   3.826   7.593  0.00  0.00    +0.000 A 
ATOM     19  C   UNL     1      45.651   4.579   8.589  0.00  0.00    +0.000 A 
ATOM     20  C   UNL     1      45.004   3.971   9.679  0.00  0.00    +0.000 A 
ATOM     21  C   UNL     1      44.965   2.566   9.686  0.00  0.00    +0.000 A 
ATOM     22  C   UNL     1      45.595   1.809   8.693  0.00  0.00    +0.000 A 
BRANCH  17  24
ATOM     23  C   UNL     1      47.842   2.154   5.885  0.00  0.00    +0.000 C 
ATOM     24  O   UNL     1      46.892   1.584   6.776  0.00  0.00    +0.000 OA
ENDBRANCH  17  24
ENDBRANCH  14  20
ENDBRANCH   1  14
TORSDOF 5
ENDMDL
MODEL 3
REMARK VINA RESULT:    -6.849      2.380      6.700
REMARK INTER + INTRA:          -9.439
REMARK INTER:                  -9.296
REMARK INTRA:                  -0.143
REMARK UNBOUND:                -0.588
REMARK  Name = 
REMARK  6 active torsions:
REMARK  status: ('A' for Active; 'I' for Inactive)
REMARK    1  A    between atoms: C_1  and  O_2
REMARK    2  A    between atoms: O_2  and  C_3
REMARK    3  A    between atoms: C_6  and  C_7
REMARK    4  A    between atoms: C_7  and  N_8
REMARK    5  A    between atoms: N_8  and  C_9
REMARK    6  A    between atoms: C_12  and  C_13
REMARK                            x       y       z     vdW  Elec       q    Type
REMARK                         _______ _______ _______ _____ _____    ______ ____
ROOT
ATOM      1  N   UNL     1      45.425   5.730  11.530  0.00  0.00    +0.000 N 
ATOM      2  H   UNL     1      45.361   6.681  11.178  0.00  0.00    +0.000 HD
ENDROOT
BRANCH   1   3
ATOM      3  C   UNL     1      46.175   5.596  12.704  0.00  0.00    +0.000 A 
ATOM      4  C   UNL     1      47.210   6.451  13.078  0.00  0.00    +0.000 A 
ATOM      5  C   UNL     1      47.887   6.249  14.284  0.00  0.00    +0.000 A 
ATOM      6  C   UNL     1      47.475   5.208  15.109  0.00  0.00    +0.000 A 
ATOM      7  N   UNL     1      46.442   4.375  14.812  0.00  0.00    +0.000 NA
ATOM      8  C   UNL     1      45.825   4.603  13.631  0.00  0.00    +0.000 A 
BRANCH   6   9
ATOM      9  C   UNL     1      48.174   4.954  16.413  0.00  0.00    +0.000 C 
ATOM     10  N   UNL     1      47.341   4.790  17.490  0.00  0.00    +0.000 N 
ATOM     11  O   UNL     1      49.393   4.896  16.510  0.00  0.00    +0.000 OA
ATOM     12  H   UNL     1      46.341   4.866  17.361  0.00  0.00    +0.000 HD
ATOM     13  H   UNL     1      47.735   4.633  18.406  0.00  0.00    +0.000 HD
ENDBRANCH   6   9
ENDBRANCH   1   3
BRANCH   1  14
ATOM     14  C   UNL     1      44.489   4.744  10.976  0.00  0.00    +0.000 C 
ATOM     15  C   UNL     1      43.356   4.168  11.804  0.00  0.00    +0.000 C 
ATOM     16  C   UNL     1      43.053   5.247  10.821  0.00  0.00    +0.000 C 
BRANCH  14  20
ATOM     17  C   UNL     1      46.224   2.434   7.694  0.00  0.00    +0.000 A 
ATOM     18  C   UNL     1      46.259   3.826   7.662  0.00  0.00    +0.000 A 
ATOM     19  C   UNL     1      45.665   4.571   8.691  0.00  0.00    +0.000 A 
ATOM     20  C   UNL     1      45.038   3.953   9.788  0.00  0.00    +0.000 A 
ATOM     21  C   UNL     1      44.971   2.549   9.767  0.00  0.00    +0.000 A 
ATOM     22  C   UNL     1      45.557   1.801   8.742  0.00  0.00    +0.000 A 
BRANCH  17  24
ATOM     23  C   UNL     1      47.943   2.066   6.097  0.00  0.00    +0.000 C 
ATOM     24  O   UNL     1      46.793   1.590   6.782  0.00  0.00    +0.000 OA
ENDBRANCH  17  24
ENDBRANCH  14  20
ENDBRANCH   1  14
TORSDOF 5
ENDMDL
MODEL 4
REMARK VINA RESULT:    -6.608      1.622      2.323
REMARK INTER + INTRA:          -9.127
REMARK INTER:                  -9.017
REMARK INTRA:                  -0.110
REMARK UNBOUND:                -0.588
REMARK  Name = 
REMARK  6 active torsions:
REMARK  status: ('A' for Active; 'I' for Inactive)
REMARK    1  A    between atoms: C_1  and  O_2
REMARK    2  A    between atoms: O_2  and  C_3
REMARK    3  A    between atoms: C_6  and  C_7
REMARK    4  A    between atoms: C_7  and  N_8
REMARK    5  A    between atoms: N_8  and  C_9
REMARK    6  A    between atoms: C_12  and  C_13
REMARK                            x       y       z     vdW  Elec       q    Type
REMARK                         _______ _______ _______ _____ _____    ______ ____
ROOT
ATOM      1  N   UNL     1      43.838   5.096  10.419  0.00  0.00    +0.000 N 
ATOM      2  H   UNL     1      43.280   5.749   9.877  0.00  0.00    +0.000 HD
ENDROOT
BRANCH   1   3
ATOM      3  C   UNL     1      44.593   4.201   9.651  0.00  0.00    +0.000 A 
ATOM      4  C   UNL     1      44.445   2.816   9.687  0.00  0.00    +0.000 A 
ATOM      5  C   UNL     1      45.230   2.004   8.864  0.00  0.00    +0.000 A 
ATOM      6  C   UNL     1      46.123   2.614   7.988  0.00  0.00    +0.000 A 
ATOM      7  N   UNL     1      46.271   3.962   7.882  0.00  0.00    +0.000 NA
ATOM      8  C   UNL     1      45.498   4.704   8.706  0.00  0.00    +0.000 A 
BRANCH   6   9
ATOM      9  C   UNL     1      46.986   1.781   7.086  0.00  0.00    +0.000 C 
ATOM     10  N   UNL     1      47.040   0.449   7.410  0.00  0.00    +0.000 N 
ATOM     11  O   UNL     1      47.595   2.250   6.133  0.00  0.00    +0.000 OA
ATOM     12  H   UNL     1      46.533   0.114   8.218  0.00  0.00    +0.000 HD
ATOM     13  H   UNL     1      47.613  -0.175   6.862  0.00  0.00    +0.000 HD
ENDBRANCH   6   9
ENDBRANCH   1   3
BRANCH   1  14
ATOM     14  C   UNL     1      44.024   5.393  11.845  0.00  0.00    +0.000 C 
ATOM     15  C   UNL     1      42.890   5.251  12.843  0.00  0.00    +0.000 C 
ATOM     16  C   UNL     1      43.921   4.176  12.766  0.00  0.00    +0.000 C 
BRANCH  14  20
ATOM     17  C   UNL     1      47.305   8.202  12.516  0.00  0.00    +0.000 A 
ATOM     18  C   UNL     1      47.579   6.878  12.186  0.00  0.00    +0.000 A 
ATOM     19  C   UNL     1      46.530   5.962  12.013  0.00  0.00    +0.000 A 
ATOM     20  C   UNL     1      45.183   6.344  12.144  0.00  0.00    +0.000 A 
ATOM     21  C   UNL     1      44.939   7.674  12.529  0.00  0.00    +0.000 A 
ATOM     22  C   UNL     1      45.980   8.589  12.708  0.00  0.00    +0.000 A 
BRANCH  17  24
ATOM     23  C   UNL     1      48.754   9.781  11.491  0.00  0.00    +0.000 C 
ATOM     24  O   UNL     1      48.224   9.202  12.675  0.00  0.00    +0.000 OA
ENDBRANCH  17  24
ENDBRANCH  14  20
ENDBRANCH   1  14
TORSDOF 5
ENDMDL
MODEL 5
REMARK VINA RESULT:    -6.587      2.541      6.451
REMARK INTER + INTRA:          -9.101
REMARK INTER:                  -8.659
REMARK INTRA:                  -0.442
REMARK UNBOUND:                -0.588
REMARK  Name = 
REMARK  6 active torsions:
REMARK  status: ('A' for Active; 'I' for Inactive)
REMARK    1  A    between atoms: C_1  and  O_2
REMARK    2  A    between atoms: O_2  and  C_3
REMARK    3  A    between atoms: C_6  and  C_7
REMARK    4  A    between atoms: C_7  and  N_8
REMARK    5  A    between atoms: N_8  and  C_9
REMARK    6  A    between atoms: C_12  and  C_13
REMARK                            x       y       z     vdW  Elec       q    Type
REMARK                         _______ _______ _______ _____ _____    ______ ____
ROOT
ATOM      1  N   UNL     1      44.801   6.447  11.424  0.00  0.00    +0.000 N 
ATOM      2  H   UNL     1      44.257   7.235  11.086  0.00  0.00    +0.000 HD
ENDROOT
BRANCH   1   3
ATOM      3  C   UNL     1      45.885   6.798  12.239  0.00  0.00    +0.000 A 
ATOM      4  C   UNL     1      46.025   8.031  12.874  0.00  0.00    +0.000 A 
ATOM      5  C   UNL     1      47.133   8.280  13.688  0.00  0.00    +0.000 A 
ATOM      6  C   UNL     1      48.059   7.259  13.878  0.00  0.00    +0.000 A 
ATOM      7  N   UNL     1      47.945   6.025  13.319  0.00  0.00    +0.000 NA
ATOM      8  C   UNL     1      46.862   5.835  12.531  0.00  0.00    +0.000 A 
BRANCH   6   9
ATOM      9  C   UNL     1      49.264   7.483  14.744  0.00  0.00    +0.000 C 
ATOM     10  N   UNL     1      50.465   7.444  14.081  0.00  0.00    +0.000 N 
ATOM     11  O   UNL     1      49.185   7.688  15.948  0.00  0.00    +0.000 OA
ATOM     12  H   UNL     1      50.478   7.254  13.089  0.00  0.00    +0.000 HD
ATOM     13  H   UNL     1      51.323   7.569  14.597  0.00  0.00    +0.000 HD
ENDBRANCH   6   9
ENDBRANCH   1   3
BRANCH   1  14
ATOM     14  C   UNL     1      44.204   5.112  11.297  0.00  0.00    +0.000 C 
ATOM     15  C   UNL     1      43.549   4.417  12.475  0.00  0.00    +0.000 C 
ATOM     16  C   UNL     1      42.683   5.079  11.457  0.00  0.00    +0.000 C 
BRANCH  14  20
ATOM     17  C   UNL     1      45.949   2.682   8.109  0.00  0.00    +0.000 A 
ATOM     18  C   UNL     1      46.058   4.070   8.067  0.00  0.00    +0.000 A 
ATOM     19  C   UNL     1      45.462   4.855   9.064  0.00  0.00    +0.000 A 
ATOM     20  C   UNL     1      44.759   4.282  10.139  0.00  0.00    +0.000 A 
ATOM     21  C   UNL     1      44.620   2.883  10.128  0.00  0.00    +0.000 A 
ATOM     22  C   UNL     1      45.208   2.096   9.133  0.00  0.00    +0.000 A 
BRANCH  17  24
ATOM     23  C   UNL     1      47.870   2.022   6.876  0.00  0.00    +0.000 C 
ATOM     24  O   UNL     1      46.510   1.801   7.228  0.00  0.00    +0.000 OA
ENDBRANCH  17  24
ENDBRANCH  14  20
ENDBRANCH   1  14
TORSDOF 5
ENDMDL
MODEL 6
REMARK VINA RESULT:    -6.026      1.559      2.309
REMARK INTER + INTRA:          -8.376
REMARK INTER:                  -7.747
REMARK INTRA:                  -0.629
REMARK UNBOUND:                -0.588
REMARK  Name = 
REMARK  6 active torsions:
REMARK  status: ('A' for Active; 'I' for Inactive)
REMARK    1  A    between atoms: C_1  and  O_2
REMARK    2  A    between atoms: O_2  and  C_3
REMARK    3  A    between atoms: C_6  and  C_7
REMARK    4  A    between atoms: C_7  and  N_8
REMARK    5  A    between atoms: N_8  and  C_9
REMARK    6  A    between atoms: C_12  and  C_13
REMARK                            x       y       z     vdW  Elec       q    Type
REMARK                         _______ _______ _______ _____ _____    ______ ____
ROOT
ATOM      1  N   UNL     1      44.229   5.392  10.520  0.00  0.00    +0.000 N 
ATOM      2  H   UNL     1      43.254   5.547  10.284  0.00  0.00    +0.000 HD
ENDROOT
BRANCH   1   3
ATOM      3  C   UNL     1      44.867   4.421   9.738  0.00  0.00    +0.000 A 
ATOM      4  C   UNL     1      44.674   3.047   9.877  0.00  0.00    +0.000 A 
ATOM      5  C   UNL     1      45.339   2.155   9.031  0.00  0.00    +0.000 A 
ATOM      6  C   UNL     1      46.158   2.674   8.033  0.00  0.00    +0.000 A 
ATOM      7  N   UNL     1      46.343   4.005   7.826  0.00  0.00    +0.000 NA
ATOM      8  C   UNL     1      45.687   4.827   8.675  0.00  0.00    +0.000 A 
BRANCH   6   9
ATOM      9  C   UNL     1      46.892   1.752   7.103  0.00  0.00    +0.000 C 
ATOM     10  N   UNL     1      46.918   0.438   7.497  0.00  0.00    +0.000 N 
ATOM     11  O   UNL     1      47.425   2.139   6.071  0.00  0.00    +0.000 OA
ATOM     12  H   UNL     1      46.478   0.172   8.367  0.00  0.00    +0.000 HD
ATOM     13  H   UNL     1      47.407  -0.242   6.934  0.00  0.00    +0.000 HD
ENDBRANCH   6   9
ENDBRANCH   1   3
BRANCH   1  14
ATOM     14  C   UNL     1      44.883   6.394  11.370  0.00  0.00    +0.000 C 
ATOM     15  C   UNL     1      45.263   7.763  10.839  0.00  0.00    +0.000 C 
ATOM     16  C   UNL     1      44.031   7.628  11.669  0.00  0.00    +0.000 C 
BRANCH  14  20
ATOM     17  C   UNL     1      47.168   4.649  14.663  0.00  0.00    +0.000 A 
ATOM     18  C   UNL     1      45.983   4.050  14.244  0.00  0.00    +0.000 A 
ATOM     19  C   UNL     1      45.224   4.631  13.217  0.00  0.00    +0.000 A 
ATOM     20  C   UNL     1      45.633   5.810  12.568  0.00  0.00    +0.000 A 
ATOM     21  C   UNL     1      46.806   6.420  13.048  0.00  0.00    +0.000 A 
ATOM     22  C   UNL     1      47.563   5.848  14.074  0.00  0.00    +0.000 A 
BRANCH  17  24
ATOM     23  C   UNL     1      47.528   4.130  16.954  0.00  0.00    +0.000 C 
ATOM     24  O   UNL     1      48.019   4.172  15.620  0.00  0.00    +0.000 OA
ENDBRANCH  17  24
ENDBRANCH  14  20
ENDBRANCH   1  14
TORSDOF 5
ENDMDL
MODEL 7
REMARK VINA RESULT:    -5.737      2.689      4.409
REMARK INTER + INTRA:          -8.001
REMARK INTER:                  -7.840
REMARK INTRA:                  -0.161
REMARK UNBOUND:                -0.588
REMARK  Name = 
REMARK  6 active torsions:
REMARK  status: ('A' for Active; 'I' for Inactive)
REMARK    1  A    between atoms: C_1  and  O_2
REMARK    2  A    between atoms: O_2  and  C_3
REMARK    3  A    between atoms: C_6  and  C_7
REMARK    4  A    between atoms: C_7  and  N_8
REMARK    5  A    between atoms: N_8  and  C_9
REMARK    6  A    between atoms: C_12  and  C_13
REMARK                            x       y       z     vdW  Elec       q    Type
REMARK                         _______ _______ _______ _____ _____    ______ ____
ROOT
ATOM      1  N   UNL     1      46.164   6.095  13.431  0.00  0.00    +0.000 N 
ATOM      2  H   UNL     1      45.451   6.702  13.824  0.00  0.00    +0.000 HD
ENDROOT
BRANCH   1   3
ATOM      3  C   UNL     1      45.761   5.388  12.291  0.00  0.00    +0.000 A 
ATOM      4  C   UNL     1      45.795   5.901  10.995  0.00  0.00    +0.000 A 
ATOM      5  C   UNL     1      45.393   5.109   9.916  0.00  0.00    +0.000 A 
ATOM      6  C   UNL     1      45.003   3.797  10.165  0.00  0.00    +0.000 A 
ATOM      7  N   UNL     1      44.997   3.236  11.403  0.00  0.00    +0.000 NA
ATOM      8  C   UNL     1      45.384   4.044  12.417  0.00  0.00    +0.000 A 
BRANCH   6   9
ATOM      9  C   UNL     1      44.564   2.912   9.036  0.00  0.00    +0.000 C 
ATOM     10  N   UNL     1      44.220   3.575   7.886  0.00  0.00    +0.000 N 
ATOM     11  O   UNL     1      44.518   1.692   9.130  0.00  0.00    +0.000 OA
ATOM     12  H   UNL     1      44.257   4.584   7.864  0.00  0.00    +0.000 HD
ATOM     13  H   UNL     1      43.897   3.051   7.086  0.00  0.00    +0.000 HD
ENDBRANCH   6   9
ENDBRANCH   1   3
BRANCH   1  14
ATOM     14  C   UNL     1      47.545   6.295  13.889  0.00  0.00    +0.000 C 
ATOM     15  C   UNL     1      48.659   6.657  12.926  0.00  0.00    +0.000 C 
ATOM     16  C   UNL     1      48.053   7.731  13.765  0.00  0.00    +0.000 C 
BRANCH  14  20
ATOM     17  C   UNL     1      48.324   4.362  17.732  0.00  0.00    +0.000 A 
ATOM     18  C   UNL     1      49.027   5.509  17.374  0.00  0.00    +0.000 A 
ATOM     19  C   UNL     1      48.812   6.107  16.123  0.00  0.00    +0.000 A 
ATOM     20  C   UNL     1      47.879   5.592  15.206  0.00  0.00    +0.000 A 
ATOM     21  C   UNL     1      47.222   4.405  15.572  0.00  0.00    +0.000 A 
ATOM     22  C   UNL     1      47.437   3.801  16.815  0.00  0.00    +0.000 A 
BRANCH  17  24
ATOM     23  C   UNL     1      48.832   4.463  20.051  0.00  0.00    +0.000 C 
ATOM     24  O   UNL     1      48.407   3.703  18.927  0.00  0.00    +0.000 OA
ENDBRANCH  17  24
ENDBRANCH  14  20
ENDBRANCH   1  14
TORSDOF 5
ENDMDL
MODEL 8
REMARK VINA RESULT:    -5.523      3.158      5.124
REMARK INTER + INTRA:          -7.726
REMARK INTER:                  -7.440
REMARK INTRA:                  -0.286
REMARK UNBOUND:                -0.588
REMARK  Name = 
REMARK  6 active torsions:
REMARK  status: ('A' for Active; 'I' for Inactive)
REMARK    1  A    between atoms: C_1  and  O_2
REMARK    2  A    between atoms: O_2  and  C_3
REMARK    3  A    between atoms: C_6  and  C_7
REMARK    4  A    between atoms: C_7  and  N_8
REMARK    5  A    between atoms: N_8  and  C_9
REMARK    6  A    between atoms: C_12  and  C_13
REMARK                            x       y       z     vdW  Elec       q    Type
REMARK                         _______ _______ _______ _____ _____    ______ ____
ROOT
ATOM      1  N   UNL     1      46.639   7.179  13.599  0.00  0.00    +0.000 N 
ATOM      2  H   UNL     1      46.027   7.853  14.047  0.00  0.00    +0.000 HD
ENDROOT
BRANCH   1   3
ATOM      3  C   UNL     1      45.973   6.168  12.896  0.00  0.00    +0.000 A 
ATOM      4  C   UNL     1      45.701   6.209  11.529  0.00  0.00    +0.000 A 
ATOM      5  C   UNL     1      45.050   5.138  10.910  0.00  0.00    +0.000 A 
ATOM      6  C   UNL     1      44.723   4.026  11.681  0.00  0.00    +0.000 A 
ATOM      7  N   UNL     1      45.008   3.918  13.006  0.00  0.00    +0.000 NA
ATOM      8  C   UNL     1      45.628   4.983  13.562  0.00  0.00    +0.000 A 
BRANCH   6   9
ATOM      9  C   UNL     1      44.023   2.854  11.057  0.00  0.00    +0.000 C 
ATOM     10  N   UNL     1      44.663   2.312   9.972  0.00  0.00    +0.000 N 
ATOM     11  O   UNL     1      42.963   2.412  11.483  0.00  0.00    +0.000 OA
ATOM     12  H   UNL     1      45.527   2.725   9.647  0.00  0.00    +0.000 HD
ATOM     13  H   UNL     1      44.247   1.531   9.486  0.00  0.00    +0.000 HD
ENDBRANCH   6   9
ENDBRANCH   1   3
BRANCH   1  14
ATOM     14  C   UNL     1      48.058   7.536  13.475  0.00  0.00    +0.000 C 
ATOM     15  C   UNL     1      48.685   7.852  12.131  0.00  0.00    +0.000 C 
ATOM     16  C   UNL     1      48.313   8.978  13.034  0.00  0.00    +0.000 C 
BRANCH  14  20
ATOM     17  C   UNL     1      50.482   6.252  16.879  0.00  0.00    +0.000 A 
ATOM     18  C   UNL     1      51.059   6.998  15.854  0.00  0.00    +0.000 A 
ATOM     19  C   UNL     1      50.295   7.375  14.739  0.00  0.00    +0.000 A 
ATOM     20  C   UNL     1      48.936   7.037  14.623  0.00  0.00    +0.000 A 
ATOM     21  C   UNL     1      48.394   6.239  15.646  0.00  0.00    +0.000 A 
ATOM     22  C   UNL     1      49.151   5.856  16.757  0.00  0.00    +0.000 A 
BRANCH  17  24
ATOM     23  C   UNL     1      50.901   4.502  18.430  0.00  0.00    +0.000 C 
ATOM     24  O   UNL     1      51.096   5.853  18.032  0.00  0.00    +0.000 OA
ENDBRANCH  17  24
ENDBRANCH  14  20
ENDBRANCH   1  14
TORSDOF 5
ENDMDL
MODEL 9
REMARK VINA RESULT:    -5.439      3.230      5.141
REMARK INTER + INTRA:          -7.617
REMARK INTER:                  -7.017
REMARK INTRA:                  -0.600
REMARK UNBOUND:                -0.588
REMARK  Name = 
REMARK  6 active torsions:
REMARK  status: ('A' for Active; 'I' for Inactive)
REMARK    1  A    between atoms: C_1  and  O_2
REMARK    2  A    between atoms: O_2  and  C_3
REMARK    3  A    between atoms: C_6  and  C_7
REMARK    4  A    between atoms: C_7  and  N_8
REMARK    5  A    between atoms: N_8  and  C_9
REMARK    6  A    between atoms: C_12  and  C_13
REMARK                            x       y       z     vdW  Elec       q    Type
REMARK                         _______ _______ _______ _____ _____    ______ ____
ROOT
ATOM      1  N   UNL     1      46.730   7.601  12.553  0.00  0.00    +0.000 N 
ATOM      2  H   UNL     1      46.226   8.430  12.252  0.00  0.00    +0.000 HD
ENDROOT
BRANCH   1   3
ATOM      3  C   UNL     1      46.085   6.392  12.261  0.00  0.00    +0.000 A 
ATOM      4  C   UNL     1      45.771   5.420  13.209  0.00  0.00    +0.000 A 
ATOM      5  C   UNL     1      45.104   4.254  12.824  0.00  0.00    +0.000 A 
ATOM      6  C   UNL     1      44.730   4.113  11.492  0.00  0.00    +0.000 A 
ATOM      7  N   UNL     1      44.971   5.052  10.539  0.00  0.00    +0.000 NA
ATOM      8  C   UNL     1      45.628   6.158  10.957  0.00  0.00    +0.000 A 
BRANCH   6   9
ATOM      9  C   UNL     1      44.012   2.877  11.035  0.00  0.00    +0.000 C 
ATOM     10  N   UNL     1      44.593   2.233   9.972  0.00  0.00    +0.000 N 
ATOM     11  O   UNL     1      42.988   2.470  11.569  0.00  0.00    +0.000 OA
ATOM     12  H   UNL     1      45.428   2.620   9.554  0.00  0.00    +0.000 HD
ATOM     13  H   UNL     1      44.161   1.403   9.595  0.00  0.00    +0.000 HD
ENDBRANCH   6   9
ENDBRANCH   1   3
BRANCH   1  14
ATOM     14  C   UNL     1      48.141   7.769  12.924  0.00  0.00    +0.000 C 
ATOM     15  C   UNL     1      49.263   7.363  11.988  0.00  0.00    +0.000 C 
ATOM     16  C   UNL     1      48.897   8.805  12.091  0.00  0.00    +0.000 C 
BRANCH  14  20
ATOM     17  C   UNL     1      48.678   7.848  17.262  0.00  0.00    +0.000 A 
ATOM     18  C   UNL     1      48.350   9.016  16.578  0.00  0.00    +0.000 A 
ATOM     19  C   UNL     1      48.220   9.004  15.182  0.00  0.00    +0.000 A 
ATOM     20  C   UNL     1      48.393   7.828  14.431  0.00  0.00    +0.000 A 
ATOM     21  C   UNL     1      48.775   6.676  15.141  0.00  0.00    +0.000 A 
ATOM     22  C   UNL     1      48.911   6.683  16.532  0.00  0.00    +0.000 A 
BRANCH  17  24
ATOM     23  C   UNL     1      48.027   6.684  19.228  0.00  0.00    +0.000 C 
ATOM     24  O   UNL     1      48.798   7.710  18.616  0.00  0.00    +0.000 OA
ENDBRANCH  17  24
ENDBRANCH  14  20
ENDBRANCH   1  14
TORSDOF 5
ENDMDL
