MODEL 1
REMARK VINA RESULT:    -7.802      0.000      0.000
REMARK INTER + INTRA:         -14.623
REMARK INTER:                 -12.591
REMARK INTRA:                  -2.032
REMARK UNBOUND:                -2.032
REMARK  Name = 
REMARK  12 active torsions:
REMARK  status: ('A' for Active; 'I' for Inactive)
REMARK    1  A    between atoms: C_1  and  O_2
REMARK    2  A    between atoms: O_2  and  C_3
REMARK    3  A    between atoms: C_5  and  C_6
REMARK    4  A    between atoms: C_6  and  N_7
REMARK    5  A    between atoms: C_8  and  C_10
REMARK    6  A    between atoms: C_22  and  C_23
REMARK    7  A    between atoms: C_23  and  N_24
REMARK    8  A    between atoms: C_25  and  C_27
REMARK    9  A    between atoms: C_33  and  C_34
REMARK   10  A    between atoms: N_36  and  C_37
REMARK   11  A    between atoms: C_37  and  C_38
REMARK   12  A    between atoms: C_38  and  O_39
REMARK                            x       y       z     vdW  Elec       q    Type
REMARK                         _______ _______ _______ _____ _____    ______ ____
ROOT
ATOM      1  C   UNL     1      51.068   8.039  14.492  0.00  0.00    +0.000 A 
ATOM      2  C   UNL     1      50.285   8.383  13.366  0.00  0.00    +0.000 A 
ATOM      3  C   UNL     1      48.971   7.901  13.211  0.00  0.00    +0.000 A 
ATOM      4  C   UNL     1      48.448   7.081  14.216  0.00  0.00    +0.000 A 
ATOM      5  C   UNL     1      49.202   6.779  15.354  0.00  0.00    +0.000 A 
ATOM      6  C   UNL     1      50.500   7.282  15.533  0.00  0.00    +0.000 A 
ENDROOT
BRANCH   1   8
ATOM      7  C   UNL     1      52.497   9.883  14.959  0.00  0.00    +0.000 C 
ATOM      8  O   UNL     1      52.350   8.544  14.481  0.00  0.00    +0.000 OA
ENDBRANCH   1   8
BRANCH   3   9
ATOM      9  C   UNL     1      48.131   8.250  11.998  0.00  0.00    +0.000 C 
BRANCH   9  10
ATOM     10  N   UNL     1      47.455   7.098  11.457  0.00  0.00    +0.000 N 
ATOM     11  C   UNL     1      46.078   7.005  11.422  0.00  0.00    +0.000 C 
ATOM     12  O   UNL     1      45.355   7.893  11.825  0.00  0.00    +0.000 OA
ATOM     13  H   UNL     1      48.002   6.248  11.380  0.00  0.00    +0.000 HD
BRANCH  11  14
ATOM     14  C   UNL     1      45.542   5.778  10.808  0.00  0.00    +0.000 A 
ATOM     15  C   UNL     1      45.742   5.536   9.455  0.00  0.00    +0.000 A 
ATOM     16  S   UNL     1      45.098   4.049   8.920  0.00  0.00    +0.000 S 
ATOM     17  C   UNL     1      44.489   3.697  10.470  0.00  0.00    +0.000 A 
ATOM     18  N   UNL     1      43.781   2.552  10.703  0.00  0.00    +0.000 NA
ATOM     19  C   UNL     1      43.356   2.424  11.915  0.00  0.00    +0.000 A 
ATOM     20  N   UNL     1      43.575   3.332  12.919  0.00  0.00    +0.000 N 
ATOM     21  C   UNL     1      44.322   4.469  12.743  0.00  0.00    +0.000 A 
ATOM     22  O   UNL     1      44.555   5.228  13.684  0.00  0.00    +0.000 OA
ATOM     23  C   UNL     1      44.795   4.685  11.393  0.00  0.00    +0.000 A 
ATOM     24  H   UNL     1      43.237   3.156  13.850  0.00  0.00    +0.000 HD
ENDBRANCH  11  14
ENDBRANCH   9  10
ENDBRANCH   3   9
BRANCH   6  25
ATOM     25  C   UNL     1      51.165   7.009  16.860  0.00  0.00    +0.000 C 
BRANCH  25  26
ATOM     26  N   UNL     1      51.759   5.685  16.886  0.00  0.00    +0.000 N 
ATOM     27  C   UNL     1      51.354   4.752  17.816  0.00  0.00    +0.000 C 
ATOM     28  O   UNL     1      50.517   5.015  18.666  0.00  0.00    +0.000 OA
ATOM     29  H   UNL     1      52.169   5.368  16.017  0.00  0.00    +0.000 HD
BRANCH  27  30
ATOM     30  C   UNL     1      51.939   3.386  17.704  0.00  0.00    +0.000 A 
ATOM     31  C   UNL     1      53.323   3.232  17.937  0.00  0.00    +0.000 A 
ATOM     32  C   UNL     1      53.901   1.968  18.016  0.00  0.00    +0.000 A 
ATOM     33 CL   UNL     1      55.595   1.824  18.276  0.00  0.00    +0.000 Cl
ATOM     34  C   UNL     1      53.112   0.832  17.907  0.00  0.00    +0.000 A 
ATOM     35  C   UNL     1      51.748   0.967  17.639  0.00  0.00    +0.000 A 
ATOM     36  C   UNL     1      51.149   2.237  17.487  0.00  0.00    +0.000 A 
BRANCH  36  37
ATOM     37  C   UNL     1      49.727   2.206  17.009  0.00  0.00    +0.000 C 
ATOM     38  O   UNL     1      49.466   1.730  15.908  0.00  0.00    +0.000 OA
ATOM     39  N   UNL     1      48.777   2.847  17.779  0.00  0.00    +0.000 N 
ATOM     40  H   UNL     1      48.933   2.898  18.776  0.00  0.00    +0.000 HD
BRANCH  39  41
ATOM     41  C   UNL     1      47.384   2.939  17.365  0.00  0.00    +0.000 C 
BRANCH  41  42
ATOM     42  C   UNL     1      47.166   4.085  16.381  0.00  0.00    +0.000 C 
BRANCH  42  43
ATOM     43  O   UNL     1      47.327   3.609  15.043  0.00  0.00    +0.000 OA
ATOM     44  H   UNL     1      48.044   2.944  15.076  0.00  0.00    +0.000 HD
ENDBRANCH  42  43
ENDBRANCH  41  42
ENDBRANCH  39  41
ENDBRANCH  36  37
ENDBRANCH  27  30
ENDBRANCH  25  26
ENDBRANCH   6  25
TORSDOF 11
ENDMDL
MODEL 2
REMARK VINA RESULT:    -7.492      1.662      2.188
REMARK INTER + INTRA:         -14.124
REMARK INTER:                 -12.332
REMARK INTRA:                  -1.792
REMARK UNBOUND:                -2.032
REMARK  Name = 
REMARK  12 active torsions:
REMARK  status: ('A' for Active; 'I' for Inactive)
REMARK    1  A    between atoms: C_1  and  O_2
REMARK    2  A    between atoms: O_2  and  C_3
REMARK    3  A    between atoms: C_5  and  C_6
REMARK    4  A    between atoms: C_6  and  N_7
REMARK    5  A    between atoms: C_8  and  C_10
REMARK    6  A    between atoms: C_22  and  C_23
REMARK    7  A    between atoms: C_23  and  N_24
REMARK    8  A    between atoms: C_25  and  C_27
REMARK    9  A    between atoms: C_33  and  C_34
REMARK   10  A    between atoms: N_36  and  C_37
REMARK   11  A    between atoms: C_37  and  C_38
REMARK   12  A    between atoms: C_38  and  O_39
REMARK                            x       y       z     vdW  Elec       q    Type
REMARK                         _______ _______ _______ _____ _____    ______ ____
ROOT
ATOM      1  C   UNL     1      49.116   8.637  16.572  0.00  0.00    +0.000 A 
ATOM      2  C   UNL     1      48.181   8.788  15.522  0.00  0.00    +0.000 A 
ATOM      3  C   UNL     1      48.137   7.886  14.442  0.00  0.00    +0.000 A 
ATOM      4  C   UNL     1      49.038   6.816  14.442  0.00  0.00    +0.000 A 
ATOM      5  C   UNL     1      49.930   6.635  15.502  0.00  0.00    +0.000 A 
ATOM      6  C   UNL     1      49.958   7.510  16.600  0.00  0.00    +0.000 A 
ENDROOT
BRANCH   1   8
ATOM      7  C   UNL     1      47.877  10.408  17.567  0.00  0.00    +0.000 C 
ATOM      8  O   UNL     1      49.072   9.624  17.532  0.00  0.00    +0.000 OA
ENDBRANCH   1   8
BRANCH   3   9
ATOM      9  C   UNL     1      47.150   8.052  13.303  0.00  0.00    +0.000 C 
BRANCH   9  10
ATOM     10  N   UNL     1      46.470   6.820  12.990  0.00  0.00    +0.000 N 
ATOM     11  C   UNL     1      45.448   6.762  12.064  0.00  0.00    +0.000 C 
ATOM     12  O   UNL     1      45.074   7.735  11.445  0.00  0.00    +0.000 OA
ATOM     13  H   UNL     1      46.554   6.073  13.669  0.00  0.00    +0.000 HD
BRANCH  11  14
ATOM     14  C   UNL     1      44.878   5.422  11.835  0.00  0.00    +0.000 A 
ATOM     15  C   UNL     1      44.173   4.786  12.849  0.00  0.00    +0.000 A 
ATOM     16  S   UNL     1      43.544   3.266  12.400  0.00  0.00    +0.000 S 
ATOM     17  C   UNL     1      44.232   3.382  10.848  0.00  0.00    +0.000 A 
ATOM     18  N   UNL     1      44.095   2.369   9.941  0.00  0.00    +0.000 NA
ATOM     19  C   UNL     1      44.688   2.578   8.814  0.00  0.00    +0.000 A 
ATOM     20  N   UNL     1      45.404   3.706   8.505  0.00  0.00    +0.000 N 
ATOM     21  C   UNL     1      45.524   4.768   9.365  0.00  0.00    +0.000 A 
ATOM     22  O   UNL     1      46.117   5.794   9.028  0.00  0.00    +0.000 OA
ATOM     23  C   UNL     1      44.910   4.577  10.661  0.00  0.00    +0.000 A 
ATOM     24  H   UNL     1      45.819   3.815   7.596  0.00  0.00    +0.000 HD
ENDBRANCH  11  14
ENDBRANCH   9  10
ENDBRANCH   3   9
BRANCH   6  25
ATOM     25  C   UNL     1      50.861   7.139  17.751  0.00  0.00    +0.000 C 
BRANCH  25  26
ATOM     26  N   UNL     1      51.497   5.855  17.524  0.00  0.00    +0.000 N 
ATOM     27  C   UNL     1      51.187   4.769  18.313  0.00  0.00    +0.000 C 
ATOM     28  O   UNL     1      50.401   4.856  19.245  0.00  0.00    +0.000 OA
ATOM     29  H   UNL     1      51.858   5.699  16.591  0.00  0.00    +0.000 HD
BRANCH  27  30
ATOM     30  C   UNL     1      51.807   3.464  17.945  0.00  0.00    +0.000 A 
ATOM     31  C   UNL     1      53.196   3.307  18.143  0.00  0.00    +0.000 A 
ATOM     32  C   UNL     1      53.807   2.066  17.982  0.00  0.00    +0.000 A 
ATOM     33 CL   UNL     1      55.506   1.922  18.207  0.00  0.00    +0.000 Cl
ATOM     34  C   UNL     1      53.048   0.951  17.662  0.00  0.00    +0.000 A 
ATOM     35  C   UNL     1      51.679   1.097  17.426  0.00  0.00    +0.000 A 
ATOM     36  C   UNL     1      51.046   2.356  17.517  0.00  0.00    +0.000 A 
BRANCH  36  37
ATOM     37  C   UNL     1      49.621   2.378  17.044  0.00  0.00    +0.000 C 
ATOM     38  O   UNL     1      49.340   1.911  15.945  0.00  0.00    +0.000 OA
ATOM     39  N   UNL     1      48.699   3.053  17.817  0.00  0.00    +0.000 N 
ATOM     40  H   UNL     1      48.860   3.099  18.813  0.00  0.00    +0.000 HD
BRANCH  39  41
ATOM     41  C   UNL     1      47.309   3.197  17.408  0.00  0.00    +0.000 C 
BRANCH  41  42
ATOM     42  C   UNL     1      47.144   4.287  16.353  0.00  0.00    +0.000 C 
BRANCH  42  43
ATOM     43  O   UNL     1      47.001   3.692  15.062  0.00  0.00    +0.000 OA
ATOM     44  H   UNL     1      47.866   3.283  14.854  0.00  0.00    +0.000 HD
ENDBRANCH  42  43
ENDBRANCH  41  42
ENDBRANCH  39  41
ENDBRANCH  36  37
ENDBRANCH  27  30
ENDBRANCH  25  26
ENDBRANCH   6  25
TORSDOF 11
ENDMDL
MODEL 3
REMARK VINA RESULT:    -6.933      3.712      8.788
REMARK INTER + INTRA:         -13.221
REMARK INTER:                 -10.627
REMARK INTRA:                  -2.594
REMARK UNBOUND:                -2.032
REMARK  Name = 
REMARK  12 active torsions:
REMARK  status: ('A' for Active; 'I' for Inactive)
REMARK    1  A    between atoms: C_1  and  O_2
REMARK    2  A    between atoms: O_2  and  C_3
REMARK    3  A    between atoms: C_5  and  C_6
REMARK    4  A    between atoms: C_6  and  N_7
REMARK    5  A    between atoms: C_8  and  C_10
REMARK    6  A    between atoms: C_22  and  C_23
REMARK    7  A    between atoms: C_23  and  N_24
REMARK    8  A    between atoms: C_25  and  C_27
REMARK    9  A    between atoms: C_33  and  C_34
REMARK   10  A    between atoms: N_36  and  C_37
REMARK   11  A    between atoms: C_37  and  C_38
REMARK   12  A    between atoms: C_38  and  O_39
REMARK                            x       y       z     vdW  Elec       q    Type
REMARK                         _______ _______ _______ _____ _____    ______ ____
ROOT
ATOM      1  C   UNL     1      47.331   6.138  13.375  0.00  0.00    +0.000 A 
ATOM      2  C   UNL     1      47.967   6.247  14.633  0.00  0.00    +0.000 A 
ATOM      3  C   UNL     1      48.715   7.388  14.982  0.00  0.00    +0.000 A 
ATOM      4  C   UNL     1      48.800   8.428  14.051  0.00  0.00    +0.000 A 
ATOM      5  C   UNL     1      48.133   8.346  12.826  0.00  0.00    +0.000 A 
ATOM      6  C   UNL     1      47.357   7.227  12.483  0.00  0.00    +0.000 A 
ENDROOT
BRANCH   1   8
ATOM      7  C   UNL     1      47.091   3.850  13.980  0.00  0.00    +0.000 C 
ATOM      8  O   UNL     1      46.679   4.944  13.158  0.00  0.00    +0.000 OA
ENDBRANCH   1   8
BRANCH   3   9
ATOM      9  C   UNL     1      49.414   7.504  16.322  0.00  0.00    +0.000 C 
BRANCH   9  10
ATOM     10  N   UNL     1      50.336   6.420  16.549  0.00  0.00    +0.000 N 
ATOM     11  C   UNL     1      51.012   6.269  17.744  0.00  0.00    +0.000 C 
ATOM     12  O   UNL     1      50.856   7.025  18.679  0.00  0.00    +0.000 OA
ATOM     13  H   UNL     1      50.697   5.955  15.724  0.00  0.00    +0.000 HD
BRANCH  11  14
ATOM     14  C   UNL     1      51.893   5.091  17.826  0.00  0.00    +0.000 A 
ATOM     15  C   UNL     1      53.240   5.253  18.127  0.00  0.00    +0.000 A 
ATOM     16  S   UNL     1      54.103   3.786  18.229  0.00  0.00    +0.000 S 
ATOM     17  C   UNL     1      52.717   2.883  17.829  0.00  0.00    +0.000 A 
ATOM     18  N   UNL     1      52.773   1.523  17.712  0.00  0.00    +0.000 NA
ATOM     19  C   UNL     1      51.657   0.969  17.378  0.00  0.00    +0.000 A 
ATOM     20  N   UNL     1      50.485   1.645  17.154  0.00  0.00    +0.000 N 
ATOM     21  C   UNL     1      50.371   3.004  17.308  0.00  0.00    +0.000 A 
ATOM     22  O   UNL     1      49.286   3.570  17.165  0.00  0.00    +0.000 OA
ATOM     23  C   UNL     1      51.601   3.686  17.647  0.00  0.00    +0.000 A 
ATOM     24  H   UNL     1      49.643   1.147  16.922  0.00  0.00    +0.000 HD
ENDBRANCH  11  14
ENDBRANCH   9  10
ENDBRANCH   3   9
BRANCH   6  25
ATOM     25  C   UNL     1      46.569   7.306  11.199  0.00  0.00    +0.000 C 
BRANCH  25  26
ATOM     26  N   UNL     1      46.546   6.025  10.518  0.00  0.00    +0.000 N 
ATOM     27  C   UNL     1      45.373   5.528   9.993  0.00  0.00    +0.000 C 
ATOM     28  O   UNL     1      44.314   6.125  10.113  0.00  0.00    +0.000 OA
ATOM     29  H   UNL     1      47.429   5.714  10.131  0.00  0.00    +0.000 HD
BRANCH  27  30
ATOM     30  C   UNL     1      45.461   4.257   9.220  0.00  0.00    +0.000 A 
ATOM     31  C   UNL     1      46.110   4.283   7.966  0.00  0.00    +0.000 A 
ATOM     32  C   UNL     1      46.376   3.105   7.272  0.00  0.00    +0.000 A 
ATOM     33 CL   UNL     1      47.144   3.181   5.735  0.00  0.00    +0.000 Cl
ATOM     34  C   UNL     1      46.042   1.878   7.826  0.00  0.00    +0.000 A 
ATOM     35  C   UNL     1      45.366   1.838   9.048  0.00  0.00    +0.000 A 
ATOM     36  C   UNL     1      45.024   3.021   9.740  0.00  0.00    +0.000 A 
BRANCH  36  37
ATOM     37  C   UNL     1      44.132   2.815  10.930  0.00  0.00    +0.000 C 
ATOM     38  O   UNL     1      43.240   1.974  10.882  0.00  0.00    +0.000 OA
ATOM     39  N   UNL     1      44.269   3.686  11.992  0.00  0.00    +0.000 N 
ATOM     40  H   UNL     1      45.179   4.093  12.155  0.00  0.00    +0.000 HD
BRANCH  39  41
ATOM     41  C   UNL     1      43.402   3.619  13.160  0.00  0.00    +0.000 C 
BRANCH  41  42
ATOM     42  C   UNL     1      42.866   4.996  13.541  0.00  0.00    +0.000 C 
BRANCH  42  43
ATOM     43  O   UNL     1      43.804   6.003  13.153  0.00  0.00    +0.000 OA
ATOM     44  H   UNL     1      43.571   6.251  12.235  0.00  0.00    +0.000 HD
ENDBRANCH  42  43
ENDBRANCH  41  42
ENDBRANCH  39  41
ENDBRANCH  36  37
ENDBRANCH  27  30
ENDBRANCH  25  26
ENDBRANCH   6  25
TORSDOF 11
ENDMDL
MODEL 4
REMARK VINA RESULT:    -6.791      3.863      8.055
REMARK INTER + INTRA:         -12.991
REMARK INTER:                 -10.361
REMARK INTRA:                  -2.630
REMARK UNBOUND:                -2.032
REMARK  Name = 
REMARK  12 active torsions:
REMARK  status: ('A' for Active; 'I' for Inactive)
REMARK    1  A    between atoms: C_1  and  O_2
REMARK    2  A    between atoms: O_2  and  C_3
REMARK    3  A    between atoms: C_5  and  C_6
REMARK    4  A    between atoms: C_6  and  N_7
REMARK    5  A    between atoms: C_8  and  C_10
REMARK    6  A    between atoms: C_22  and  C_23
REMARK    7  A    between atoms: C_23  and  N_24
REMARK    8  A    between atoms: C_25  and  C_27
REMARK    9  A    between atoms: C_33  and  C_34
REMARK   10  A    between atoms: N_36  and  C_37
REMARK   11  A    between atoms: C_37  and  C_38
REMARK   12  A    between atoms: C_38  and  O_39
REMARK                            x       y       z     vdW  Elec       q    Type
REMARK                         _______ _______ _______ _____ _____    ______ ____
ROOT
ATOM      1  C   UNL     1      50.066   8.164  15.318  0.00  0.00    +0.000 A 
ATOM      2  C   UNL     1      50.727   7.816  16.518  0.00  0.00    +0.000 A 
ATOM      3  C   UNL     1      50.166   8.107  17.776  0.00  0.00    +0.000 A 
ATOM      4  C   UNL     1      48.919   8.739  17.810  0.00  0.00    +0.000 A 
ATOM      5  C   UNL     1      48.239   9.040  16.626  0.00  0.00    +0.000 A 
ATOM      6  C   UNL     1      48.776   8.723  15.368  0.00  0.00    +0.000 A 
ENDROOT
BRANCH   1   8
ATOM      7  C   UNL     1      51.631   8.881  13.676  0.00  0.00    +0.000 C 
ATOM      8  O   UNL     1      50.760   7.860  14.167  0.00  0.00    +0.000 OA
ENDBRANCH   1   8
BRANCH   3   9
ATOM      9  C   UNL     1      50.877   7.755  19.068  0.00  0.00    +0.000 C 
BRANCH   9  10
ATOM     10  N   UNL     1      51.380   6.404  19.059  0.00  0.00    +0.000 N 
ATOM     11  C   UNL     1      52.699   6.114  18.769  0.00  0.00    +0.000 C 
ATOM     12  O   UNL     1      53.516   6.977  18.524  0.00  0.00    +0.000 OA
ATOM     13  H   UNL     1      50.691   5.666  18.977  0.00  0.00    +0.000 HD
BRANCH  11  14
ATOM     14  C   UNL     1      53.061   4.688  18.833  0.00  0.00    +0.000 A 
ATOM     15  C   UNL     1      54.198   4.292  19.527  0.00  0.00    +0.000 A 
ATOM     16  S   UNL     1      54.442   2.603  19.540  0.00  0.00    +0.000 S 
ATOM     17  C   UNL     1      53.061   2.345  18.579  0.00  0.00    +0.000 A 
ATOM     18  N   UNL     1      52.705   1.086  18.185  0.00  0.00    +0.000 NA
ATOM     19  C   UNL     1      51.653   1.037  17.439  0.00  0.00    +0.000 A 
ATOM     20  N   UNL     1      50.919   2.129  17.051  0.00  0.00    +0.000 N 
ATOM     21  C   UNL     1      51.211   3.405  17.463  0.00  0.00    +0.000 A 
ATOM     22  O   UNL     1      50.491   4.353  17.150  0.00  0.00    +0.000 OA
ATOM     23  C   UNL     1      52.403   3.527  18.274  0.00  0.00    +0.000 A 
ATOM     24  H   UNL     1      50.093   2.017  16.489  0.00  0.00    +0.000 HD
ENDBRANCH  11  14
ENDBRANCH   9  10
ENDBRANCH   3   9
BRANCH   6  25
ATOM     25  C   UNL     1      47.895   8.964  14.166  0.00  0.00    +0.000 C 
BRANCH  25  26
ATOM     26  N   UNL     1      47.068   7.806  13.882  0.00  0.00    +0.000 N 
ATOM     27  C   UNL     1      47.325   7.011  12.786  0.00  0.00    +0.000 C 
ATOM     28  O   UNL     1      48.225   7.270  12.002  0.00  0.00    +0.000 OA
ATOM     29  H   UNL     1      46.575   7.410  14.673  0.00  0.00    +0.000 HD
BRANCH  27  30
ATOM     30  C   UNL     1      46.493   5.784  12.629  0.00  0.00    +0.000 A 
ATOM     31  C   UNL     1      45.652   5.690  11.499  0.00  0.00    +0.000 A 
ATOM     32  C   UNL     1      44.980   4.506  11.202  0.00  0.00    +0.000 A 
ATOM     33 CL   UNL     1      43.944   4.440   9.831  0.00  0.00    +0.000 Cl
ATOM     34  C   UNL     1      45.161   3.383  11.996  0.00  0.00    +0.000 A 
ATOM     35  C   UNL     1      45.960   3.472  13.138  0.00  0.00    +0.000 A 
ATOM     36  C   UNL     1      46.600   4.678  13.498  0.00  0.00    +0.000 A 
BRANCH  36  37
ATOM     37  C   UNL     1      47.255   4.661  14.849  0.00  0.00    +0.000 C 
ATOM     38  O   UNL     1      48.317   5.252  15.016  0.00  0.00    +0.000 OA
ATOM     39  N   UNL     1      46.697   3.858  15.823  0.00  0.00    +0.000 N 
ATOM     40  H   UNL     1      45.701   3.692  15.785  0.00  0.00    +0.000 HD
BRANCH  39  41
ATOM     41  C   UNL     1      47.299   3.713  17.140  0.00  0.00    +0.000 C 
BRANCH  41  42
ATOM     42  C   UNL     1      47.136   4.981  17.975  0.00  0.00    +0.000 C 
BRANCH  42  43
ATOM     43  O   UNL     1      48.336   5.232  18.709  0.00  0.00    +0.000 OA
ATOM     44  H   UNL     1      48.066   5.330  19.645  0.00  0.00    +0.000 HD
ENDBRANCH  42  43
ENDBRANCH  41  42
ENDBRANCH  39  41
ENDBRANCH  36  37
ENDBRANCH  27  30
ENDBRANCH  25  26
ENDBRANCH   6  25
TORSDOF 11
ENDMDL
MODEL 5
REMARK VINA RESULT:    -6.683      3.861      9.328
REMARK INTER + INTRA:         -12.818
REMARK INTER:                 -10.555
REMARK INTRA:                  -2.263
REMARK UNBOUND:                -2.032
REMARK  Name = 
REMARK  12 active torsions:
REMARK  status: ('A' for Active; 'I' for Inactive)
REMARK    1  A    between atoms: C_1  and  O_2
REMARK    2  A    between atoms: O_2  and  C_3
REMARK    3  A    between atoms: C_5  and  C_6
REMARK    4  A    between atoms: C_6  and  N_7
REMARK    5  A    between atoms: C_8  and  C_10
REMARK    6  A    between atoms: C_22  and  C_23
REMARK    7  A    between atoms: C_23  and  N_24
REMARK    8  A    between atoms: C_25  and  C_27
REMARK    9  A    between atoms: C_33  and  C_34
REMARK   10  A    between atoms: N_36  and  C_37
REMARK   11  A    between atoms: C_37  and  C_38
REMARK   12  A    between atoms: C_38  and  O_39
REMARK                            x       y       z     vdW  Elec       q    Type
REMARK                         _______ _______ _______ _____ _____    ______ ____
ROOT
ATOM      1  C   UNL     1      47.654   5.862  14.465  0.00  0.00    +0.000 A 
ATOM      2  C   UNL     1      48.831   6.419  15.015  0.00  0.00    +0.000 A 
ATOM      3  C   UNL     1      49.338   5.986  16.256  0.00  0.00    +0.000 A 
ATOM      4  C   UNL     1      48.651   4.971  16.929  0.00  0.00    +0.000 A 
ATOM      5  C   UNL     1      47.515   4.384  16.366  0.00  0.00    +0.000 A 
ATOM      6  C   UNL     1      47.022   4.785  15.114  0.00  0.00    +0.000 A 
ENDROOT
BRANCH   1   8
ATOM      7  C   UNL     1      48.302   6.813  12.383  0.00  0.00    +0.000 C 
ATOM      8  O   UNL     1      47.253   6.420  13.270  0.00  0.00    +0.000 OA
ENDBRANCH   1   8
BRANCH   3   9
ATOM      9  C   UNL     1      50.590   6.592  16.860  0.00  0.00    +0.000 C 
BRANCH   9  10
ATOM     10  N   UNL     1      51.539   5.585  17.265  0.00  0.00    +0.000 N 
ATOM     11  C   UNL     1      51.700   5.217  18.586  0.00  0.00    +0.000 C 
ATOM     12  O   UNL     1      51.042   5.703  19.481  0.00  0.00    +0.000 OA
ATOM     13  H   UNL     1      52.280   5.373  16.607  0.00  0.00    +0.000 HD
BRANCH  11  14
ATOM     14  C   UNL     1      52.687   4.151  18.829  0.00  0.00    +0.000 A 
ATOM     15  C   UNL     1      53.810   4.410  19.604  0.00  0.00    +0.000 A 
ATOM     16  S   UNL     1      54.823   3.054  19.823  0.00  0.00    +0.000 S 
ATOM     17  C   UNL     1      53.819   2.084  18.850  0.00  0.00    +0.000 A 
ATOM     18  N   UNL     1      54.138   0.780  18.592  0.00  0.00    +0.000 NA
ATOM     19  C   UNL     1      53.304   0.169  17.819  0.00  0.00    +0.000 A 
ATOM     20  N   UNL     1      52.178   0.737  17.280  0.00  0.00    +0.000 N 
ATOM     21  C   UNL     1      51.794   2.026  17.551  0.00  0.00    +0.000 A 
ATOM     22  O   UNL     1      50.741   2.481  17.104  0.00  0.00    +0.000 OA
ATOM     23  C   UNL     1      52.710   2.774  18.385  0.00  0.00    +0.000 A 
ATOM     24  H   UNL     1      51.557   0.195  16.705  0.00  0.00    +0.000 HD
ENDBRANCH  11  14
ENDBRANCH   9  10
ENDBRANCH   3   9
BRANCH   6  25
ATOM     25  C   UNL     1      45.875   3.988  14.540  0.00  0.00    +0.000 C 
BRANCH  25  26
ATOM     26  N   UNL     1      45.920   3.976  13.090  0.00  0.00    +0.000 N 
ATOM     27  C   UNL     1      44.886   3.431  12.360  0.00  0.00    +0.000 C 
ATOM     28  O   UNL     1      43.922   2.911  12.902  0.00  0.00    +0.000 OA
ATOM     29  H   UNL     1      46.510   4.677  12.660  0.00  0.00    +0.000 HD
BRANCH  27  30
ATOM     30  C   UNL     1      44.965   3.555  10.877  0.00  0.00    +0.000 A 
ATOM     31  C   UNL     1      45.581   2.511  10.152  0.00  0.00    +0.000 A 
ATOM     32  C   UNL     1      45.537   2.481   8.761  0.00  0.00    +0.000 A 
ATOM     33 CL   UNL     1      46.323   1.207   7.915  0.00  0.00    +0.000 Cl
ATOM     34  C   UNL     1      44.848   3.462   8.063  0.00  0.00    +0.000 A 
ATOM     35  C   UNL     1      44.265   4.521   8.763  0.00  0.00    +0.000 A 
ATOM     36  C   UNL     1      44.352   4.611  10.170  0.00  0.00    +0.000 A 
BRANCH  36  37
ATOM     37  C   UNL     1      43.849   5.902  10.748  0.00  0.00    +0.000 C 
ATOM     38  O   UNL     1      42.646   6.059  10.929  0.00  0.00    +0.000 OA
ATOM     39  N   UNL     1      44.762   6.923  10.926  0.00  0.00    +0.000 N 
ATOM     40  H   UNL     1      45.722   6.671  11.111  0.00  0.00    +0.000 HD
BRANCH  39  41
ATOM     41  C   UNL     1      44.363   8.237  11.409  0.00  0.00    +0.000 C 
BRANCH  41  42
ATOM     42  C   UNL     1      45.568   9.066  11.844  0.00  0.00    +0.000 C 
BRANCH  42  43
ATOM     43  O   UNL     1      45.700   9.016  13.266  0.00  0.00    +0.000 OA
ATOM     44  H   UNL     1      45.154   9.749  13.615  0.00  0.00    +0.000 HD
ENDBRANCH  42  43
ENDBRANCH  41  42
ENDBRANCH  39  41
ENDBRANCH  36  37
ENDBRANCH  27  30
ENDBRANCH  25  26
ENDBRANCH   6  25
TORSDOF 11
ENDMDL
MODEL 6
REMARK VINA RESULT:    -6.632      3.717      6.034
REMARK INTER + INTRA:         -12.735
REMARK INTER:                 -11.135
REMARK INTRA:                  -1.601
REMARK UNBOUND:                -2.032
REMARK  Name = 
REMARK  12 active torsions:
REMARK  status: ('A' for Active; 'I' for Inactive)
REMARK    1  A    between atoms: C_1  and  O_2
REMARK    2  A    between atoms: O_2  and  C_3
REMARK    3  A    between atoms: C_5  and  C_6
REMARK    4  A    between atoms: C_6  and  N_7
REMARK    5  A    between atoms: C_8  and  C_10
REMARK    6  A    between atoms: C_22  and  C_23
REMARK    7  A    between atoms: C_23  and  N_24
REMARK    8  A    between atoms: C_25  and  C_27
REMARK    9  A    between atoms: C_33  and  C_34
REMARK   10  A    between atoms: N_36  and  C_37
REMARK   11  A    between atoms: C_37  and  C_38
REMARK   12  A    between atoms: C_38  and  O_39
REMARK                            x       y       z     vdW  Elec       q    Type
REMARK                         _______ _______ _______ _____ _____    ______ ____
ROOT
ATOM      1  C   UNL     1      45.561   8.311  11.818  0.00  0.00    +0.000 A 
ATOM      2  C   UNL     1      44.798   7.204  11.378  0.00  0.00    +0.000 A 
ATOM      3  C   UNL     1      45.168   5.884  11.699  0.00  0.00    +0.000 A 
ATOM      4  C   UNL     1      46.308   5.693  12.485  0.00  0.00    +0.000 A 
ATOM      5  C   UNL     1      47.037   6.785  12.962  0.00  0.00    +0.000 A 
ATOM      6  C   UNL     1      46.657   8.106  12.676  0.00  0.00    +0.000 A 
ENDROOT
BRANCH   1   8
ATOM      7  C   UNL     1      43.727   9.591  11.006  0.00  0.00    +0.000 C 
ATOM      8  O   UNL     1      45.105   9.537  11.384  0.00  0.00    +0.000 OA
ENDBRANCH   1   8
BRANCH   3   9
ATOM      9  C   UNL     1      44.365   4.691  11.216  0.00  0.00    +0.000 C 
BRANCH   9  10
ATOM     10  N   UNL     1      45.108   3.878  10.286  0.00  0.00    +0.000 N 
ATOM     11  C   UNL     1      44.591   2.714   9.754  0.00  0.00    +0.000 C 
ATOM     12  O   UNL     1      43.477   2.316  10.019  0.00  0.00    +0.000 OA
ATOM     13  H   UNL     1      46.112   4.019  10.266  0.00  0.00    +0.000 HD
BRANCH  11  14
ATOM     14  C   UNL     1      45.465   2.015   8.794  0.00  0.00    +0.000 A 
ATOM     15  C   UNL     1      45.499   0.627   8.773  0.00  0.00    +0.000 A 
ATOM     16  S   UNL     1      46.526  -0.016   7.572  0.00  0.00    +0.000 S 
ATOM     17  C   UNL     1      46.996   1.539   7.068  0.00  0.00    +0.000 A 
ATOM     18  N   UNL     1      47.910   1.707   6.066  0.00  0.00    +0.000 NA
ATOM     19  C   UNL     1      48.195   2.938   5.804  0.00  0.00    +0.000 A 
ATOM     20  N   UNL     1      47.650   4.021   6.447  0.00  0.00    +0.000 N 
ATOM     21  C   UNL     1      46.694   3.900   7.423  0.00  0.00    +0.000 A 
ATOM     22  O   UNL     1      46.177   4.896   7.931  0.00  0.00    +0.000 OA
ATOM     23  C   UNL     1      46.360   2.540   7.786  0.00  0.00    +0.000 A 
ATOM     24  H   UNL     1      47.898   4.956   6.174  0.00  0.00    +0.000 HD
ENDBRANCH  11  14
ENDBRANCH   9  10
ENDBRANCH   3   9
BRANCH   6  25
ATOM     25  C   UNL     1      47.432   9.207  13.359  0.00  0.00    +0.000 C 
BRANCH  25  26
ATOM     26  N   UNL     1      47.483   8.999  14.794  0.00  0.00    +0.000 N 
ATOM     27  C   UNL     1      48.668   8.672  15.415  0.00  0.00    +0.000 C 
ATOM     28  O   UNL     1      49.701   8.510  14.782  0.00  0.00    +0.000 OA
ATOM     29  H   UNL     1      46.753   9.451  15.332  0.00  0.00    +0.000 HD
BRANCH  27  30
ATOM     30  C   UNL     1      48.652   8.580  16.903  0.00  0.00    +0.000 A 
ATOM     31  C   UNL     1      48.663   9.781  17.645  0.00  0.00    +0.000 A 
ATOM     32  C   UNL     1      48.478   9.773  19.025  0.00  0.00    +0.000 A 
ATOM     33 CL   UNL     1      48.525  11.255  19.896  0.00  0.00    +0.000 Cl
ATOM     34  C   UNL     1      48.237   8.580  19.689  0.00  0.00    +0.000 A 
ATOM     35  C   UNL     1      48.260   7.379  18.975  0.00  0.00    +0.000 A 
ATOM     36  C   UNL     1      48.512   7.354  17.586  0.00  0.00    +0.000 A 
BRANCH  36  37
ATOM     37  C   UNL     1      48.698   5.981  17.007  0.00  0.00    +0.000 C 
ATOM     38  O   UNL     1      49.829   5.576  16.756  0.00  0.00    +0.000 OA
ATOM     39  N   UNL     1      47.566   5.275  16.652  0.00  0.00    +0.000 N 
ATOM     40  H   UNL     1      46.717   5.453  17.170  0.00  0.00    +0.000 HD
BRANCH  39  41
ATOM     41  C   UNL     1      47.641   3.969  16.015  0.00  0.00    +0.000 C 
BRANCH  41  42
ATOM     42  C   UNL     1      47.697   2.844  17.045  0.00  0.00    +0.000 C 
BRANCH  42  43
ATOM     43  O   UNL     1      46.459   2.780  17.757  0.00  0.00    +0.000 OA
ATOM     44  H   UNL     1      46.240   1.829  17.834  0.00  0.00    +0.000 HD
ENDBRANCH  42  43
ENDBRANCH  41  42
ENDBRANCH  39  41
ENDBRANCH  36  37
ENDBRANCH  27  30
ENDBRANCH  25  26
ENDBRANCH   6  25
TORSDOF 11
ENDMDL
MODEL 7
REMARK VINA RESULT:    -6.542      4.318      9.413
REMARK INTER + INTRA:         -12.589
REMARK INTER:                  -9.700
REMARK INTRA:                  -2.889
REMARK UNBOUND:                -2.032
REMARK  Name = 
REMARK  12 active torsions:
REMARK  status: ('A' for Active; 'I' for Inactive)
REMARK    1  A    between atoms: C_1  and  O_2
REMARK    2  A    between atoms: O_2  and  C_3
REMARK    3  A    between atoms: C_5  and  C_6
REMARK    4  A    between atoms: C_6  and  N_7
REMARK    5  A    between atoms: C_8  and  C_10
REMARK    6  A    between atoms: C_22  and  C_23
REMARK    7  A    between atoms: C_23  and  N_24
REMARK    8  A    between atoms: C_25  and  C_27
REMARK    9  A    between atoms: C_33  and  C_34
REMARK   10  A    between atoms: N_36  and  C_37
REMARK   11  A    between atoms: C_37  and  C_38
REMARK   12  A    between atoms: C_38  and  O_39
REMARK                            x       y       z     vdW  Elec       q    Type
REMARK                         _______ _______ _______ _____ _____    ______ ____
ROOT
ATOM      1  C   UNL     1      49.723   3.832  17.516  0.00  0.00    +0.000 A 
ATOM      2  C   UNL     1      50.751   4.412  18.294  0.00  0.00    +0.000 A 
ATOM      3  C   UNL     1      50.492   5.478  19.177  0.00  0.00    +0.000 A 
ATOM      4  C   UNL     1      49.177   5.942  19.279  0.00  0.00    +0.000 A 
ATOM      5  C   UNL     1      48.149   5.340  18.549  0.00  0.00    +0.000 A 
ATOM      6  C   UNL     1      48.392   4.254  17.692  0.00  0.00    +0.000 A 
ENDROOT
BRANCH   1   8
ATOM      7  C   UNL     1      50.880   1.769  17.262  0.00  0.00    +0.000 C 
ATOM      8  O   UNL     1      50.137   2.833  16.663  0.00  0.00    +0.000 OA
ENDBRANCH   1   8
BRANCH   3   9
ATOM      9  C   UNL     1      51.593   6.117  20.001  0.00  0.00    +0.000 C 
BRANCH   9  10
ATOM     10  N   UNL     1      52.385   7.038  19.226  0.00  0.00    +0.000 N 
ATOM     11  C   UNL     1      53.737   7.212  19.451  0.00  0.00    +0.000 C 
ATOM     12  O   UNL     1      54.341   6.588  20.297  0.00  0.00    +0.000 OA
ATOM     13  H   UNL     1      51.879   7.759  18.726  0.00  0.00    +0.000 HD
BRANCH  11  14
ATOM     14  C   UNL     1      54.408   8.167  18.552  0.00  0.00    +0.000 A 
ATOM     15  C   UNL     1      55.003   9.309  19.074  0.00  0.00    +0.000 A 
ATOM     16  S   UNL     1      55.775  10.279  17.902  0.00  0.00    +0.000 S 
ATOM     17  C   UNL     1      55.301   9.231  16.648  0.00  0.00    +0.000 A 
ATOM     18  N   UNL     1      55.619   9.503  15.347  0.00  0.00    +0.000 NA
ATOM     19  C   UNL     1      55.175   8.639  14.497  0.00  0.00    +0.000 A 
ATOM     20  N   UNL     1      54.445   7.525  14.824  0.00  0.00    +0.000 N 
ATOM     21  C   UNL     1      54.146   7.187  16.120  0.00  0.00    +0.000 A 
ATOM     22  O   UNL     1      53.548   6.143  16.382  0.00  0.00    +0.000 OA
ATOM     23  C   UNL     1      54.587   8.139  17.117  0.00  0.00    +0.000 A 
ATOM     24  H   UNL     1      54.153   6.878  14.113  0.00  0.00    +0.000 HD
ENDBRANCH  11  14
ENDBRANCH   9  10
ENDBRANCH   3   9
BRANCH   6  25
ATOM     25  C   UNL     1      47.190   3.593  17.063  0.00  0.00    +0.000 C 
BRANCH  25  26
ATOM     26  N   UNL     1      46.652   4.401  15.985  0.00  0.00    +0.000 N 
ATOM     27  C   UNL     1      46.860   4.046  14.670  0.00  0.00    +0.000 C 
ATOM     28  O   UNL     1      47.530   3.070  14.367  0.00  0.00    +0.000 OA
ATOM     29  H   UNL     1      45.850   4.973  16.219  0.00  0.00    +0.000 HD
BRANCH  27  30
ATOM     30  C   UNL     1      46.184   4.872  13.629  0.00  0.00    +0.000 A 
ATOM     31  C   UNL     1      44.983   4.385  13.068  0.00  0.00    +0.000 A 
ATOM     32  C   UNL     1      44.215   5.179  12.221  0.00  0.00    +0.000 A 
ATOM     33 CL   UNL     1      42.772   4.540  11.537  0.00  0.00    +0.000 Cl
ATOM     34  C   UNL     1      44.599   6.483  11.947  0.00  0.00    +0.000 A 
ATOM     35  C   UNL     1      45.804   6.967  12.464  0.00  0.00    +0.000 A 
ATOM     36  C   UNL     1      46.635   6.160  13.272  0.00  0.00    +0.000 A 
BRANCH  36  37
ATOM     37  C   UNL     1      47.978   6.756  13.581  0.00  0.00    +0.000 C 
ATOM     38  O   UNL     1      48.987   6.280  13.069  0.00  0.00    +0.000 OA
ATOM     39  N   UNL     1      48.036   7.741  14.546  0.00  0.00    +0.000 N 
ATOM     40  H   UNL     1      47.224   8.329  14.670  0.00  0.00    +0.000 HD
BRANCH  39  41
ATOM     41  C   UNL     1      49.297   8.329  14.973  0.00  0.00    +0.000 C 
BRANCH  41  42
ATOM     42  C   UNL     1      49.973   7.488  16.052  0.00  0.00    +0.000 C 
BRANCH  42  43
ATOM     43  O   UNL     1      50.852   6.539  15.444  0.00  0.00    +0.000 OA
ATOM     44  H   UNL     1      50.422   6.267  14.608  0.00  0.00    +0.000 HD
ENDBRANCH  42  43
ENDBRANCH  41  42
ENDBRANCH  39  41
ENDBRANCH  36  37
ENDBRANCH  27  30
ENDBRANCH  25  26
ENDBRANCH   6  25
TORSDOF 11
ENDMDL
MODEL 8
REMARK VINA RESULT:    -6.408      3.532      5.403
REMARK INTER + INTRA:         -12.373
REMARK INTER:                 -11.084
REMARK INTRA:                  -1.289
REMARK UNBOUND:                -2.032
REMARK  Name = 
REMARK  12 active torsions:
REMARK  status: ('A' for Active; 'I' for Inactive)
REMARK    1  A    between atoms: C_1  and  O_2
REMARK    2  A    between atoms: O_2  and  C_3
REMARK    3  A    between atoms: C_5  and  C_6
REMARK    4  A    between atoms: C_6  and  N_7
REMARK    5  A    between atoms: C_8  and  C_10
REMARK    6  A    between atoms: C_22  and  C_23
REMARK    7  A    between atoms: C_23  and  N_24
REMARK    8  A    between atoms: C_25  and  C_27
REMARK    9  A    between atoms: C_33  and  C_34
REMARK   10  A    between atoms: N_36  and  C_37
REMARK   11  A    between atoms: C_37  and  C_38
REMARK   12  A    between atoms: C_38  and  O_39
REMARK                            x       y       z     vdW  Elec       q    Type
REMARK                         _______ _______ _______ _____ _____    ______ ____
ROOT
ATOM      1  C   UNL     1      46.939   6.176  13.504  0.00  0.00    +0.000 A 
ATOM      2  C   UNL     1      46.048   5.665  12.533  0.00  0.00    +0.000 A 
ATOM      3  C   UNL     1      45.339   6.518  11.665  0.00  0.00    +0.000 A 
ATOM      4  C   UNL     1      45.554   7.895  11.777  0.00  0.00    +0.000 A 
ATOM      5  C   UNL     1      46.471   8.402  12.702  0.00  0.00    +0.000 A 
ATOM      6  C   UNL     1      47.207   7.557  13.548  0.00  0.00    +0.000 A 
ENDROOT
BRANCH   1   8
ATOM      7  C   UNL     1      47.158   3.869  14.041  0.00  0.00    +0.000 C 
ATOM      8  O   UNL     1      47.522   5.224  14.313  0.00  0.00    +0.000 OA
ENDBRANCH   1   8
BRANCH   3   9
ATOM      9  C   UNL     1      44.367   5.979  10.634  0.00  0.00    +0.000 C 
BRANCH   9  10
ATOM     10  N   UNL     1      44.933   4.897   9.868  0.00  0.00    +0.000 N 
ATOM     11  C   UNL     1      44.436   3.611   9.937  0.00  0.00    +0.000 C 
ATOM     12  O   UNL     1      43.484   3.318  10.628  0.00  0.00    +0.000 OA
ATOM     13  H   UNL     1      45.873   5.037   9.516  0.00  0.00    +0.000 HD
BRANCH  11  14
ATOM     14  C   UNL     1      45.106   2.627   9.068  0.00  0.00    +0.000 A 
ATOM     15  C   UNL     1      44.773   1.282   9.158  0.00  0.00    +0.000 A 
ATOM     16  S   UNL     1      45.608   0.291   8.050  0.00  0.00    +0.000 S 
ATOM     17  C   UNL     1      46.480   1.619   7.440  0.00  0.00    +0.000 A 
ATOM     18  N   UNL     1      47.419   1.454   6.461  0.00  0.00    +0.000 NA
ATOM     19  C   UNL     1      48.023   2.539   6.112  0.00  0.00    +0.000 A 
ATOM     20  N   UNL     1      47.775   3.778   6.646  0.00  0.00    +0.000 N 
ATOM     21  C   UNL     1      46.808   3.998   7.594  0.00  0.00    +0.000 A 
ATOM     22  O   UNL     1      46.566   5.134   8.002  0.00  0.00    +0.000 OA
ATOM     23  C   UNL     1      46.121   2.810   8.053  0.00  0.00    +0.000 A 
ATOM     24  H   UNL     1      48.265   4.588   6.308  0.00  0.00    +0.000 HD
ENDBRANCH  11  14
ENDBRANCH   9  10
ENDBRANCH   3   9
BRANCH   6  25
ATOM     25  C   UNL     1      48.269   8.200  14.406  0.00  0.00    +0.000 C 
BRANCH  25  26
ATOM     26  N   UNL     1      48.010   7.978  15.816  0.00  0.00    +0.000 N 
ATOM     27  C   UNL     1      48.883   7.235  16.582  0.00  0.00    +0.000 C 
ATOM     28  O   UNL     1      49.875   6.712  16.098  0.00  0.00    +0.000 OA
ATOM     29  H   UNL     1      47.415   8.661  16.269  0.00  0.00    +0.000 HD
BRANCH  27  30
ATOM     30  C   UNL     1      48.595   7.145  18.041  0.00  0.00    +0.000 A 
ATOM     31  C   UNL     1      48.777   8.302  18.830  0.00  0.00    +0.000 A 
ATOM     32  C   UNL     1      48.367   8.335  20.160  0.00  0.00    +0.000 A 
ATOM     33 CL   UNL     1      48.632   9.754  21.094  0.00  0.00    +0.000 Cl
ATOM     34  C   UNL     1      47.731   7.238  20.722  0.00  0.00    +0.000 A 
ATOM     35  C   UNL     1      47.577   6.073  19.966  0.00  0.00    +0.000 A 
ATOM     36  C   UNL     1      48.044   5.990  18.636  0.00  0.00    +0.000 A 
BRANCH  36  37
ATOM     37  C   UNL     1      47.979   4.617  18.033  0.00  0.00    +0.000 C 
ATOM     38  O   UNL     1      46.890   4.124  17.760  0.00  0.00    +0.000 OA
ATOM     39  N   UNL     1      49.157   3.903  17.936  0.00  0.00    +0.000 N 
ATOM     40  H   UNL     1      50.017   4.423  17.825  0.00  0.00    +0.000 HD
BRANCH  39  41
ATOM     41  C   UNL     1      49.191   2.536  17.437  0.00  0.00    +0.000 C 
BRANCH  41  42
ATOM     42  C   UNL     1      50.602   2.122  17.030  0.00  0.00    +0.000 C 
BRANCH  42  43
ATOM     43  O   UNL     1      51.001   0.969  17.776  0.00  0.00    +0.000 OA
ATOM     44  H   UNL     1      50.829   1.182  18.715  0.00  0.00    +0.000 HD
ENDBRANCH  42  43
ENDBRANCH  41  42
ENDBRANCH  39  41
ENDBRANCH  36  37
ENDBRANCH  27  30
ENDBRANCH  25  26
ENDBRANCH   6  25
TORSDOF 11
ENDMDL
MODEL 9
REMARK VINA RESULT:    -6.278      5.499      8.005
REMARK INTER + INTRA:         -12.164
REMARK INTER:                 -10.123
REMARK INTRA:                  -2.041
REMARK UNBOUND:                -2.032
REMARK  Name = 
REMARK  12 active torsions:
REMARK  status: ('A' for Active; 'I' for Inactive)
REMARK    1  A    between atoms: C_1  and  O_2
REMARK    2  A    between atoms: O_2  and  C_3
REMARK    3  A    between atoms: C_5  and  C_6
REMARK    4  A    between atoms: C_6  and  N_7
REMARK    5  A    between atoms: C_8  and  C_10
REMARK    6  A    between atoms: C_22  and  C_23
REMARK    7  A    between atoms: C_23  and  N_24
REMARK    8  A    between atoms: C_25  and  C_27
REMARK    9  A    between atoms: C_33  and  C_34
REMARK   10  A    between atoms: N_36  and  C_37
REMARK   11  A    between atoms: C_37  and  C_38
REMARK   12  A    between atoms: C_38  and  O_39
REMARK                            x       y       z     vdW  Elec       q    Type
REMARK                         _______ _______ _______ _____ _____    ______ ____
ROOT
ATOM      1  C   UNL     1      50.720   8.840  12.239  0.00  0.00    +0.000 A 
ATOM      2  C   UNL     1      51.898   9.214  11.552  0.00  0.00    +0.000 A 
ATOM      3  C   UNL     1      51.888  10.225  10.573  0.00  0.00    +0.000 A 
ATOM      4  C   UNL     1      50.676  10.869  10.305  0.00  0.00    +0.000 A 
ATOM      5  C   UNL     1      49.520  10.537  11.017  0.00  0.00    +0.000 A 
ATOM      6  C   UNL     1      49.528   9.554  12.019  0.00  0.00    +0.000 A 
ENDROOT
BRANCH   1   8
ATOM      7  C   UNL     1      51.350   8.163  14.431  0.00  0.00    +0.000 C 
ATOM      8  O   UNL     1      50.876   7.802  13.132  0.00  0.00    +0.000 OA
ENDBRANCH   1   8
BRANCH   3   9
ATOM      9  C   UNL     1      53.144  10.619   9.819  0.00  0.00    +0.000 C 
BRANCH   9  10
ATOM     10  N   UNL     1      53.522   9.629   8.842  0.00  0.00    +0.000 N 
ATOM     11  C   UNL     1      53.033   9.649   7.551  0.00  0.00    +0.000 C 
ATOM     12  O   UNL     1      52.273  10.508   7.156  0.00  0.00    +0.000 OA
ATOM     13  H   UNL     1      53.911   8.765   9.201  0.00  0.00    +0.000 HD
BRANCH  11  14
ATOM     14  C   UNL     1      53.542   8.586   6.666  0.00  0.00    +0.000 A 
ATOM     15  C   UNL     1      54.130   8.918   5.452  0.00  0.00    +0.000 A 
ATOM     16  S   UNL     1      54.705   7.571   4.576  0.00  0.00    +0.000 S 
ATOM     17  C   UNL     1      54.147   6.493   5.769  0.00  0.00    +0.000 A 
ATOM     18  N   UNL     1      54.295   5.143   5.620  0.00  0.00    +0.000 NA
ATOM     19  C   UNL     1      53.804   4.442   6.585  0.00  0.00    +0.000 A 
ATOM     20  N   UNL     1      53.179   4.963   7.690  0.00  0.00    +0.000 N 
ATOM     21  C   UNL     1      53.052   6.312   7.904  0.00  0.00    +0.000 A 
ATOM     22  O   UNL     1      52.546   6.745   8.940  0.00  0.00    +0.000 OA
ATOM     23  C   UNL     1      53.553   7.149   6.836  0.00  0.00    +0.000 A 
ATOM     24  H   UNL     1      52.841   4.358   8.419  0.00  0.00    +0.000 HD
ENDBRANCH  11  14
ENDBRANCH   9  10
ENDBRANCH   3   9
BRANCH   6  25
ATOM     25  C   UNL     1      48.259   9.377  12.817  0.00  0.00    +0.000 C 
BRANCH  25  26
ATOM     26  N   UNL     1      47.772   8.013  12.732  0.00  0.00    +0.000 N 
ATOM     27  C   UNL     1      46.442   7.728  12.948  0.00  0.00    +0.000 C 
ATOM     28  O   UNL     1      45.640   8.598  13.254  0.00  0.00    +0.000 OA
ATOM     29  H   UNL     1      48.326   7.380  12.167  0.00  0.00    +0.000 HD
BRANCH  27  30
ATOM     30  C   UNL     1      46.008   6.317  12.737  0.00  0.00    +0.000 A 
ATOM     31  C   UNL     1      45.084   6.052  11.703  0.00  0.00    +0.000 A 
ATOM     32  C   UNL     1      44.768   4.744  11.342  0.00  0.00    +0.000 A 
ATOM     33 CL   UNL     1      43.617   4.463  10.095  0.00  0.00    +0.000 Cl
ATOM     34  C   UNL     1      45.393   3.677  11.970  0.00  0.00    +0.000 A 
ATOM     35  C   UNL     1      46.281   3.922  13.020  0.00  0.00    +0.000 A 
ATOM     36  C   UNL     1      46.568   5.236  13.450  0.00  0.00    +0.000 A 
BRANCH  36  37
ATOM     37  C   UNL     1      47.382   5.320  14.709  0.00  0.00    +0.000 C 
ATOM     38  O   UNL     1      48.492   5.841  14.680  0.00  0.00    +0.000 OA
ATOM     39  N   UNL     1      46.898   4.677  15.830  0.00  0.00    +0.000 N 
ATOM     40  H   UNL     1      45.896   4.586  15.927  0.00  0.00    +0.000 HD
BRANCH  39  41
ATOM     41  C   UNL     1      47.647   4.634  17.077  0.00  0.00    +0.000 C 
BRANCH  41  42
ATOM     42  C   UNL     1      47.854   3.201  17.559  0.00  0.00    +0.000 C 
BRANCH  42  43
ATOM     43  O   UNL     1      46.590   2.603  17.854  0.00  0.00    +0.000 OA
ATOM     44  H   UNL     1      46.515   1.824  17.267  0.00  0.00    +0.000 HD
ENDBRANCH  42  43
ENDBRANCH  41  42
ENDBRANCH  39  41
ENDBRANCH  36  37
ENDBRANCH  27  30
ENDBRANCH  25  26
ENDBRANCH   6  25
TORSDOF 11
ENDMDL
