MODEL 1
REMARK VINA RESULT:    -8.273      0.000      0.000
REMARK INTER + INTRA:         -11.564
REMARK INTER:                 -10.691
REMARK INTRA:                  -0.873
REMARK UNBOUND:                -0.873
REMARK  Name = 
REMARK  5 active torsions:
REMARK  status: ('A' for Active; 'I' for Inactive)
REMARK    1  A    between atoms: C_2  and  C_18
REMARK    2  A    between atoms: N_3  and  C_4
REMARK    3  A    between atoms: C_4  and  C_5
REMARK    4  A    between atoms: C_8  and  C_9
REMARK    5  A    between atoms: C_9  and  N_10
REMARK                            x       y       z     vdW  Elec       q    Type
REMARK                         _______ _______ _______ _____ _____    ______ ____
ROOT
ATOM      1  O   UNL     1      48.203   7.389  12.547  0.00  0.00    +0.000 OA
ATOM      2  C   UNL     1      47.586   7.015  13.541  0.00  0.00    +0.000 C 
ATOM      3  N   UNL     1      46.222   7.036  13.615  0.00  0.00    +0.000 N 
ATOM      4  H   UNL     1      45.750   6.718  14.450  0.00  0.00    +0.000 HD
ENDROOT
BRANCH   2   5
ATOM      5  C   UNL     1      48.271   6.570  14.756  0.00  0.00    +0.000 A 
ATOM      6  C   UNL     1      49.331   7.298  15.279  0.00  0.00    +0.000 A 
ATOM      7  S   UNL     1      49.948   6.644  16.731  0.00  0.00    +0.000 S 
ATOM      8  C   UNL     1      48.851   5.342  16.681  0.00  0.00    +0.000 A 
ATOM      9  N   UNL     1      48.841   4.390  17.652  0.00  0.00    +0.000 NA
ATOM     10  C   UNL     1      47.976   3.449  17.468  0.00  0.00    +0.000 A 
ATOM     11  N   UNL     1      47.128   3.365  16.397  0.00  0.00    +0.000 N 
ATOM     12  C   UNL     1      47.093   4.306  15.395  0.00  0.00    +0.000 A 
ATOM     13  O   UNL     1      46.306   4.209  14.460  0.00  0.00    +0.000 OA
ATOM     14  C   UNL     1      48.033   5.401  15.568  0.00  0.00    +0.000 A 
ATOM     15  H   UNL     1      46.477   2.599  16.307  0.00  0.00    +0.000 HD
ENDBRANCH   2   5
BRANCH   3  16
ATOM     16  C   UNL     1      45.371   7.373  12.501  0.00  0.00    +0.000 C 
BRANCH  16  17
ATOM     17  C   UNL     1      45.164   6.202  11.569  0.00  0.00    +0.000 A 
ATOM     18  C   UNL     1      45.865   6.137  10.369  0.00  0.00    +0.000 A 
ATOM     19  C   UNL     1      45.648   5.055   9.519  0.00  0.00    +0.000 A 
ATOM     20  C   UNL     1      44.736   4.060   9.878  0.00  0.00    +0.000 A 
ATOM     21  C   UNL     1      44.062   4.223  11.083  0.00  0.00    +0.000 A 
ATOM     22  N   UNL     1      44.254   5.261  11.931  0.00  0.00    +0.000 NA
BRANCH  20  23
ATOM     23  C   UNL     1      44.462   2.881   8.989  0.00  0.00    +0.000 C 
BRANCH  23  24
ATOM     24  N   UNL     1      45.642   2.047   8.899  0.00  0.00    +0.000 N 
ATOM     25  C   UNL     1      46.424   2.053   7.781  0.00  0.00    +0.000 C 
ATOM     26  C   UNL     1      47.296   0.960   7.341  0.00  0.00    +0.000 C 
ATOM     27  N   UNL     1      47.893   1.335   6.173  0.00  0.00    +0.000 NA
ATOM     28  C   UNL     1      47.423   2.529   5.967  0.00  0.00    +0.000 C 
ATOM     29  N   UNL     1      46.522   3.008   6.900  0.00  0.00    +0.000 NA
ATOM     30  H   UNL     1      45.577   1.169   9.402  0.00  0.00    +0.000 HD
ENDBRANCH  23  24
ENDBRANCH  20  23
ENDBRANCH  16  17
ENDBRANCH   3  16
TORSDOF 5
ENDMDL
MODEL 2
REMARK VINA RESULT:    -8.161      1.227      1.789
REMARK INTER + INTRA:         -11.420
REMARK INTER:                 -10.526
REMARK INTRA:                  -0.894
REMARK UNBOUND:                -0.873
REMARK  Name = 
REMARK  5 active torsions:
REMARK  status: ('A' for Active; 'I' for Inactive)
REMARK    1  A    between atoms: C_2  and  C_18
REMARK    2  A    between atoms: N_3  and  C_4
REMARK    3  A    between atoms: C_4  and  C_5
REMARK    4  A    between atoms: C_8  and  C_9
REMARK    5  A    between atoms: C_9  and  N_10
REMARK                            x       y       z     vdW  Elec       q    Type
REMARK                         _______ _______ _______ _____ _____    ______ ____
ROOT
ATOM      1  O   UNL     1      49.511   6.982  13.679  0.00  0.00    +0.000 OA
ATOM      2  C   UNL     1      48.686   6.936  14.589  0.00  0.00    +0.000 C 
ATOM      3  N   UNL     1      47.455   7.522  14.498  0.00  0.00    +0.000 N 
ATOM      4  H   UNL     1      46.802   7.462  15.267  0.00  0.00    +0.000 HD
ENDROOT
BRANCH   2   5
ATOM      5  C   UNL     1      48.982   6.297  15.872  0.00  0.00    +0.000 A 
ATOM      6  C   UNL     1      49.991   6.783  16.690  0.00  0.00    +0.000 A 
ATOM      7  S   UNL     1      50.132   5.936  18.166  0.00  0.00    +0.000 S 
ATOM      8  C   UNL     1      48.880   4.862  17.738  0.00  0.00    +0.000 A 
ATOM      9  N   UNL     1      48.486   3.869  18.577  0.00  0.00    +0.000 NA
ATOM     10  C   UNL     1      47.547   3.116  18.108  0.00  0.00    +0.000 A 
ATOM     11  N   UNL     1      46.975   3.258  16.873  0.00  0.00    +0.000 N 
ATOM     12  C   UNL     1      47.332   4.250  15.993  0.00  0.00    +0.000 A 
ATOM     13  O   UNL     1      46.784   4.359  14.902  0.00  0.00    +0.000 OA
ATOM     14  C   UNL     1      48.370   5.142  16.483  0.00  0.00    +0.000 A 
ATOM     15  H   UNL     1      46.247   2.631  16.561  0.00  0.00    +0.000 HD
ENDBRANCH   2   5
BRANCH   3  16
ATOM     16  C   UNL     1      46.953   8.137  13.294  0.00  0.00    +0.000 C 
BRANCH  16  17
ATOM     17  C   UNL     1      46.126   7.178  12.470  0.00  0.00    +0.000 A 
ATOM     18  C   UNL     1      46.660   6.613  11.316  0.00  0.00    +0.000 A 
ATOM     19  C   UNL     1      45.874   5.743  10.565  0.00  0.00    +0.000 A 
ATOM     20  C   UNL     1      44.570   5.455  10.973  0.00  0.00    +0.000 A 
ATOM     21  C   UNL     1      44.112   6.085  12.124  0.00  0.00    +0.000 A 
ATOM     22  N   UNL     1      44.853   6.933  12.877  0.00  0.00    +0.000 NA
BRANCH  20  23
ATOM     23  C   UNL     1      43.683   4.530  10.189  0.00  0.00    +0.000 C 
BRANCH  23  24
ATOM     24  N   UNL     1      44.178   4.403   8.834  0.00  0.00    +0.000 N 
ATOM     25  C   UNL     1      44.974   3.357   8.473  0.00  0.00    +0.000 C 
ATOM     26  C   UNL     1      45.928   3.352   7.360  0.00  0.00    +0.000 C 
ATOM     27  N   UNL     1      46.547   2.136   7.333  0.00  0.00    +0.000 NA
ATOM     28  C   UNL     1      45.997   1.499   8.323  0.00  0.00    +0.000 C 
ATOM     29  N   UNL     1      45.049   2.192   9.053  0.00  0.00    +0.000 NA
ATOM     30  H   UNL     1      44.344   5.284   8.362  0.00  0.00    +0.000 HD
ENDBRANCH  23  24
ENDBRANCH  20  23
ENDBRANCH  16  17
ENDBRANCH   3  16
TORSDOF 5
ENDMDL
MODEL 3
REMARK VINA RESULT:    -7.920      1.833      2.354
REMARK INTER + INTRA:         -11.107
REMARK INTER:                 -10.497
REMARK INTRA:                  -0.610
REMARK UNBOUND:                -0.873
REMARK  Name = 
REMARK  5 active torsions:
REMARK  status: ('A' for Active; 'I' for Inactive)
REMARK    1  A    between atoms: C_2  and  C_18
REMARK    2  A    between atoms: N_3  and  C_4
REMARK    3  A    between atoms: C_4  and  C_5
REMARK    4  A    between atoms: C_8  and  C_9
REMARK    5  A    between atoms: C_9  and  N_10
REMARK                            x       y       z     vdW  Elec       q    Type
REMARK                         _______ _______ _______ _____ _____    ______ ____
ROOT
ATOM      1  O   UNL     1      48.864   6.199  14.312  0.00  0.00    +0.000 OA
ATOM      2  C   UNL     1      47.862   5.723  14.839  0.00  0.00    +0.000 C 
ATOM      3  N   UNL     1      46.608   5.890  14.324  0.00  0.00    +0.000 N 
ATOM      4  H   UNL     1      45.807   5.481  14.786  0.00  0.00    +0.000 HD
ENDROOT
BRANCH   2   5
ATOM      5  C   UNL     1      47.927   4.986  16.103  0.00  0.00    +0.000 A 
ATOM      6  C   UNL     1      47.590   3.642  16.157  0.00  0.00    +0.000 A 
ATOM      7  S   UNL     1      47.793   2.956  17.708  0.00  0.00    +0.000 S 
ATOM      8  C   UNL     1      48.293   4.445  18.366  0.00  0.00    +0.000 A 
ATOM      9  N   UNL     1      48.629   4.559  19.678  0.00  0.00    +0.000 NA
ATOM     10  C   UNL     1      48.960   5.753  20.043  0.00  0.00    +0.000 A 
ATOM     11  N   UNL     1      48.975   6.846  19.219  0.00  0.00    +0.000 N 
ATOM     12  C   UNL     1      48.652   6.781  17.885  0.00  0.00    +0.000 A 
ATOM     13  O   UNL     1      48.695   7.778  17.172  0.00  0.00    +0.000 OA
ATOM     14  C   UNL     1      48.295   5.452  17.418  0.00  0.00    +0.000 A 
ATOM     15  H   UNL     1      49.238   7.757  19.567  0.00  0.00    +0.000 HD
ENDBRANCH   2   5
BRANCH   3  16
ATOM     16  C   UNL     1      46.347   6.523  13.055  0.00  0.00    +0.000 C 
BRANCH  16  17
ATOM     17  C   UNL     1      45.854   5.539  12.020  0.00  0.00    +0.000 A 
ATOM     18  C   UNL     1      45.685   5.944  10.700  0.00  0.00    +0.000 A 
ATOM     19  C   UNL     1      45.217   5.023   9.766  0.00  0.00    +0.000 A 
ATOM     20  C   UNL     1      44.921   3.718  10.164  0.00  0.00    +0.000 A 
ATOM     21  C   UNL     1      45.095   3.410  11.508  0.00  0.00    +0.000 A 
ATOM     22  N   UNL     1      45.552   4.282  12.438  0.00  0.00    +0.000 NA
BRANCH  20  23
ATOM     23  C   UNL     1      44.404   2.694   9.194  0.00  0.00    +0.000 C 
BRANCH  23  24
ATOM     24  N   UNL     1      45.402   1.666   8.983  0.00  0.00    +0.000 N 
ATOM     25  C   UNL     1      46.337   1.786   7.998  0.00  0.00    +0.000 C 
ATOM     26  C   UNL     1      47.043   0.677   7.349  0.00  0.00    +0.000 C 
ATOM     27  N   UNL     1      47.879   1.199   6.405  0.00  0.00    +0.000 NA
ATOM     28  C   UNL     1      47.685   2.480   6.509  0.00  0.00    +0.000 C 
ATOM     29  N   UNL     1      46.755   2.890   7.446  0.00  0.00    +0.000 NA
ATOM     30  H   UNL     1      45.090   0.726   9.201  0.00  0.00    +0.000 HD
ENDBRANCH  23  24
ENDBRANCH  20  23
ENDBRANCH  16  17
ENDBRANCH   3  16
TORSDOF 5
ENDMDL
MODEL 4
REMARK VINA RESULT:    -7.367      3.908      8.332
REMARK INTER + INTRA:         -10.393
REMARK INTER:                  -9.541
REMARK INTRA:                  -0.852
REMARK UNBOUND:                -0.873
REMARK  Name = 
REMARK  5 active torsions:
REMARK  status: ('A' for Active; 'I' for Inactive)
REMARK    1  A    between atoms: C_2  and  C_18
REMARK    2  A    between atoms: N_3  and  C_4
REMARK    3  A    between atoms: C_4  and  C_5
REMARK    4  A    between atoms: C_8  and  C_9
REMARK    5  A    between atoms: C_9  and  N_10
REMARK                            x       y       z     vdW  Elec       q    Type
REMARK                         _______ _______ _______ _____ _____    ______ ____
ROOT
ATOM      1  O   UNL     1      49.212   6.552  13.661  0.00  0.00    +0.000 OA
ATOM      2  C   UNL     1      48.102   6.332  14.140  0.00  0.00    +0.000 C 
ATOM      3  N   UNL     1      47.906   6.099  15.472  0.00  0.00    +0.000 N 
ATOM      4  H   UNL     1      46.978   5.923  15.829  0.00  0.00    +0.000 HD
ENDROOT
BRANCH   2   5
ATOM      5  C   UNL     1      46.902   6.243  13.306  0.00  0.00    +0.000 A 
ATOM      6  C   UNL     1      46.306   7.388  12.797  0.00  0.00    +0.000 A 
ATOM      7  S   UNL     1      44.958   7.062  11.801  0.00  0.00    +0.000 S 
ATOM      8  C   UNL     1      45.099   5.384  12.056  0.00  0.00    +0.000 A 
ATOM      9  N   UNL     1      44.239   4.507  11.475  0.00  0.00    +0.000 NA
ATOM     10  C   UNL     1      44.449   3.270  11.781  0.00  0.00    +0.000 A 
ATOM     11  N   UNL     1      45.434   2.830  12.624  0.00  0.00    +0.000 N 
ATOM     12  C   UNL     1      46.333   3.675  13.228  0.00  0.00    +0.000 A 
ATOM     13  O   UNL     1      47.215   3.244  13.963  0.00  0.00    +0.000 OA
ATOM     14  C   UNL     1      46.154   5.079  12.897  0.00  0.00    +0.000 A 
ATOM     15  H   UNL     1      45.543   1.848  12.829  0.00  0.00    +0.000 HD
ENDBRANCH   2   5
BRANCH   3  16
ATOM     16  C   UNL     1      48.949   6.212  16.461  0.00  0.00    +0.000 C 
BRANCH  16  17
ATOM     17  C   UNL     1      49.529   4.867  16.831  0.00  0.00    +0.000 A 
ATOM     18  C   UNL     1      50.844   4.776  17.275  0.00  0.00    +0.000 A 
ATOM     19  C   UNL     1      51.361   3.523  17.598  0.00  0.00    +0.000 A 
ATOM     20  C   UNL     1      50.561   2.386  17.471  0.00  0.00    +0.000 A 
ATOM     21  C   UNL     1      49.269   2.571  16.995  0.00  0.00    +0.000 A 
ATOM     22  N   UNL     1      48.737   3.775  16.676  0.00  0.00    +0.000 NA
BRANCH  20  23
ATOM     23  C   UNL     1      51.079   1.014  17.798  0.00  0.00    +0.000 C 
BRANCH  23  24
ATOM     24  N   UNL     1      52.254   0.728  17.001  0.00  0.00    +0.000 N 
ATOM     25  C   UNL     1      53.486   0.623  17.577  0.00  0.00    +0.000 C 
ATOM     26  C   UNL     1      54.768   0.844  16.901  0.00  0.00    +0.000 C 
ATOM     27  N   UNL     1      55.767   0.665  17.814  0.00  0.00    +0.000 NA
ATOM     28  C   UNL     1      55.126   0.359  18.902  0.00  0.00    +0.000 C 
ATOM     29  N   UNL     1      53.746   0.331  18.820  0.00  0.00    +0.000 NA
ATOM     30  H   UNL     1      52.224   1.100  16.058  0.00  0.00    +0.000 HD
ENDBRANCH  23  24
ENDBRANCH  20  23
ENDBRANCH  16  17
ENDBRANCH   3  16
TORSDOF 5
ENDMDL
MODEL 5
REMARK VINA RESULT:    -7.239      2.552      3.372
REMARK INTER + INTRA:         -10.228
REMARK INTER:                  -9.379
REMARK INTRA:                  -0.849
REMARK UNBOUND:                -0.873
REMARK  Name = 
REMARK  5 active torsions:
REMARK  status: ('A' for Active; 'I' for Inactive)
REMARK    1  A    between atoms: C_2  and  C_18
REMARK    2  A    between atoms: N_3  and  C_4
REMARK    3  A    between atoms: C_4  and  C_5
REMARK    4  A    between atoms: C_8  and  C_9
REMARK    5  A    between atoms: C_9  and  N_10
REMARK                            x       y       z     vdW  Elec       q    Type
REMARK                         _______ _______ _______ _____ _____    ______ ____
ROOT
ATOM      1  O   UNL     1      50.262   6.603  15.440  0.00  0.00    +0.000 OA
ATOM      2  C   UNL     1      49.111   6.428  15.830  0.00  0.00    +0.000 C 
ATOM      3  N   UNL     1      48.021   6.644  15.034  0.00  0.00    +0.000 N 
ATOM      4  H   UNL     1      47.089   6.487  15.390  0.00  0.00    +0.000 HD
ENDROOT
BRANCH   2   5
ATOM      5  C   UNL     1      48.811   6.028  17.206  0.00  0.00    +0.000 A 
ATOM      6  C   UNL     1      48.957   4.708  17.609  0.00  0.00    +0.000 A 
ATOM      7  S   UNL     1      48.617   4.466  19.264  0.00  0.00    +0.000 S 
ATOM      8  C   UNL     1      48.218   6.107  19.485  0.00  0.00    +0.000 A 
ATOM      9  N   UNL     1      47.834   6.582  20.699  0.00  0.00    +0.000 NA
ATOM     10  C   UNL     1      47.535   7.839  20.709  0.00  0.00    +0.000 A 
ATOM     11  N   UNL     1      47.573   8.661  19.616  0.00  0.00    +0.000 N 
ATOM     12  C   UNL     1      47.963   8.230  18.370  0.00  0.00    +0.000 A 
ATOM     13  O   UNL     1      48.004   9.000  17.416  0.00  0.00    +0.000 OA
ATOM     14  C   UNL     1      48.334   6.827  18.309  0.00  0.00    +0.000 A 
ATOM     15  H   UNL     1      47.321   9.636  19.687  0.00  0.00    +0.000 HD
ENDBRANCH   2   5
BRANCH   3  16
ATOM     16  C   UNL     1      48.113   6.972  13.633  0.00  0.00    +0.000 C 
BRANCH  16  17
ATOM     17  C   UNL     1      46.992   6.353  12.831  0.00  0.00    +0.000 A 
ATOM     18  C   UNL     1      46.475   7.023  11.726  0.00  0.00    +0.000 A 
ATOM     19  C   UNL     1      45.433   6.438  11.010  0.00  0.00    +0.000 A 
ATOM     20  C   UNL     1      44.924   5.201  11.408  0.00  0.00    +0.000 A 
ATOM     21  C   UNL     1      45.484   4.618  12.538  0.00  0.00    +0.000 A 
ATOM     22  N   UNL     1      46.499   5.159  13.253  0.00  0.00    +0.000 NA
BRANCH  20  23
ATOM     23  C   UNL     1      43.794   4.538  10.672  0.00  0.00    +0.000 C 
BRANCH  23  24
ATOM     24  N   UNL     1      44.104   4.460   9.259  0.00  0.00    +0.000 N 
ATOM     25  C   UNL     1      44.887   3.457   8.766  0.00  0.00    +0.000 C 
ATOM     26  C   UNL     1      45.679   3.517   7.535  0.00  0.00    +0.000 C 
ATOM     27  N   UNL     1      46.338   2.331   7.394  0.00  0.00    +0.000 NA
ATOM     28  C   UNL     1      45.954   1.650   8.432  0.00  0.00    +0.000 C 
ATOM     29  N   UNL     1      45.087   2.286   9.302  0.00  0.00    +0.000 NA
ATOM     30  H   UNL     1      44.168   5.357   8.792  0.00  0.00    +0.000 HD
ENDBRANCH  23  24
ENDBRANCH  20  23
ENDBRANCH  16  17
ENDBRANCH   3  16
TORSDOF 5
ENDMDL
MODEL 6
REMARK VINA RESULT:    -7.237      2.268      3.154
REMARK INTER + INTRA:         -10.226
REMARK INTER:                  -9.747
REMARK INTRA:                  -0.478
REMARK UNBOUND:                -0.873
REMARK  Name = 
REMARK  5 active torsions:
REMARK  status: ('A' for Active; 'I' for Inactive)
REMARK    1  A    between atoms: C_2  and  C_18
REMARK    2  A    between atoms: N_3  and  C_4
REMARK    3  A    between atoms: C_4  and  C_5
REMARK    4  A    between atoms: C_8  and  C_9
REMARK    5  A    between atoms: C_9  and  N_10
REMARK                            x       y       z     vdW  Elec       q    Type
REMARK                         _______ _______ _______ _____ _____    ______ ____
ROOT
ATOM      1  O   UNL     1      47.857   5.040  13.487  0.00  0.00    +0.000 OA
ATOM      2  C   UNL     1      47.729   6.246  13.296  0.00  0.00    +0.000 C 
ATOM      3  N   UNL     1      46.510   6.846  13.156  0.00  0.00    +0.000 N 
ATOM      4  H   UNL     1      46.445   7.842  13.002  0.00  0.00    +0.000 HD
ENDROOT
BRANCH   2   5
ATOM      5  C   UNL     1      48.884   7.133  13.144  0.00  0.00    +0.000 A 
ATOM      6  C   UNL     1      49.123   7.786  11.943  0.00  0.00    +0.000 A 
ATOM      7  S   UNL     1      50.482   8.819  11.994  0.00  0.00    +0.000 S 
ATOM      8  C   UNL     1      50.821   8.392  13.607  0.00  0.00    +0.000 A 
ATOM      9  N   UNL     1      51.876   8.931  14.273  0.00  0.00    +0.000 NA
ATOM     10  C   UNL     1      52.028   8.493  15.478  0.00  0.00    +0.000 A 
ATOM     11  N   UNL     1      51.228   7.556  16.076  0.00  0.00    +0.000 N 
ATOM     12  C   UNL     1      50.145   6.988  15.449  0.00  0.00    +0.000 A 
ATOM     13  O   UNL     1      49.439   6.166  16.022  0.00  0.00    +0.000 OA
ATOM     14  C   UNL     1      49.916   7.467  14.096  0.00  0.00    +0.000 A 
ATOM     15  H   UNL     1      51.403   7.249  17.022  0.00  0.00    +0.000 HD
ENDBRANCH   2   5
BRANCH   3  16
ATOM     16  C   UNL     1      45.258   6.156  13.343  0.00  0.00    +0.000 C 
BRANCH  16  17
ATOM     17  C   UNL     1      44.970   5.187  12.219  0.00  0.00    +0.000 A 
ATOM     18  C   UNL     1      44.340   3.977  12.489  0.00  0.00    +0.000 A 
ATOM     19  C   UNL     1      44.098   3.094  11.439  0.00  0.00    +0.000 A 
ATOM     20  C   UNL     1      44.488   3.431  10.142  0.00  0.00    +0.000 A 
ATOM     21  C   UNL     1      45.134   4.650   9.972  0.00  0.00    +0.000 A 
ATOM     22  N   UNL     1      45.381   5.530  10.971  0.00  0.00    +0.000 NA
BRANCH  20  23
ATOM     23  C   UNL     1      44.256   2.507   8.981  0.00  0.00    +0.000 C 
BRANCH  23  24
ATOM     24  N   UNL     1      45.359   1.574   8.865  0.00  0.00    +0.000 N 
ATOM     25  C   UNL     1      46.363   1.782   7.967  0.00  0.00    +0.000 C 
ATOM     26  C   UNL     1      47.222   0.745   7.388  0.00  0.00    +0.000 C 
ATOM     27  N   UNL     1      48.087   1.344   6.519  0.00  0.00    +0.000 NA
ATOM     28  C   UNL     1      47.769   2.601   6.599  0.00  0.00    +0.000 C 
ATOM     29  N   UNL     1      46.726   2.922   7.448  0.00  0.00    +0.000 NA
ATOM     30  H   UNL     1      45.116   0.610   9.060  0.00  0.00    +0.000 HD
ENDBRANCH  23  24
ENDBRANCH  20  23
ENDBRANCH  16  17
ENDBRANCH   3  16
TORSDOF 5
ENDMDL
MODEL 7
REMARK VINA RESULT:    -7.151      3.941      8.591
REMARK INTER + INTRA:         -10.114
REMARK INTER:                  -9.435
REMARK INTRA:                  -0.679
REMARK UNBOUND:                -0.873
REMARK  Name = 
REMARK  5 active torsions:
REMARK  status: ('A' for Active; 'I' for Inactive)
REMARK    1  A    between atoms: C_2  and  C_18
REMARK    2  A    between atoms: N_3  and  C_4
REMARK    3  A    between atoms: C_4  and  C_5
REMARK    4  A    between atoms: C_8  and  C_9
REMARK    5  A    between atoms: C_9  and  N_10
REMARK                            x       y       z     vdW  Elec       q    Type
REMARK                         _______ _______ _______ _____ _____    ______ ____
ROOT
ATOM      1  O   UNL     1      47.399   3.065  14.187  0.00  0.00    +0.000 OA
ATOM      2  C   UNL     1      47.032   4.152  14.625  0.00  0.00    +0.000 C 
ATOM      3  N   UNL     1      46.829   4.381  15.957  0.00  0.00    +0.000 N 
ATOM      4  H   UNL     1      46.528   5.290  16.279  0.00  0.00    +0.000 HD
ENDROOT
BRANCH   2   5
ATOM      5  C   UNL     1      46.722   5.279  13.742  0.00  0.00    +0.000 A 
ATOM      6  C   UNL     1      47.636   6.306  13.557  0.00  0.00    +0.000 A 
ATOM      7  S   UNL     1      47.108   7.487  12.443  0.00  0.00    +0.000 S 
ATOM      8  C   UNL     1      45.621   6.689  12.210  0.00  0.00    +0.000 A 
ATOM      9  N   UNL     1      44.684   7.180  11.358  0.00  0.00    +0.000 NA
ATOM     10  C   UNL     1      43.596   6.486  11.303  0.00  0.00    +0.000 A 
ATOM     11  N   UNL     1      43.355   5.352  12.032  0.00  0.00    +0.000 N 
ATOM     12  C   UNL     1      44.274   4.811  12.899  0.00  0.00    +0.000 A 
ATOM     13  O   UNL     1      44.032   3.782  13.520  0.00  0.00    +0.000 OA
ATOM     14  C   UNL     1      45.527   5.543  12.978  0.00  0.00    +0.000 A 
ATOM     15  H   UNL     1      42.480   4.856  11.949  0.00  0.00    +0.000 HD
ENDBRANCH   2   5
BRANCH   3  16
ATOM     16  C   UNL     1      47.145   3.422  16.986  0.00  0.00    +0.000 C 
BRANCH  16  17
ATOM     17  C   UNL     1      48.626   3.377  17.285  0.00  0.00    +0.000 A 
ATOM     18  C   UNL     1      49.239   4.450  17.924  0.00  0.00    +0.000 A 
ATOM     19  C   UNL     1      50.607   4.392  18.177  0.00  0.00    +0.000 A 
ATOM     20  C   UNL     1      51.340   3.269  17.787  0.00  0.00    +0.000 A 
ATOM     21  C   UNL     1      50.649   2.258  17.131  0.00  0.00    +0.000 A 
ATOM     22  N   UNL     1      49.319   2.284  16.874  0.00  0.00    +0.000 NA
BRANCH  20  23
ATOM     23  C   UNL     1      52.819   3.167  18.030  0.00  0.00    +0.000 C 
BRANCH  23  24
ATOM     24  N   UNL     1      53.133   1.886  18.627  0.00  0.00    +0.000 N 
ATOM     25  C   UNL     1      53.913   0.978  17.972  0.00  0.00    +0.000 C 
ATOM     26  C   UNL     1      53.899  -0.472  18.185  0.00  0.00    +0.000 C 
ATOM     27  N   UNL     1      54.801  -1.036  17.330  0.00  0.00    +0.000 NA
ATOM     28  C   UNL     1      55.295  -0.014  16.698  0.00  0.00    +0.000 C 
ATOM     29  N   UNL     1      54.786   1.226  17.037  0.00  0.00    +0.000 NA
ATOM     30  H   UNL     1      52.407   1.511  19.227  0.00  0.00    +0.000 HD
ENDBRANCH  23  24
ENDBRANCH  20  23
ENDBRANCH  16  17
ENDBRANCH   3  16
TORSDOF 5
ENDMDL
MODEL 8
REMARK VINA RESULT:    -6.943      3.201      7.629
REMARK INTER + INTRA:          -9.845
REMARK INTER:                  -9.045
REMARK INTRA:                  -0.800
REMARK UNBOUND:                -0.873
REMARK  Name = 
REMARK  5 active torsions:
REMARK  status: ('A' for Active; 'I' for Inactive)
REMARK    1  A    between atoms: C_2  and  C_18
REMARK    2  A    between atoms: N_3  and  C_4
REMARK    3  A    between atoms: C_4  and  C_5
REMARK    4  A    between atoms: C_8  and  C_9
REMARK    5  A    between atoms: C_9  and  N_10
REMARK                            x       y       z     vdW  Elec       q    Type
REMARK                         _______ _______ _______ _____ _____    ______ ____
ROOT
ATOM      1  O   UNL     1      45.574   7.836  11.740  0.00  0.00    +0.000 OA
ATOM      2  C   UNL     1      46.224   6.840  11.432  0.00  0.00    +0.000 C 
ATOM      3  N   UNL     1      47.574   6.751  11.625  0.00  0.00    +0.000 N 
ATOM      4  H   UNL     1      48.074   5.914  11.360  0.00  0.00    +0.000 HD
ENDROOT
BRANCH   2   5
ATOM      5  C   UNL     1      45.609   5.686  10.774  0.00  0.00    +0.000 A 
ATOM      6  C   UNL     1      45.753   5.488   9.409  0.00  0.00    +0.000 A 
ATOM      7  S   UNL     1      45.012   4.053   8.852  0.00  0.00    +0.000 S 
ATOM      8  C   UNL     1      44.435   3.675  10.409  0.00  0.00    +0.000 A 
ATOM      9  N   UNL     1      43.709   2.550  10.638  0.00  0.00    +0.000 NA
ATOM     10  C   UNL     1      43.314   2.409  11.860  0.00  0.00    +0.000 A 
ATOM     11  N   UNL     1      43.569   3.295  12.871  0.00  0.00    +0.000 N 
ATOM     12  C   UNL     1      44.306   4.442  12.693  0.00  0.00    +0.000 A 
ATOM     13  O   UNL     1      44.531   5.204  13.626  0.00  0.00    +0.000 OA
ATOM     14  C   UNL     1      44.795   4.636  11.338  0.00  0.00    +0.000 A 
ATOM     15  H   UNL     1      43.227   3.131  13.807  0.00  0.00    +0.000 HD
ENDBRANCH   2   5
BRANCH   3  16
ATOM     16  C   UNL     1      48.345   7.751  12.319  0.00  0.00    +0.000 C 
BRANCH  16  17
ATOM     17  C   UNL     1      48.762   7.292  13.697  0.00  0.00    +0.000 A 
ATOM     18  C   UNL     1      49.936   7.777  14.266  0.00  0.00    +0.000 A 
ATOM     19  C   UNL     1      50.307   7.329  15.532  0.00  0.00    +0.000 A 
ATOM     20  C   UNL     1      49.506   6.405  16.205  0.00  0.00    +0.000 A 
ATOM     21  C   UNL     1      48.367   5.956  15.548  0.00  0.00    +0.000 A 
ATOM     22  N   UNL     1      47.978   6.375  14.321  0.00  0.00    +0.000 NA
BRANCH  20  23
ATOM     23  C   UNL     1      49.872   5.886  17.567  0.00  0.00    +0.000 C 
BRANCH  23  24
ATOM     24  N   UNL     1      49.403   4.525  17.719  0.00  0.00    +0.000 N 
ATOM     25  C   UNL     1      50.259   3.469  17.607  0.00  0.00    +0.000 C 
ATOM     26  C   UNL     1      49.887   2.101  17.234  0.00  0.00    +0.000 C 
ATOM     27  N   UNL     1      51.021   1.342  17.211  0.00  0.00    +0.000 NA
ATOM     28  C   UNL     1      51.951   2.184  17.549  0.00  0.00    +0.000 C 
ATOM     29  N   UNL     1      51.550   3.486  17.787  0.00  0.00    +0.000 NA
ATOM     30  H   UNL     1      48.450   4.371  17.408  0.00  0.00    +0.000 HD
ENDBRANCH  23  24
ENDBRANCH  20  23
ENDBRANCH  16  17
ENDBRANCH   3  16
TORSDOF 5
ENDMDL
MODEL 9
REMARK VINA RESULT:    -6.831      4.001      9.274
REMARK INTER + INTRA:          -9.700
REMARK INTER:                  -8.971
REMARK INTRA:                  -0.729
REMARK UNBOUND:                -0.873
REMARK  Name = 
REMARK  5 active torsions:
REMARK  status: ('A' for Active; 'I' for Inactive)
REMARK    1  A    between atoms: C_2  and  C_18
REMARK    2  A    between atoms: N_3  and  C_4
REMARK    3  A    between atoms: C_4  and  C_5
REMARK    4  A    between atoms: C_8  and  C_9
REMARK    5  A    between atoms: C_9  and  N_10
REMARK                            x       y       z     vdW  Elec       q    Type
REMARK                         _______ _______ _______ _____ _____    ______ ____
ROOT
ATOM      1  O   UNL     1      47.230   3.244  13.885  0.00  0.00    +0.000 OA
ATOM      2  C   UNL     1      46.783   4.294  14.340  0.00  0.00    +0.000 C 
ATOM      3  N   UNL     1      46.757   4.565  15.679  0.00  0.00    +0.000 N 
ATOM      4  H   UNL     1      46.382   5.441  16.015  0.00  0.00    +0.000 HD
ENDROOT
BRANCH   2   5
ATOM      5  C   UNL     1      46.185   5.318  13.482  0.00  0.00    +0.000 A 
ATOM      6  C   UNL     1      46.863   6.497  13.208  0.00  0.00    +0.000 A 
ATOM      7  S   UNL     1      46.020   7.528  12.139  0.00  0.00    +0.000 S 
ATOM      8  C   UNL     1      44.702   6.454  12.046  0.00  0.00    +0.000 A 
ATOM      9  N   UNL     1      43.616   6.735  11.279  0.00  0.00    +0.000 NA
ATOM     10  C   UNL     1      42.683   5.843  11.328  0.00  0.00    +0.000 A 
ATOM     11  N   UNL     1      42.731   4.702  12.082  0.00  0.00    +0.000 N 
ATOM     12  C   UNL     1      43.810   4.368  12.866  0.00  0.00    +0.000 A 
ATOM     13  O   UNL     1      43.827   3.327  13.514  0.00  0.00    +0.000 OA
ATOM     14  C   UNL     1      44.900   5.329  12.827  0.00  0.00    +0.000 A 
ATOM     15  H   UNL     1      41.964   4.045  12.083  0.00  0.00    +0.000 HD
ENDBRANCH   2   5
BRANCH   3  16
ATOM     16  C   UNL     1      47.359   3.715  16.675  0.00  0.00    +0.000 C 
BRANCH  16  17
ATOM     17  C   UNL     1      48.797   4.091  16.948  0.00  0.00    +0.000 A 
ATOM     18  C   UNL     1      49.187   5.425  16.899  0.00  0.00    +0.000 A 
ATOM     19  C   UNL     1      50.521   5.747  17.141  0.00  0.00    +0.000 A 
ATOM     20  C   UNL     1      51.440   4.735  17.424  0.00  0.00    +0.000 A 
ATOM     21  C   UNL     1      50.965   3.429  17.427  0.00  0.00    +0.000 A 
ATOM     22  N   UNL     1      49.675   3.086  17.199  0.00  0.00    +0.000 NA
BRANCH  20  23
ATOM     23  C   UNL     1      52.890   5.034  17.682  0.00  0.00    +0.000 C 
BRANCH  23  24
ATOM     24  N   UNL     1      53.166   4.950  19.101  0.00  0.00    +0.000 N 
ATOM     25  C   UNL     1      53.841   3.887  19.624  0.00  0.00    +0.000 C 
ATOM     26  C   UNL     1      53.754   3.415  21.009  0.00  0.00    +0.000 C 
ATOM     27  N   UNL     1      54.558   2.320  21.138  0.00  0.00    +0.000 NA
ATOM     28  C   UNL     1      55.068   2.183  19.951  0.00  0.00    +0.000 C 
ATOM     29  N   UNL     1      54.661   3.094  18.994  0.00  0.00    +0.000 NA
ATOM     30  H   UNL     1      52.462   5.376  19.693  0.00  0.00    +0.000 HD
ENDBRANCH  23  24
ENDBRANCH  20  23
ENDBRANCH  16  17
ENDBRANCH   3  16
TORSDOF 5
ENDMDL
