MODEL 1
REMARK VINA RESULT:    -8.460      0.000      0.000
REMARK INTER + INTRA:         -13.657
REMARK INTER:                 -12.417
REMARK INTRA:                  -1.240
REMARK UNBOUND:                -1.240
REMARK  Name = 
REMARK  9 active torsions:
REMARK  status: ('A' for Active; 'I' for Inactive)
REMARK    1  A    between atoms: C_1  and  O_2
REMARK    2  A    between atoms: O_2  and  C_3
REMARK    3  A    between atoms: C_10  and  C_11
REMARK    4  A    between atoms: N_13  and  C_14
REMARK    5  A    between atoms: C_14  and  C_15
REMARK    6  A    between atoms: C_18  and  C_19
REMARK    7  A    between atoms: C_19  and  N_20
REMARK    8  A    between atoms: N_20  and  C_21
REMARK    9  A    between atoms: C_21  and  C_22
REMARK                            x       y       z     vdW  Elec       q    Type
REMARK                         _______ _______ _______ _____ _____    ______ ____
ROOT
ATOM      1  C   UNL     1      47.939   6.904  13.246  0.00  0.00    +0.000 C 
ENDROOT
BRANCH   1   2
ATOM      2  C   UNL     1      46.882   6.018  12.631  0.00  0.00    +0.000 A 
ATOM      3  C   UNL     1      46.327   4.940  13.336  0.00  0.00    +0.000 A 
ATOM      4  C   UNL     1      45.272   4.195  12.787  0.00  0.00    +0.000 A 
ATOM      5  C   UNL     1      44.739   4.523  11.531  0.00  0.00    +0.000 A 
ATOM      6  C   UNL     1      45.342   5.560  10.806  0.00  0.00    +0.000 A 
ATOM      7  C   UNL     1      46.417   6.278  11.336  0.00  0.00    +0.000 A 
BRANCH   5   8
ATOM      8  C   UNL     1      43.552   3.788  10.945  0.00  0.00    +0.000 C 
BRANCH   8   9
ATOM      9  N   UNL     1      43.805   3.374   9.569  0.00  0.00    +0.000 NA
ATOM     10  H   UNL     1      44.306   4.116   9.082  0.00  0.00    +0.000 HD
BRANCH   9  11
ATOM     11  C   UNL     1      44.602   2.151   9.505  0.00  0.00    +0.000 C 
BRANCH  11  12
ATOM     12  C   UNL     1      45.638   2.276   8.414  0.00  0.00    +0.000 A 
ATOM     13  C   UNL     1      45.781   3.478   7.705  0.00  0.00    +0.000 A 
ATOM     14  C   UNL     1      46.702   3.579   6.662  0.00  0.00    +0.000 A 
ATOM     15  C   UNL     1      47.489   2.482   6.318  0.00  0.00    +0.000 A 
ATOM     16  C   UNL     1      47.347   1.278   7.006  0.00  0.00    +0.000 A 
ATOM     17  C   UNL     1      46.420   1.172   8.045  0.00  0.00    +0.000 A 
ENDBRANCH  11  12
ENDBRANCH   9  11
ENDBRANCH   8   9
ENDBRANCH   5   8
ENDBRANCH   1   2
BRANCH   1  20
ATOM     18  C   UNL     1      49.005   6.932  15.453  0.00  0.00    +0.000 C 
ATOM     19  O   UNL     1      50.120   6.907  14.945  0.00  0.00    +0.000 OA
ATOM     20  N   UNL     1      47.873   6.925  14.683  0.00  0.00    +0.000 N 
ATOM     21  H   UNL     1      46.960   6.882  15.113  0.00  0.00    +0.000 HD
BRANCH  18  29
ATOM     22  C   UNL     1      48.966   4.518  17.935  0.00  0.00    +0.000 A 
ATOM     23  N   UNL     1      48.851   3.803  19.073  0.00  0.00    +0.000 NA
ATOM     24  C   UNL     1      48.610   4.457  20.210  0.00  0.00    +0.000 A 
ATOM     25  N   UNL     1      48.463   5.770  20.355  0.00  0.00    +0.000 NA
ATOM     26  C   UNL     1      48.563   6.443  19.196  0.00  0.00    +0.000 A 
ATOM     27  S   UNL     1      48.402   8.132  19.201  0.00  0.00    +0.000 S 
ATOM     28  C   UNL     1      48.632   8.209  17.520  0.00  0.00    +0.000 A 
ATOM     29  C   UNL     1      48.829   6.970  16.917  0.00  0.00    +0.000 A 
ATOM     30  C   UNL     1      48.800   5.914  17.930  0.00  0.00    +0.000 A 
BRANCH  22  32
ATOM     31  C   UNL     1      48.525   2.603  16.702  0.00  0.00    +0.000 C 
ATOM     32  O   UNL     1      49.256   3.827  16.776  0.00  0.00    +0.000 OA
ENDBRANCH  22  32
ENDBRANCH  18  29
ENDBRANCH   1  20
TORSDOF 8
ENDMDL
MODEL 2
REMARK VINA RESULT:    -8.053      1.804      2.591
REMARK INTER + INTRA:         -13.059
REMARK INTER:                 -11.958
REMARK INTRA:                  -1.101
REMARK UNBOUND:                -1.240
REMARK  Name = 
REMARK  9 active torsions:
REMARK  status: ('A' for Active; 'I' for Inactive)
REMARK    1  A    between atoms: C_1  and  O_2
REMARK    2  A    between atoms: O_2  and  C_3
REMARK    3  A    between atoms: C_10  and  C_11
REMARK    4  A    between atoms: N_13  and  C_14
REMARK    5  A    between atoms: C_14  and  C_15
REMARK    6  A    between atoms: C_18  and  C_19
REMARK    7  A    between atoms: C_19  and  N_20
REMARK    8  A    between atoms: N_20  and  C_21
REMARK    9  A    between atoms: C_21  and  C_22
REMARK                            x       y       z     vdW  Elec       q    Type
REMARK                         _______ _______ _______ _____ _____    ______ ____
ROOT
ATOM      1  C   UNL     1      47.477   3.346  14.857  0.00  0.00    +0.000 C 
ENDROOT
BRANCH   1   2
ATOM      2  C   UNL     1      46.752   4.053  13.737  0.00  0.00    +0.000 A 
ATOM      3  C   UNL     1      47.013   5.395  13.426  0.00  0.00    +0.000 A 
ATOM      4  C   UNL     1      46.408   6.001  12.314  0.00  0.00    +0.000 A 
ATOM      5  C   UNL     1      45.544   5.274  11.482  0.00  0.00    +0.000 A 
ATOM      6  C   UNL     1      45.238   3.952  11.836  0.00  0.00    +0.000 A 
ATOM      7  C   UNL     1      45.812   3.360  12.964  0.00  0.00    +0.000 A 
BRANCH   5   8
ATOM      8  C   UNL     1      44.934   5.876  10.233  0.00  0.00    +0.000 C 
BRANCH   8   9
ATOM      9  N   UNL     1      45.491   5.279   9.023  0.00  0.00    +0.000 NA
ATOM     10  H   UNL     1      46.463   5.023   9.193  0.00  0.00    +0.000 HD
BRANCH   9  11
ATOM     11  C   UNL     1      44.756   4.084   8.617  0.00  0.00    +0.000 C 
BRANCH  11  12
ATOM     12  C   UNL     1      45.693   3.119   7.932  0.00  0.00    +0.000 A 
ATOM     13  C   UNL     1      45.809   1.798   8.390  0.00  0.00    +0.000 A 
ATOM     14  C   UNL     1      46.712   0.918   7.792  0.00  0.00    +0.000 A 
ATOM     15  C   UNL     1      47.507   1.349   6.731  0.00  0.00    +0.000 A 
ATOM     16  C   UNL     1      47.409   2.664   6.275  0.00  0.00    +0.000 A 
ATOM     17  C   UNL     1      46.512   3.547   6.878  0.00  0.00    +0.000 A 
ENDBRANCH  11  12
ENDBRANCH   9  11
ENDBRANCH   8   9
ENDBRANCH   5   8
ENDBRANCH   1   2
BRANCH   1  20
ATOM     18  C   UNL     1      47.362   4.124  17.180  0.00  0.00    +0.000 C 
ATOM     19  O   UNL     1      46.545   3.255  17.459  0.00  0.00    +0.000 OA
ATOM     20  N   UNL     1      47.869   4.242  15.913  0.00  0.00    +0.000 N 
ATOM     21  H   UNL     1      48.493   5.000  15.679  0.00  0.00    +0.000 HD
BRANCH  18  29
ATOM     22  C   UNL     1      50.496   5.206  18.177  0.00  0.00    +0.000 A 
ATOM     23  N   UNL     1      51.565   5.754  18.792  0.00  0.00    +0.000 NA
ATOM     24  C   UNL     1      51.350   6.611  19.791  0.00  0.00    +0.000 A 
ATOM     25  N   UNL     1      50.170   6.998  20.265  0.00  0.00    +0.000 NA
ATOM     26  C   UNL     1      49.133   6.414  19.641  0.00  0.00    +0.000 A 
ATOM     27  S   UNL     1      47.552   6.798  20.122  0.00  0.00    +0.000 S 
ATOM     28  C   UNL     1      46.891   5.748  18.963  0.00  0.00    +0.000 A 
ATOM     29  C   UNL     1      47.841   5.083  18.193  0.00  0.00    +0.000 A 
ATOM     30  C   UNL     1      49.185   5.496  18.595  0.00  0.00    +0.000 A 
BRANCH  22  32
ATOM     31  C   UNL     1      51.032   3.031  17.573  0.00  0.00    +0.000 C 
ATOM     32  O   UNL     1      50.738   4.353  17.120  0.00  0.00    +0.000 OA
ENDBRANCH  22  32
ENDBRANCH  18  29
ENDBRANCH   1  20
TORSDOF 8
ENDMDL
MODEL 3
REMARK VINA RESULT:    -7.997      1.493      2.681
REMARK INTER + INTRA:         -12.978
REMARK INTER:                 -11.951
REMARK INTRA:                  -1.027
REMARK UNBOUND:                -1.240
REMARK  Name = 
REMARK  9 active torsions:
REMARK  status: ('A' for Active; 'I' for Inactive)
REMARK    1  A    between atoms: C_1  and  O_2
REMARK    2  A    between atoms: O_2  and  C_3
REMARK    3  A    between atoms: C_10  and  C_11
REMARK    4  A    between atoms: N_13  and  C_14
REMARK    5  A    between atoms: C_14  and  C_15
REMARK    6  A    between atoms: C_18  and  C_19
REMARK    7  A    between atoms: C_19  and  N_20
REMARK    8  A    between atoms: N_20  and  C_21
REMARK    9  A    between atoms: C_21  and  C_22
REMARK                            x       y       z     vdW  Elec       q    Type
REMARK                         _______ _______ _______ _____ _____    ______ ____
ROOT
ATOM      1  C   UNL     1      48.099   6.571  13.739  0.00  0.00    +0.000 C 
ENDROOT
BRANCH   1   2
ATOM      2  C   UNL     1      46.860   6.196  12.960  0.00  0.00    +0.000 A 
ATOM      3  C   UNL     1      46.481   6.894  11.805  0.00  0.00    +0.000 A 
ATOM      4  C   UNL     1      45.388   6.463  11.037  0.00  0.00    +0.000 A 
ATOM      5  C   UNL     1      44.665   5.316  11.398  0.00  0.00    +0.000 A 
ATOM      6  C   UNL     1      45.011   4.662  12.588  0.00  0.00    +0.000 A 
ATOM      7  C   UNL     1      46.075   5.113  13.373  0.00  0.00    +0.000 A 
BRANCH   5   8
ATOM      8  C   UNL     1      43.529   4.782  10.550  0.00  0.00    +0.000 C 
BRANCH   8   9
ATOM      9  N   UNL     1      44.014   4.241   9.284  0.00  0.00    +0.000 NA
ATOM     10  H   UNL     1      44.757   4.841   8.926  0.00  0.00    +0.000 HD
BRANCH   9  11
ATOM     11  C   UNL     1      44.538   2.886   9.434  0.00  0.00    +0.000 C 
BRANCH  11  12
ATOM     12  C   UNL     1      45.579   2.623   8.373  0.00  0.00    +0.000 A 
ATOM     13  C   UNL     1      45.915   3.620   7.445  0.00  0.00    +0.000 A 
ATOM     14  C   UNL     1      46.838   3.363   6.432  0.00  0.00    +0.000 A 
ATOM     15  C   UNL     1      47.436   2.107   6.336  0.00  0.00    +0.000 A 
ATOM     16  C   UNL     1      47.101   1.104   7.244  0.00  0.00    +0.000 A 
ATOM     17  C   UNL     1      46.171   1.358   8.253  0.00  0.00    +0.000 A 
ENDBRANCH  11  12
ENDBRANCH   9  11
ENDBRANCH   8   9
ENDBRANCH   5   8
ENDBRANCH   1   2
BRANCH   1  20
ATOM     18  C   UNL     1      48.992   6.396  16.015  0.00  0.00    +0.000 C 
ATOM     19  O   UNL     1      50.142   6.483  15.600  0.00  0.00    +0.000 OA
ATOM     20  N   UNL     1      47.923   6.424  15.160  0.00  0.00    +0.000 N 
ATOM     21  H   UNL     1      46.985   6.288  15.507  0.00  0.00    +0.000 HD
BRANCH  18  29
ATOM     22  C   UNL     1      47.847   8.564  18.459  0.00  0.00    +0.000 A 
ATOM     23  N   UNL     1      47.478   9.186  19.598  0.00  0.00    +0.000 NA
ATOM     24  C   UNL     1      47.455   8.478  20.728  0.00  0.00    +0.000 A 
ATOM     25  N   UNL     1      47.766   7.193  20.866  0.00  0.00    +0.000 NA
ATOM     26  C   UNL     1      48.149   6.616  19.715  0.00  0.00    +0.000 A 
ATOM     27  S   UNL     1      48.579   4.975  19.711  0.00  0.00    +0.000 S 
ATOM     28  C   UNL     1      48.905   5.012  18.045  0.00  0.00    +0.000 A 
ATOM     29  C   UNL     1      48.704   6.256  17.455  0.00  0.00    +0.000 A 
ATOM     30  C   UNL     1      48.236   7.213  18.459  0.00  0.00    +0.000 A 
BRANCH  22  32
ATOM     31  C   UNL     1      48.892  10.251  17.258  0.00  0.00    +0.000 C 
ATOM     32  O   UNL     1      47.825   9.303  17.295  0.00  0.00    +0.000 OA
ENDBRANCH  22  32
ENDBRANCH  18  29
ENDBRANCH   1  20
TORSDOF 8
ENDMDL
MODEL 4
REMARK VINA RESULT:    -7.640      1.637      3.190
REMARK INTER + INTRA:         -12.453
REMARK INTER:                 -11.141
REMARK INTRA:                  -1.311
REMARK UNBOUND:                -1.240
REMARK  Name = 
REMARK  9 active torsions:
REMARK  status: ('A' for Active; 'I' for Inactive)
REMARK    1  A    between atoms: C_1  and  O_2
REMARK    2  A    between atoms: O_2  and  C_3
REMARK    3  A    between atoms: C_10  and  C_11
REMARK    4  A    between atoms: N_13  and  C_14
REMARK    5  A    between atoms: C_14  and  C_15
REMARK    6  A    between atoms: C_18  and  C_19
REMARK    7  A    between atoms: C_19  and  N_20
REMARK    8  A    between atoms: N_20  and  C_21
REMARK    9  A    between atoms: C_21  and  C_22
REMARK                            x       y       z     vdW  Elec       q    Type
REMARK                         _______ _______ _______ _____ _____    ______ ____
ROOT
ATOM      1  C   UNL     1      47.285   4.012  14.618  0.00  0.00    +0.000 C 
ENDROOT
BRANCH   1   2
ATOM      2  C   UNL     1      46.248   4.300  13.557  0.00  0.00    +0.000 A 
ATOM      3  C   UNL     1      45.888   5.613  13.222  0.00  0.00    +0.000 A 
ATOM      4  C   UNL     1      45.003   5.862  12.161  0.00  0.00    +0.000 A 
ATOM      5  C   UNL     1      44.475   4.805  11.404  0.00  0.00    +0.000 A 
ATOM      6  C   UNL     1      44.790   3.493  11.787  0.00  0.00    +0.000 A 
ATOM      7  C   UNL     1      45.641   3.245  12.866  0.00  0.00    +0.000 A 
BRANCH   5   8
ATOM      8  C   UNL     1      43.578   5.043  10.207  0.00  0.00    +0.000 C 
BRANCH   8   9
ATOM      9  N   UNL     1      44.005   4.259   9.053  0.00  0.00    +0.000 NA
ATOM     10  H   UNL     1      43.392   4.461   8.264  0.00  0.00    +0.000 HD
BRANCH   9  11
ATOM     11  C   UNL     1      45.380   4.563   8.665  0.00  0.00    +0.000 C 
BRANCH  11  12
ATOM     12  C   UNL     1      46.002   3.356   8.006  0.00  0.00    +0.000 A 
ATOM     13  C   UNL     1      45.793   2.072   8.533  0.00  0.00    +0.000 A 
ATOM     14  C   UNL     1      46.408   0.961   7.957  0.00  0.00    +0.000 A 
ATOM     15  C   UNL     1      47.238   1.120   6.848  0.00  0.00    +0.000 A 
ATOM     16  C   UNL     1      47.464   2.392   6.323  0.00  0.00    +0.000 A 
ATOM     17  C   UNL     1      46.855   3.506   6.904  0.00  0.00    +0.000 A 
ENDBRANCH  11  12
ENDBRANCH   9  11
ENDBRANCH   8   9
ENDBRANCH   5   8
ENDBRANCH   1   2
BRANCH   1  20
ATOM     18  C   UNL     1      48.389   5.068  16.535  0.00  0.00    +0.000 C 
ATOM     19  O   UNL     1      49.122   4.097  16.682  0.00  0.00    +0.000 OA
ATOM     20  N   UNL     1      47.448   5.104  15.541  0.00  0.00    +0.000 N 
ATOM     21  H   UNL     1      46.808   5.882  15.468  0.00  0.00    +0.000 HD
BRANCH  18  29
ATOM     22  C   UNL     1      48.586   8.480  15.983  0.00  0.00    +0.000 A 
ATOM     23  N   UNL     1      48.726   9.820  16.062  0.00  0.00    +0.000 NA
ATOM     24  C   UNL     1      48.832  10.376  17.270  0.00  0.00    +0.000 A 
ATOM     25  N   UNL     1      48.817   9.743  18.439  0.00  0.00    +0.000 NA
ATOM     26  C   UNL     1      48.697   8.411  18.317  0.00  0.00    +0.000 A 
ATOM     27  S   UNL     1      48.659   7.449  19.714  0.00  0.00    +0.000 S 
ATOM     28  C   UNL     1      48.507   6.030  18.794  0.00  0.00    +0.000 A 
ATOM     29  C   UNL     1      48.486   6.245  17.419  0.00  0.00    +0.000 A 
ATOM     30  C   UNL     1      48.587   7.677  17.137  0.00  0.00    +0.000 A 
BRANCH  22  32
ATOM     31  C   UNL     1      47.700   8.793  13.862  0.00  0.00    +0.000 C 
ATOM     32  O   UNL     1      48.437   7.929  14.728  0.00  0.00    +0.000 OA
ENDBRANCH  22  32
ENDBRANCH  18  29
ENDBRANCH   1  20
TORSDOF 8
ENDMDL
MODEL 5
REMARK VINA RESULT:    -7.324      2.099      2.830
REMARK INTER + INTRA:         -11.989
REMARK INTER:                 -10.986
REMARK INTRA:                  -1.003
REMARK UNBOUND:                -1.240
REMARK  Name = 
REMARK  9 active torsions:
REMARK  status: ('A' for Active; 'I' for Inactive)
REMARK    1  A    between atoms: C_1  and  O_2
REMARK    2  A    between atoms: O_2  and  C_3
REMARK    3  A    between atoms: C_10  and  C_11
REMARK    4  A    between atoms: N_13  and  C_14
REMARK    5  A    between atoms: C_14  and  C_15
REMARK    6  A    between atoms: C_18  and  C_19
REMARK    7  A    between atoms: C_19  and  N_20
REMARK    8  A    between atoms: N_20  and  C_21
REMARK    9  A    between atoms: C_21  and  C_22
REMARK                            x       y       z     vdW  Elec       q    Type
REMARK                         _______ _______ _______ _____ _____    ______ ____
ROOT
ATOM      1  C   UNL     1      47.433   7.163  13.576  0.00  0.00    +0.000 C 
ENDROOT
BRANCH   1   2
ATOM      2  C   UNL     1      46.511   6.209  12.856  0.00  0.00    +0.000 A 
ATOM      3  C   UNL     1      45.984   5.076  13.493  0.00  0.00    +0.000 A 
ATOM      4  C   UNL     1      45.046   4.261  12.841  0.00  0.00    +0.000 A 
ATOM      5  C   UNL     1      44.603   4.572  11.546  0.00  0.00    +0.000 A 
ATOM      6  C   UNL     1      45.182   5.668  10.892  0.00  0.00    +0.000 A 
ATOM      7  C   UNL     1      46.144   6.458  11.528  0.00  0.00    +0.000 A 
BRANCH   5   8
ATOM      8  C   UNL     1      43.536   3.757  10.844  0.00  0.00    +0.000 C 
BRANCH   8   9
ATOM      9  N   UNL     1      43.904   3.473   9.460  0.00  0.00    +0.000 NA
ATOM     10  H   UNL     1      44.517   4.211   9.118  0.00  0.00    +0.000 HD
BRANCH   9  11
ATOM     11  C   UNL     1      44.596   2.193   9.332  0.00  0.00    +0.000 C 
BRANCH  11  12
ATOM     12  C   UNL     1      45.645   2.289   8.251  0.00  0.00    +0.000 A 
ATOM     13  C   UNL     1      46.495   1.203   7.988  0.00  0.00    +0.000 A 
ATOM     14  C   UNL     1      47.499   1.307   7.026  0.00  0.00    +0.000 A 
ATOM     15  C   UNL     1      47.664   2.495   6.316  0.00  0.00    +0.000 A 
ATOM     16  C   UNL     1      46.835   3.585   6.577  0.00  0.00    +0.000 A 
ATOM     17  C   UNL     1      45.835   3.485   7.545  0.00  0.00    +0.000 A 
ENDBRANCH  11  12
ENDBRANCH   9  11
ENDBRANCH   8   9
ENDBRANCH   5   8
ENDBRANCH   1   2
BRANCH   1  20
ATOM     18  C   UNL     1      49.169   7.134  15.307  0.00  0.00    +0.000 C 
ATOM     19  O   UNL     1      49.635   8.191  14.896  0.00  0.00    +0.000 OA
ATOM     20  N   UNL     1      48.084   6.555  14.707  0.00  0.00    +0.000 N 
ATOM     21  H   UNL     1      47.748   5.653  15.014  0.00  0.00    +0.000 HD
BRANCH  18  29
ATOM     22  C   UNL     1      52.409   6.496  16.350  0.00  0.00    +0.000 A 
ATOM     23  N   UNL     1      53.536   6.066  16.954  0.00  0.00    +0.000 NA
ATOM     24  C   UNL     1      53.421   5.352  18.074  0.00  0.00    +0.000 A 
ATOM     25  N   UNL     1      52.291   5.004  18.681  0.00  0.00    +0.000 NA
ATOM     26  C   UNL     1      51.192   5.432  18.038  0.00  0.00    +0.000 A 
ATOM     27  S   UNL     1      49.662   5.076  18.679  0.00  0.00    +0.000 S 
ATOM     28  C   UNL     1      48.884   5.886  17.405  0.00  0.00    +0.000 A 
ATOM     29  C   UNL     1      49.754   6.437  16.469  0.00  0.00    +0.000 A 
ATOM     30  C   UNL     1      51.138   6.175  16.860  0.00  0.00    +0.000 A 
BRANCH  22  32
ATOM     31  C   UNL     1      53.180   8.515  15.506  0.00  0.00    +0.000 C 
ATOM     32  O   UNL     1      52.549   7.267  15.215  0.00  0.00    +0.000 OA
ENDBRANCH  22  32
ENDBRANCH  18  29
ENDBRANCH   1  20
TORSDOF 8
ENDMDL
MODEL 6
REMARK VINA RESULT:    -7.240      1.586      2.521
REMARK INTER + INTRA:         -11.866
REMARK INTER:                 -10.974
REMARK INTRA:                  -0.892
REMARK UNBOUND:                -1.240
REMARK  Name = 
REMARK  9 active torsions:
REMARK  status: ('A' for Active; 'I' for Inactive)
REMARK    1  A    between atoms: C_1  and  O_2
REMARK    2  A    between atoms: O_2  and  C_3
REMARK    3  A    between atoms: C_10  and  C_11
REMARK    4  A    between atoms: N_13  and  C_14
REMARK    5  A    between atoms: C_14  and  C_15
REMARK    6  A    between atoms: C_18  and  C_19
REMARK    7  A    between atoms: C_19  and  N_20
REMARK    8  A    between atoms: N_20  and  C_21
REMARK    9  A    between atoms: C_21  and  C_22
REMARK                            x       y       z     vdW  Elec       q    Type
REMARK                         _______ _______ _______ _____ _____    ______ ____
ROOT
ATOM      1  C   UNL     1      47.164   4.453  14.698  0.00  0.00    +0.000 C 
ENDROOT
BRANCH   1   2
ATOM      2  C   UNL     1      46.198   4.722  13.569  0.00  0.00    +0.000 A 
ATOM      3  C   UNL     1      46.538   5.559  12.496  0.00  0.00    +0.000 A 
ATOM      4  C   UNL     1      45.669   5.711  11.405  0.00  0.00    +0.000 A 
ATOM      5  C   UNL     1      44.451   5.015  11.356  0.00  0.00    +0.000 A 
ATOM      6  C   UNL     1      44.090   4.232  12.460  0.00  0.00    +0.000 A 
ATOM      7  C   UNL     1      44.939   4.110  13.563  0.00  0.00    +0.000 A 
BRANCH   5   8
ATOM      8  C   UNL     1      43.526   5.098  10.159  0.00  0.00    +0.000 C 
BRANCH   8   9
ATOM      9  N   UNL     1      44.099   4.436   8.992  0.00  0.00    +0.000 NA
ATOM     10  H   UNL     1      44.919   4.955   8.681  0.00  0.00    +0.000 HD
BRANCH   9  11
ATOM     11  C   UNL     1      44.499   3.062   9.286  0.00  0.00    +0.000 C 
BRANCH  11  12
ATOM     12  C   UNL     1      45.539   2.611   8.289  0.00  0.00    +0.000 A 
ATOM     13  C   UNL     1      46.021   1.294   8.314  0.00  0.00    +0.000 A 
ATOM     14  C   UNL     1      47.020   0.889   7.428  0.00  0.00    +0.000 A 
ATOM     15  C   UNL     1      47.546   1.795   6.509  0.00  0.00    +0.000 A 
ATOM     16  C   UNL     1      47.084   3.110   6.483  0.00  0.00    +0.000 A 
ATOM     17  C   UNL     1      46.091   3.519   7.374  0.00  0.00    +0.000 A 
ENDBRANCH  11  12
ENDBRANCH   9  11
ENDBRANCH   8   9
ENDBRANCH   5   8
ENDBRANCH   1   2
BRANCH   1  20
ATOM     18  C   UNL     1      48.553   5.651  16.325  0.00  0.00    +0.000 C 
ATOM     19  O   UNL     1      49.144   4.618  16.621  0.00  0.00    +0.000 OA
ATOM     20  N   UNL     1      47.555   5.654  15.388  0.00  0.00    +0.000 N 
ATOM     21  H   UNL     1      47.033   6.497  15.198  0.00  0.00    +0.000 HD
BRANCH  18  29
ATOM     22  C   UNL     1      48.113   6.946  19.505  0.00  0.00    +0.000 A 
ATOM     23  N   UNL     1      48.026   7.709  20.615  0.00  0.00    +0.000 NA
ATOM     24  C   UNL     1      48.510   8.951  20.569  0.00  0.00    +0.000 A 
ATOM     25  N   UNL     1      49.082   9.542  19.525  0.00  0.00    +0.000 NA
ATOM     26  C   UNL     1      49.130   8.758  18.435  0.00  0.00    +0.000 A 
ATOM     27  S   UNL     1      49.832   9.358  17.012  0.00  0.00    +0.000 S 
ATOM     28  C   UNL     1      49.528   7.903  16.190  0.00  0.00    +0.000 A 
ATOM     29  C   UNL     1      48.889   6.938  16.963  0.00  0.00    +0.000 A 
ATOM     30  C   UNL     1      48.665   7.451  18.314  0.00  0.00    +0.000 A 
BRANCH  22  32
ATOM     31  C   UNL     1      48.637   4.769  20.112  0.00  0.00    +0.000 C 
ATOM     32  O   UNL     1      47.645   5.651  19.585  0.00  0.00    +0.000 OA
ENDBRANCH  22  32
ENDBRANCH  18  29
ENDBRANCH   1  20
TORSDOF 8
ENDMDL
MODEL 7
REMARK VINA RESULT:    -7.196      2.305      2.965
REMARK INTER + INTRA:         -11.801
REMARK INTER:                 -10.653
REMARK INTRA:                  -1.148
REMARK UNBOUND:                -1.240
REMARK  Name = 
REMARK  9 active torsions:
REMARK  status: ('A' for Active; 'I' for Inactive)
REMARK    1  A    between atoms: C_1  and  O_2
REMARK    2  A    between atoms: O_2  and  C_3
REMARK    3  A    between atoms: C_10  and  C_11
REMARK    4  A    between atoms: N_13  and  C_14
REMARK    5  A    between atoms: C_14  and  C_15
REMARK    6  A    between atoms: C_18  and  C_19
REMARK    7  A    between atoms: C_19  and  N_20
REMARK    8  A    between atoms: N_20  and  C_21
REMARK    9  A    between atoms: C_21  and  C_22
REMARK                            x       y       z     vdW  Elec       q    Type
REMARK                         _______ _______ _______ _____ _____    ______ ____
ROOT
ATOM      1  C   UNL     1      46.691   8.389  13.082  0.00  0.00    +0.000 C 
ENDROOT
BRANCH   1   2
ATOM      2  C   UNL     1      46.000   7.165  12.530  0.00  0.00    +0.000 A 
ATOM      3  C   UNL     1      46.382   5.871  12.913  0.00  0.00    +0.000 A 
ATOM      4  C   UNL     1      45.658   4.753  12.471  0.00  0.00    +0.000 A 
ATOM      5  C   UNL     1      44.528   4.907  11.653  0.00  0.00    +0.000 A 
ATOM      6  C   UNL     1      44.192   6.198  11.222  0.00  0.00    +0.000 A 
ATOM      7  C   UNL     1      44.935   7.308  11.632  0.00  0.00    +0.000 A 
BRANCH   5   8
ATOM      8  C   UNL     1      43.681   3.727  11.221  0.00  0.00    +0.000 C 
BRANCH   8   9
ATOM      9  N   UNL     1      43.832   3.453   9.795  0.00  0.00    +0.000 NA
ATOM     10  H   UNL     1      44.391   4.192   9.369  0.00  0.00    +0.000 HD
BRANCH   9  11
ATOM     11  C   UNL     1      44.489   2.171   9.553  0.00  0.00    +0.000 C 
BRANCH  11  12
ATOM     12  C   UNL     1      45.497   2.319   8.439  0.00  0.00    +0.000 A 
ATOM     13  C   UNL     1      46.325   1.243   8.083  0.00  0.00    +0.000 A 
ATOM     14  C   UNL     1      47.292   1.392   7.090  0.00  0.00    +0.000 A 
ATOM     15  C   UNL     1      47.442   2.617   6.440  0.00  0.00    +0.000 A 
ATOM     16  C   UNL     1      46.634   3.697   6.793  0.00  0.00    +0.000 A 
ATOM     17  C   UNL     1      45.671   3.551   7.793  0.00  0.00    +0.000 A 
ENDBRANCH  11  12
ENDBRANCH   9  11
ENDBRANCH   8   9
ENDBRANCH   5   8
ENDBRANCH   1   2
BRANCH   1  20
ATOM     18  C   UNL     1      48.619   8.436  14.596  0.00  0.00    +0.000 C 
ATOM     19  O   UNL     1      47.935   8.910  15.496  0.00  0.00    +0.000 OA
ATOM     20  N   UNL     1      48.082   8.155  13.368  0.00  0.00    +0.000 N 
ATOM     21  H   UNL     1      48.669   7.824  12.616  0.00  0.00    +0.000 HD
BRANCH  18  29
ATOM     22  C   UNL     1      50.372   6.218  16.595  0.00  0.00    +0.000 A 
ATOM     23  N   UNL     1      51.293   5.514  17.286  0.00  0.00    +0.000 NA
ATOM     24  C   UNL     1      52.583   5.751  17.043  0.00  0.00    +0.000 A 
ATOM     25  N   UNL     1      53.080   6.628  16.176  0.00  0.00    +0.000 NA
ATOM     26  C   UNL     1      52.132   7.323  15.526  0.00  0.00    +0.000 A 
ATOM     27  S   UNL     1      52.594   8.485  14.379  0.00  0.00    +0.000 S 
ATOM     28  C   UNL     1      50.975   8.874  14.047  0.00  0.00    +0.000 A 
ATOM     29  C   UNL     1      50.052   8.145  14.792  0.00  0.00    +0.000 A 
ATOM     30  C   UNL     1      50.751   7.205  15.668  0.00  0.00    +0.000 A 
BRANCH  22  32
ATOM     31  C   UNL     1      48.577   6.560  18.025  0.00  0.00    +0.000 C 
ATOM     32  O   UNL     1      49.044   5.931  16.831  0.00  0.00    +0.000 OA
ENDBRANCH  22  32
ENDBRANCH  18  29
ENDBRANCH   1  20
TORSDOF 8
ENDMDL
MODEL 8
REMARK VINA RESULT:    -6.803      4.222      9.234
REMARK INTER + INTRA:         -11.225
REMARK INTER:                 -10.012
REMARK INTRA:                  -1.213
REMARK UNBOUND:                -1.240
REMARK  Name = 
REMARK  9 active torsions:
REMARK  status: ('A' for Active; 'I' for Inactive)
REMARK    1  A    between atoms: C_1  and  O_2
REMARK    2  A    between atoms: O_2  and  C_3
REMARK    3  A    between atoms: C_10  and  C_11
REMARK    4  A    between atoms: N_13  and  C_14
REMARK    5  A    between atoms: C_14  and  C_15
REMARK    6  A    between atoms: C_18  and  C_19
REMARK    7  A    between atoms: C_19  and  N_20
REMARK    8  A    between atoms: N_20  and  C_21
REMARK    9  A    between atoms: C_21  and  C_22
REMARK                            x       y       z     vdW  Elec       q    Type
REMARK                         _______ _______ _______ _____ _____    ______ ____
ROOT
ATOM      1  C   UNL     1      47.297   3.337  16.710  0.00  0.00    +0.000 C 
ENDROOT
BRANCH   1   2
ATOM      2  C   UNL     1      48.729   3.519  17.153  0.00  0.00    +0.000 A 
ATOM      3  C   UNL     1      49.647   2.459  17.122  0.00  0.00    +0.000 A 
ATOM      4  C   UNL     1      50.998   2.675  17.435  0.00  0.00    +0.000 A 
ATOM      5  C   UNL     1      51.461   3.957  17.768  0.00  0.00    +0.000 A 
ATOM      6  C   UNL     1      50.527   4.997  17.860  0.00  0.00    +0.000 A 
ATOM      7  C   UNL     1      49.175   4.774  17.584  0.00  0.00    +0.000 A 
BRANCH   5   8
ATOM      8  C   UNL     1      52.926   4.237  18.038  0.00  0.00    +0.000 C 
BRANCH   8   9
ATOM      9  N   UNL     1      53.466   3.336  19.050  0.00  0.00    +0.000 NA
ATOM     10  H   UNL     1      52.908   2.483  19.072  0.00  0.00    +0.000 HD
BRANCH   9  11
ATOM     11  C   UNL     1      54.856   2.978  18.776  0.00  0.00    +0.000 C 
BRANCH  11  12
ATOM     12  C   UNL     1      54.902   1.742  17.910  0.00  0.00    +0.000 A 
ATOM     13  C   UNL     1      55.510   1.783  16.647  0.00  0.00    +0.000 A 
ATOM     14  C   UNL     1      55.509   0.657  15.823  0.00  0.00    +0.000 A 
ATOM     15  C   UNL     1      54.900  -0.521  16.254  0.00  0.00    +0.000 A 
ATOM     16  C   UNL     1      54.280  -0.570  17.502  0.00  0.00    +0.000 A 
ATOM     17  C   UNL     1      54.274   0.558  18.324  0.00  0.00    +0.000 A 
ENDBRANCH  11  12
ENDBRANCH   9  11
ENDBRANCH   8   9
ENDBRANCH   5   8
ENDBRANCH   1   2
BRANCH   1  20
ATOM     18  C   UNL     1      46.860   4.222  14.466  0.00  0.00    +0.000 C 
ATOM     19  O   UNL     1      47.252   3.182  13.950  0.00  0.00    +0.000 OA
ATOM     20  N   UNL     1      46.855   4.383  15.826  0.00  0.00    +0.000 N 
ATOM     21  H   UNL     1      46.589   5.266  16.237  0.00  0.00    +0.000 HD
BRANCH  18  29
ATOM     22  C   UNL     1      43.970   4.804  12.651  0.00  0.00    +0.000 A 
ATOM     23  N   UNL     1      42.997   5.268  11.839  0.00  0.00    +0.000 NA
ATOM     24  C   UNL     1      43.157   6.468  11.280  0.00  0.00    +0.000 A 
ATOM     25  N   UNL     1      44.195   7.283  11.433  0.00  0.00    +0.000 NA
ATOM     26  C   UNL     1      45.151   6.777  12.231  0.00  0.00    +0.000 A 
ATOM     27  S   UNL     1      46.548   7.690  12.536  0.00  0.00    +0.000 S 
ATOM     28  C   UNL     1      47.189   6.470  13.529  0.00  0.00    +0.000 A 
ATOM     29  C   UNL     1      46.372   5.350  13.649  0.00  0.00    +0.000 A 
ATOM     30  C   UNL     1      45.144   5.544  12.880  0.00  0.00    +0.000 A 
BRANCH  22  32
ATOM     31  C   UNL     1      43.524   2.558  12.283  0.00  0.00    +0.000 C 
ATOM     32  O   UNL     1      43.768   3.579  13.251  0.00  0.00    +0.000 OA
ENDBRANCH  22  32
ENDBRANCH  18  29
ENDBRANCH   1  20
TORSDOF 8
ENDMDL
MODEL 9
REMARK VINA RESULT:    -6.762      3.319      5.372
REMARK INTER + INTRA:         -11.165
REMARK INTER:                  -9.471
REMARK INTRA:                  -1.694
REMARK UNBOUND:                -1.240
REMARK  Name = 
REMARK  9 active torsions:
REMARK  status: ('A' for Active; 'I' for Inactive)
REMARK    1  A    between atoms: C_1  and  O_2
REMARK    2  A    between atoms: O_2  and  C_3
REMARK    3  A    between atoms: C_10  and  C_11
REMARK    4  A    between atoms: N_13  and  C_14
REMARK    5  A    between atoms: C_14  and  C_15
REMARK    6  A    between atoms: C_18  and  C_19
REMARK    7  A    between atoms: C_19  and  N_20
REMARK    8  A    between atoms: N_20  and  C_21
REMARK    9  A    between atoms: C_21  and  C_22
REMARK                            x       y       z     vdW  Elec       q    Type
REMARK                         _______ _______ _______ _____ _____    ______ ____
ROOT
ATOM      1  C   UNL     1      47.767   3.354  17.169  0.00  0.00    +0.000 C 
ENDROOT
BRANCH   1   2
ATOM      2  C   UNL     1      47.695   4.218  15.933  0.00  0.00    +0.000 A 
ATOM      3  C   UNL     1      47.074   3.769  14.758  0.00  0.00    +0.000 A 
ATOM      4  C   UNL     1      46.923   4.625  13.657  0.00  0.00    +0.000 A 
ATOM      5  C   UNL     1      47.375   5.952  13.713  0.00  0.00    +0.000 A 
ATOM      6  C   UNL     1      48.052   6.374  14.866  0.00  0.00    +0.000 A 
ATOM      7  C   UNL     1      48.235   5.510  15.948  0.00  0.00    +0.000 A 
BRANCH   5   8
ATOM      8  C   UNL     1      47.161   6.924  12.570  0.00  0.00    +0.000 C 
BRANCH   8   9
ATOM      9  N   UNL     1      45.842   7.545  12.636  0.00  0.00    +0.000 NA
ATOM     10  H   UNL     1      45.951   8.558  12.686  0.00  0.00    +0.000 HD
BRANCH   9  11
ATOM     11  C   UNL     1      45.027   7.220  11.468  0.00  0.00    +0.000 C 
BRANCH  11  12
ATOM     12  C   UNL     1      44.444   5.836  11.625  0.00  0.00    +0.000 A 
ATOM     13  C   UNL     1      43.712   5.500  12.774  0.00  0.00    +0.000 A 
ATOM     14  C   UNL     1      43.216   4.208  12.945  0.00  0.00    +0.000 A 
ATOM     15  C   UNL     1      43.445   3.239  11.970  0.00  0.00    +0.000 A 
ATOM     16  C   UNL     1      44.181   3.557  10.830  0.00  0.00    +0.000 A 
ATOM     17  C   UNL     1      44.685   4.847  10.661  0.00  0.00    +0.000 A 
ENDBRANCH  11  12
ENDBRANCH   9  11
ENDBRANCH   8   9
ENDBRANCH   5   8
ENDBRANCH   1   2
BRANCH   1  20
ATOM     18  C   UNL     1      49.976   2.308  16.972  0.00  0.00    +0.000 C 
ATOM     19  O   UNL     1      49.620   1.682  15.981  0.00  0.00    +0.000 OA
ATOM     20  N   UNL     1      49.117   3.153  17.624  0.00  0.00    +0.000 N 
ATOM     21  H   UNL     1      49.401   3.615  18.476  0.00  0.00    +0.000 HD
BRANCH  18  29
ATOM     22  C   UNL     1      52.215   4.537  18.388  0.00  0.00    +0.000 A 
ATOM     23  N   UNL     1      53.282   5.178  18.909  0.00  0.00    +0.000 NA
ATOM     24  C   UNL     1      54.382   4.470  19.166  0.00  0.00    +0.000 A 
ATOM     25  N   UNL     1      54.555   3.168  18.960  0.00  0.00    +0.000 NA
ATOM     26  C   UNL     1      53.479   2.571  18.421  0.00  0.00    +0.000 A 
ATOM     27  S   UNL     1      53.529   0.907  18.094  0.00  0.00    +0.000 S 
ATOM     28  C   UNL     1      51.943   0.928  17.486  0.00  0.00    +0.000 A 
ATOM     29  C   UNL     1      51.343   2.184  17.510  0.00  0.00    +0.000 A 
ATOM     30  C   UNL     1      52.264   3.164  18.085  0.00  0.00    +0.000 A 
BRANCH  22  32
ATOM     31  C   UNL     1      50.657   5.960  19.351  0.00  0.00    +0.000 C 
ATOM     32  O   UNL     1      51.073   5.278  18.167  0.00  0.00    +0.000 OA
ENDBRANCH  22  32
ENDBRANCH  18  29
ENDBRANCH   1  20
TORSDOF 8
ENDMDL
