MODEL 1
REMARK VINA RESULT:    -7.205      0.000      0.000
REMARK INTER + INTRA:          -9.533
REMARK INTER:                  -9.101
REMARK INTRA:                  -0.432
REMARK UNBOUND:                -0.432
REMARK  Name = 
REMARK  5 active torsions:
REMARK  status: ('A' for Active; 'I' for Inactive)
REMARK    1  A    between atoms: N_1  and  C_2
REMARK    2  A    between atoms: C_2  and  C_3
REMARK    3  A    between atoms: C_6  and  O_7
REMARK    4  A    between atoms: O_7  and  C_8
REMARK    5  A    between atoms: C_8  and  C_9
REMARK                            x       y       z     vdW  Elec       q    Type
REMARK                         _______ _______ _______ _____ _____    ______ ____
ROOT
ATOM      1  C   UNL     1      46.563   2.259   7.599  0.00  0.00    +0.000 A 
ATOM      2  C   UNL     1      45.708   1.486   8.398  0.00  0.00    +0.000 A 
ATOM      3  C   UNL     1      44.732   2.090   9.197  0.00  0.00    +0.000 A 
ATOM      4  C   UNL     1      44.607   3.477   9.210  0.00  0.00    +0.000 A 
ATOM      5  C   UNL     1      45.424   4.251   8.385  0.00  0.00    +0.000 A 
ATOM      6  C   UNL     1      46.400   3.649   7.589  0.00  0.00    +0.000 A 
ENDROOT
BRANCH   1   7
ATOM      7  C   UNL     1      47.670   1.609   6.809  0.00  0.00    +0.000 C 
BRANCH   7   8
ATOM      8  N   UNL     1      48.623   2.586   6.299  0.00  0.00    +0.000 NA
ATOM      9  H   UNL     1      48.430   2.752   5.312  0.00  0.00    +0.000 HD
ATOM     10  H   UNL     1      49.558   2.181   6.342  0.00  0.00    +0.000 HD
ENDBRANCH   7   8
ENDBRANCH   1   7
BRANCH   4  11
ATOM     11  O   UNL     1      43.695   4.177   9.948  0.00  0.00    +0.000 OA
BRANCH  11  12
ATOM     12  C   UNL     1      43.447   3.687  11.267  0.00  0.00    +0.000 C 
BRANCH  12  13
ATOM     13  C   UNL     1      44.572   4.110  12.165  0.00  0.00    +0.000 A 
ATOM     14  C   UNL     1      45.494   3.223  12.681  0.00  0.00    +0.000 A 
ATOM     15  N   UNL     1      46.519   3.586  13.479  0.00  0.00    +0.000 NA
ATOM     16  C   UNL     1      46.607   4.894  13.754  0.00  0.00    +0.000 A 
ATOM     17  N   UNL     1      45.796   5.854  13.285  0.00  0.00    +0.000 NA
ATOM     18  C   UNL     1      44.791   5.431  12.492  0.00  0.00    +0.000 A 
ENDBRANCH  12  13
ENDBRANCH  11  12
ENDBRANCH   4  11
TORSDOF 5
ENDMDL
MODEL 2
REMARK VINA RESULT:    -6.494      1.484      5.813
REMARK INTER + INTRA:          -8.634
REMARK INTER:                  -8.199
REMARK INTRA:                  -0.435
REMARK UNBOUND:                -0.432
REMARK  Name = 
REMARK  5 active torsions:
REMARK  status: ('A' for Active; 'I' for Inactive)
REMARK    1  A    between atoms: N_1  and  C_2
REMARK    2  A    between atoms: C_2  and  C_3
REMARK    3  A    between atoms: C_6  and  O_7
REMARK    4  A    between atoms: O_7  and  C_8
REMARK    5  A    between atoms: C_8  and  C_9
REMARK                            x       y       z     vdW  Elec       q    Type
REMARK                         _______ _______ _______ _____ _____    ______ ____
ROOT
ATOM      1  C   UNL     1      46.619   5.390  13.078  0.00  0.00    +0.000 A 
ATOM      2  C   UNL     1      46.333   6.130  11.922  0.00  0.00    +0.000 A 
ATOM      3  C   UNL     1      45.525   5.600  10.911  0.00  0.00    +0.000 A 
ATOM      4  C   UNL     1      45.000   4.317  11.045  0.00  0.00    +0.000 A 
ATOM      5  C   UNL     1      45.243   3.590  12.211  0.00  0.00    +0.000 A 
ATOM      6  C   UNL     1      46.051   4.119  13.220  0.00  0.00    +0.000 A 
ENDROOT
BRANCH   1   7
ATOM      7  C   UNL     1      47.561   5.932  14.122  0.00  0.00    +0.000 C 
BRANCH   7   8
ATOM      8  N   UNL     1      47.540   5.136  15.342  0.00  0.00    +0.000 NA
ATOM      9  H   UNL     1      46.696   4.565  15.350  0.00  0.00    +0.000 HD
ATOM     10  H   UNL     1      47.464   5.767  16.140  0.00  0.00    +0.000 HD
ENDBRANCH   7   8
ENDBRANCH   1   7
BRANCH   4  11
ATOM     11  O   UNL     1      44.202   3.695  10.128  0.00  0.00    +0.000 OA
BRANCH  11  12
ATOM     12  C   UNL     1      44.452   4.018   8.758  0.00  0.00    +0.000 C 
BRANCH  12  13
ATOM     13  C   UNL     1      45.471   3.064   8.210  0.00  0.00    +0.000 A 
ATOM     14  C   UNL     1      46.490   3.456   7.365  0.00  0.00    +0.000 A 
ATOM     15  N   UNL     1      47.422   2.616   6.872  0.00  0.00    +0.000 NA
ATOM     16  C   UNL     1      47.314   1.338   7.258  0.00  0.00    +0.000 A 
ATOM     17  N   UNL     1      46.395   0.843   8.099  0.00  0.00    +0.000 NA
ATOM     18  C   UNL     1      45.490   1.730   8.560  0.00  0.00    +0.000 A 
ENDBRANCH  12  13
ENDBRANCH  11  12
ENDBRANCH   4  11
TORSDOF 5
ENDMDL
MODEL 3
REMARK VINA RESULT:    -6.112      2.118      6.013
REMARK INTER + INTRA:          -8.152
REMARK INTER:                  -7.844
REMARK INTRA:                  -0.307
REMARK UNBOUND:                -0.432
REMARK  Name = 
REMARK  5 active torsions:
REMARK  status: ('A' for Active; 'I' for Inactive)
REMARK    1  A    between atoms: N_1  and  C_2
REMARK    2  A    between atoms: C_2  and  C_3
REMARK    3  A    between atoms: C_6  and  O_7
REMARK    4  A    between atoms: O_7  and  C_8
REMARK    5  A    between atoms: C_8  and  C_9
REMARK                            x       y       z     vdW  Elec       q    Type
REMARK                         _______ _______ _______ _____ _____    ______ ____
ROOT
ATOM      1  C   UNL     1      45.464   6.915  12.389  0.00  0.00    +0.000 A 
ATOM      2  C   UNL     1      44.445   6.051  12.817  0.00  0.00    +0.000 A 
ATOM      3  C   UNL     1      44.040   4.972  12.027  0.00  0.00    +0.000 A 
ATOM      4  C   UNL     1      44.645   4.750  10.792  0.00  0.00    +0.000 A 
ATOM      5  C   UNL     1      45.689   5.578  10.377  0.00  0.00    +0.000 A 
ATOM      6  C   UNL     1      46.094   6.657  11.166  0.00  0.00    +0.000 A 
ENDROOT
BRANCH   1   7
ATOM      7  C   UNL     1      45.835   8.126  13.204  0.00  0.00    +0.000 C 
BRANCH   7   8
ATOM      8  N   UNL     1      45.001   9.277  12.884  0.00  0.00    +0.000 NA
ATOM      9  H   UNL     1      45.286   9.650  11.979  0.00  0.00    +0.000 HD
ATOM     10  H   UNL     1      45.185  10.012  13.566  0.00  0.00    +0.000 HD
ENDBRANCH   7   8
ENDBRANCH   1   7
BRANCH   4  11
ATOM     11  O   UNL     1      44.334   3.733   9.935  0.00  0.00    +0.000 OA
BRANCH  11  12
ATOM     12  C   UNL     1      44.538   3.999   8.546  0.00  0.00    +0.000 C 
BRANCH  12  13
ATOM     13  C   UNL     1      45.540   3.024   8.003  0.00  0.00    +0.000 A 
ATOM     14  C   UNL     1      46.478   3.364   7.049  0.00  0.00    +0.000 A 
ATOM     15  N   UNL     1      47.394   2.505   6.559  0.00  0.00    +0.000 NA
ATOM     16  C   UNL     1      47.354   1.264   7.060  0.00  0.00    +0.000 A 
ATOM     17  N   UNL     1      46.517   0.825   8.012  0.00  0.00    +0.000 NA
ATOM     18  C   UNL     1      45.625   1.728   8.465  0.00  0.00    +0.000 A 
ENDBRANCH  12  13
ENDBRANCH  11  12
ENDBRANCH   4  11
TORSDOF 5
ENDMDL
MODEL 4
REMARK VINA RESULT:    -5.241      3.938      7.979
REMARK INTER + INTRA:          -7.051
REMARK INTER:                  -6.734
REMARK INTRA:                  -0.318
REMARK UNBOUND:                -0.432
REMARK  Name = 
REMARK  5 active torsions:
REMARK  status: ('A' for Active; 'I' for Inactive)
REMARK    1  A    between atoms: N_1  and  C_2
REMARK    2  A    between atoms: C_2  and  C_3
REMARK    3  A    between atoms: C_6  and  O_7
REMARK    4  A    between atoms: O_7  and  C_8
REMARK    5  A    between atoms: C_8  and  C_9
REMARK                            x       y       z     vdW  Elec       q    Type
REMARK                         _______ _______ _______ _____ _____    ______ ____
ROOT
ATOM      1  C   UNL     1      48.548   4.452  18.390  0.00  0.00    +0.000 A 
ATOM      2  C   UNL     1      48.169   3.137  18.083  0.00  0.00    +0.000 A 
ATOM      3  C   UNL     1      47.652   2.814  16.825  0.00  0.00    +0.000 A 
ATOM      4  C   UNL     1      47.500   3.807  15.862  0.00  0.00    +0.000 A 
ATOM      5  C   UNL     1      47.914   5.110  16.143  0.00  0.00    +0.000 A 
ATOM      6  C   UNL     1      48.430   5.434  17.399  0.00  0.00    +0.000 A 
ENDROOT
BRANCH   1   7
ATOM      7  C   UNL     1      49.021   4.810  19.775  0.00  0.00    +0.000 C 
BRANCH   7   8
ATOM      8  N   UNL     1      48.480   3.913  20.787  0.00  0.00    +0.000 NA
ATOM      9  H   UNL     1      47.470   4.039  20.834  0.00  0.00    +0.000 HD
ATOM     10  H   UNL     1      48.845   4.191  21.697  0.00  0.00    +0.000 HD
ENDBRANCH   7   8
ENDBRANCH   1   7
BRANCH   4  11
ATOM     11  O   UNL     1      47.007   3.612  14.603  0.00  0.00    +0.000 OA
BRANCH  11  12
ATOM     12  C   UNL     1      46.637   4.792  13.885  0.00  0.00    +0.000 C 
BRANCH  12  13
ATOM     13  C   UNL     1      45.388   4.517  13.102  0.00  0.00    +0.000 A 
ATOM     14  C   UNL     1      44.312   5.380  13.076  0.00  0.00    +0.000 A 
ATOM     15  N   UNL     1      43.187   5.156  12.368  0.00  0.00    +0.000 NA
ATOM     16  C   UNL     1      43.161   4.018  11.662  0.00  0.00    +0.000 A 
ATOM     17  N   UNL     1      44.154   3.120  11.578  0.00  0.00    +0.000 NA
ATOM     18  C   UNL     1      45.254   3.399  12.306  0.00  0.00    +0.000 A 
ENDBRANCH  12  13
ENDBRANCH  11  12
ENDBRANCH   4  11
TORSDOF 5
ENDMDL
MODEL 5
REMARK VINA RESULT:    -5.148      3.958      8.004
REMARK INTER + INTRA:          -6.934
REMARK INTER:                  -6.628
REMARK INTRA:                  -0.306
REMARK UNBOUND:                -0.432
REMARK  Name = 
REMARK  5 active torsions:
REMARK  status: ('A' for Active; 'I' for Inactive)
REMARK    1  A    between atoms: N_1  and  C_2
REMARK    2  A    between atoms: C_2  and  C_3
REMARK    3  A    between atoms: C_6  and  O_7
REMARK    4  A    between atoms: O_7  and  C_8
REMARK    5  A    between atoms: C_8  and  C_9
REMARK                            x       y       z     vdW  Elec       q    Type
REMARK                         _______ _______ _______ _____ _____    ______ ____
ROOT
ATOM      1  C   UNL     1      48.544   4.384  18.439  0.00  0.00    +0.000 A 
ATOM      2  C   UNL     1      48.489   5.413  17.488  0.00  0.00    +0.000 A 
ATOM      3  C   UNL     1      47.984   5.179  16.205  0.00  0.00    +0.000 A 
ATOM      4  C   UNL     1      47.536   3.907  15.857  0.00  0.00    +0.000 A 
ATOM      5  C   UNL     1      47.546   2.888  16.810  0.00  0.00    +0.000 A 
ATOM      6  C   UNL     1      48.051   3.121  18.091  0.00  0.00    +0.000 A 
ENDROOT
BRANCH   1   7
ATOM      7  C   UNL     1      49.170   4.620  19.789  0.00  0.00    +0.000 C 
BRANCH   7   8
ATOM      8  N   UNL     1      48.477   3.896  20.846  0.00  0.00    +0.000 NA
ATOM      9  H   UNL     1      47.507   3.752  20.568  0.00  0.00    +0.000 HD
ATOM     10  H   UNL     1      48.450   4.483  21.679  0.00  0.00    +0.000 HD
ENDBRANCH   7   8
ENDBRANCH   1   7
BRANCH   4  11
ATOM     11  O   UNL     1      47.025   3.560  14.639  0.00  0.00    +0.000 OA
BRANCH  11  12
ATOM     12  C   UNL     1      46.859   4.627  13.702  0.00  0.00    +0.000 C 
BRANCH  12  13
ATOM     13  C   UNL     1      45.549   4.455  12.993  0.00  0.00    +0.000 A 
ATOM     14  C   UNL     1      45.231   3.326  12.265  0.00  0.00    +0.000 A 
ATOM     15  N   UNL     1      44.054   3.148  11.632  0.00  0.00    +0.000 NA
ATOM     16  C   UNL     1      43.174   4.151  11.748  0.00  0.00    +0.000 A 
ATOM     17  N   UNL     1      43.352   5.277  12.454  0.00  0.00    +0.000 NA
ATOM     18  C   UNL     1      44.546   5.399  13.066  0.00  0.00    +0.000 A 
ENDBRANCH  12  13
ENDBRANCH  11  12
ENDBRANCH   4  11
TORSDOF 5
ENDMDL
MODEL 6
REMARK VINA RESULT:    -5.051      3.630      5.355
REMARK INTER + INTRA:          -6.812
REMARK INTER:                  -6.477
REMARK INTRA:                  -0.335
REMARK UNBOUND:                -0.432
REMARK  Name = 
REMARK  5 active torsions:
REMARK  status: ('A' for Active; 'I' for Inactive)
REMARK    1  A    between atoms: N_1  and  C_2
REMARK    2  A    between atoms: C_2  and  C_3
REMARK    3  A    between atoms: C_6  and  O_7
REMARK    4  A    between atoms: O_7  and  C_8
REMARK    5  A    between atoms: C_8  and  C_9
REMARK                            x       y       z     vdW  Elec       q    Type
REMARK                         _______ _______ _______ _____ _____    ______ ____
ROOT
ATOM      1  C   UNL     1      45.123   4.697  11.262  0.00  0.00    +0.000 A 
ATOM      2  C   UNL     1      45.292   3.594  12.112  0.00  0.00    +0.000 A 
ATOM      3  C   UNL     1      46.078   3.690  13.265  0.00  0.00    +0.000 A 
ATOM      4  C   UNL     1      46.711   4.892  13.574  0.00  0.00    +0.000 A 
ATOM      5  C   UNL     1      46.513   6.006  12.758  0.00  0.00    +0.000 A 
ATOM      6  C   UNL     1      45.730   5.911  11.607  0.00  0.00    +0.000 A 
ENDROOT
BRANCH   1   7
ATOM      7  C   UNL     1      44.348   4.563   9.977  0.00  0.00    +0.000 C 
BRANCH   7   8
ATOM      8  N   UNL     1      45.171   4.852   8.810  0.00  0.00    +0.000 NA
ATOM      9  H   UNL     1      45.139   5.854   8.624  0.00  0.00    +0.000 HD
ATOM     10  H   UNL     1      44.754   4.398   7.998  0.00  0.00    +0.000 HD
ENDBRANCH   7   8
ENDBRANCH   1   7
BRANCH   4  11
ATOM     11  O   UNL     1      47.501   5.104  14.668  0.00  0.00    +0.000 OA
BRANCH  11  12
ATOM     12  C   UNL     1      47.164   4.356  15.839  0.00  0.00    +0.000 C 
BRANCH  12  13
ATOM     13  C   UNL     1      48.403   3.701  16.374  0.00  0.00    +0.000 A 
ATOM     14  C   UNL     1      48.685   2.363  16.186  0.00  0.00    +0.000 A 
ATOM     15  N   UNL     1      49.799   1.760  16.648  0.00  0.00    +0.000 NA
ATOM     16  C   UNL     1      50.652   2.546  17.317  0.00  0.00    +0.000 A 
ATOM     17  N   UNL     1      50.506   3.862  17.533  0.00  0.00    +0.000 NA
ATOM     18  C   UNL     1      49.375   4.411  17.047  0.00  0.00    +0.000 A 
ENDBRANCH  12  13
ENDBRANCH  11  12
ENDBRANCH   4  11
TORSDOF 5
ENDMDL
MODEL 7
REMARK VINA RESULT:    -4.876      3.788      5.508
REMARK INTER + INTRA:          -6.591
REMARK INTER:                  -6.288
REMARK INTRA:                  -0.303
REMARK UNBOUND:                -0.432
REMARK  Name = 
REMARK  5 active torsions:
REMARK  status: ('A' for Active; 'I' for Inactive)
REMARK    1  A    between atoms: N_1  and  C_2
REMARK    2  A    between atoms: C_2  and  C_3
REMARK    3  A    between atoms: C_6  and  O_7
REMARK    4  A    between atoms: O_7  and  C_8
REMARK    5  A    between atoms: C_8  and  C_9
REMARK                            x       y       z     vdW  Elec       q    Type
REMARK                         _______ _______ _______ _____ _____    ______ ____
ROOT
ATOM      1  C   UNL     1      45.162   4.679  11.152  0.00  0.00    +0.000 A 
ATOM      2  C   UNL     1      45.900   5.860  11.325  0.00  0.00    +0.000 A 
ATOM      3  C   UNL     1      46.718   6.037  12.445  0.00  0.00    +0.000 A 
ATOM      4  C   UNL     1      46.801   5.036  13.409  0.00  0.00    +0.000 A 
ATOM      5  C   UNL     1      46.105   3.840  13.224  0.00  0.00    +0.000 A 
ATOM      6  C   UNL     1      45.287   3.663  12.106  0.00  0.00    +0.000 A 
ENDROOT
BRANCH   1   7
ATOM      7  C   UNL     1      44.215   4.531   9.990  0.00  0.00    +0.000 C 
BRANCH   7   8
ATOM      8  N   UNL     1      44.884   4.733   8.711  0.00  0.00    +0.000 NA
ATOM      9  H   UNL     1      45.147   5.714   8.627  0.00  0.00    +0.000 HD
ATOM     10  H   UNL     1      44.216   4.552   7.962  0.00  0.00    +0.000 HD
ENDBRANCH   7   8
ENDBRANCH   1   7
BRANCH   4  11
ATOM     11  O   UNL     1      47.563   5.096  14.541  0.00  0.00    +0.000 OA
BRANCH  11  12
ATOM     12  C   UNL     1      47.209   4.185  15.584  0.00  0.00    +0.000 C 
BRANCH  12  13
ATOM     13  C   UNL     1      48.016   4.504  16.807  0.00  0.00    +0.000 A 
ATOM     14  C   UNL     1      47.991   3.727  17.948  0.00  0.00    +0.000 A 
ATOM     15  N   UNL     1      48.718   3.992  19.052  0.00  0.00    +0.000 NA
ATOM     16  C   UNL     1      49.498   5.078  18.988  0.00  0.00    +0.000 A 
ATOM     17  N   UNL     1      49.635   5.889  17.928  0.00  0.00    +0.000 NA
ATOM     18  C   UNL     1      48.885   5.574  16.853  0.00  0.00    +0.000 A 
ENDBRANCH  12  13
ENDBRANCH  11  12
ENDBRANCH   4  11
TORSDOF 5
ENDMDL
MODEL 8
REMARK VINA RESULT:    -4.650      3.608      5.281
REMARK INTER + INTRA:          -6.306
REMARK INTER:                  -5.978
REMARK INTRA:                  -0.327
REMARK UNBOUND:                -0.432
REMARK  Name = 
REMARK  5 active torsions:
REMARK  status: ('A' for Active; 'I' for Inactive)
REMARK    1  A    between atoms: N_1  and  C_2
REMARK    2  A    between atoms: C_2  and  C_3
REMARK    3  A    between atoms: C_6  and  O_7
REMARK    4  A    between atoms: O_7  and  C_8
REMARK    5  A    between atoms: C_8  and  C_9
REMARK                            x       y       z     vdW  Elec       q    Type
REMARK                         _______ _______ _______ _____ _____    ______ ____
ROOT
ATOM      1  C   UNL     1      44.704   3.955  11.251  0.00  0.00    +0.000 A 
ATOM      2  C   UNL     1      45.101   3.924  12.596  0.00  0.00    +0.000 A 
ATOM      3  C   UNL     1      45.788   5.000  13.166  0.00  0.00    +0.000 A 
ATOM      4  C   UNL     1      46.091   6.118  12.393  0.00  0.00    +0.000 A 
ATOM      5  C   UNL     1      45.662   6.176  11.066  0.00  0.00    +0.000 A 
ATOM      6  C   UNL     1      44.978   5.101  10.495  0.00  0.00    +0.000 A 
ENDROOT
BRANCH   1   7
ATOM      7  C   UNL     1      44.044   2.757  10.619  0.00  0.00    +0.000 C 
BRANCH   7   8
ATOM      8  N   UNL     1      43.031   2.171  11.486  0.00  0.00    +0.000 NA
ATOM      9  H   UNL     1      42.251   2.822  11.571  0.00  0.00    +0.000 HD
ATOM     10  H   UNL     1      43.422   2.071  12.422  0.00  0.00    +0.000 HD
ENDBRANCH   7   8
ENDBRANCH   1   7
BRANCH   4  11
ATOM     11  O   UNL     1      46.755   7.225  12.839  0.00  0.00    +0.000 OA
BRANCH  11  12
ATOM     12  C   UNL     1      48.068   7.425  12.308  0.00  0.00    +0.000 C 
BRANCH  12  13
ATOM     13  C   UNL     1      49.059   7.404  13.434  0.00  0.00    +0.000 A 
ATOM     14  C   UNL     1      48.855   6.696  14.601  0.00  0.00    +0.000 A 
ATOM     15  N   UNL     1      49.739   6.655  15.618  0.00  0.00    +0.000 NA
ATOM     16  C   UNL     1      50.867   7.354  15.436  0.00  0.00    +0.000 A 
ATOM     17  N   UNL     1      51.194   8.050  14.337  0.00  0.00    +0.000 NA
ATOM     18  C   UNL     1      50.272   8.053  13.354  0.00  0.00    +0.000 A 
ENDBRANCH  12  13
ENDBRANCH  11  12
ENDBRANCH   4  11
TORSDOF 5
ENDMDL
MODEL 9
REMARK VINA RESULT:    -4.530      4.117      5.753
REMARK INTER + INTRA:          -6.153
REMARK INTER:                  -5.844
REMARK INTRA:                  -0.309
REMARK UNBOUND:                -0.432
REMARK  Name = 
REMARK  5 active torsions:
REMARK  status: ('A' for Active; 'I' for Inactive)
REMARK    1  A    between atoms: N_1  and  C_2
REMARK    2  A    between atoms: C_2  and  C_3
REMARK    3  A    between atoms: C_6  and  O_7
REMARK    4  A    between atoms: O_7  and  C_8
REMARK    5  A    between atoms: C_8  and  C_9
REMARK                            x       y       z     vdW  Elec       q    Type
REMARK                         _______ _______ _______ _____ _____    ______ ____
ROOT
ATOM      1  C   UNL     1      44.783   4.013  11.291  0.00  0.00    +0.000 A 
ATOM      2  C   UNL     1      45.392   3.819  12.539  0.00  0.00    +0.000 A 
ATOM      3  C   UNL     1      46.243   4.787  13.081  0.00  0.00    +0.000 A 
ATOM      4  C   UNL     1      46.500   5.959  12.373  0.00  0.00    +0.000 A 
ATOM      5  C   UNL     1      45.865   6.180  11.151  0.00  0.00    +0.000 A 
ATOM      6  C   UNL     1      45.016   5.213  10.609  0.00  0.00    +0.000 A 
ENDROOT
BRANCH   1   7
ATOM      7  C   UNL     1      43.938   2.929  10.673  0.00  0.00    +0.000 C 
BRANCH   7   8
ATOM      8  N   UNL     1      43.088   2.272  11.657  0.00  0.00    +0.000 NA
ATOM      9  H   UNL     1      43.387   1.302  11.757  0.00  0.00    +0.000 HD
ATOM     10  H   UNL     1      42.135   2.240  11.295  0.00  0.00    +0.000 HD
ENDBRANCH   7   8
ENDBRANCH   1   7
BRANCH   4  11
ATOM     11  O   UNL     1      47.311   6.972  12.799  0.00  0.00    +0.000 OA
BRANCH  11  12
ATOM     12  C   UNL     1      48.713   6.690  12.811  0.00  0.00    +0.000 C 
BRANCH  12  13
ATOM     13  C   UNL     1      49.454   7.873  12.264  0.00  0.00    +0.000 A 
ATOM     14  C   UNL     1      50.551   7.754  11.434  0.00  0.00    +0.000 A 
ATOM     15  N   UNL     1      51.222   8.805  10.922  0.00  0.00    +0.000 NA
ATOM     16  C   UNL     1      50.758  10.014  11.264  0.00  0.00    +0.000 A 
ATOM     17  N   UNL     1      49.685  10.258  12.031  0.00  0.00    +0.000 NA
ATOM     18  C   UNL     1      49.053   9.168  12.513  0.00  0.00    +0.000 A 
ENDBRANCH  12  13
ENDBRANCH  11  12
ENDBRANCH   4  11
TORSDOF 5
ENDMDL
