MODEL 1
REMARK VINA RESULT:    -7.404      0.000      0.000
REMARK INTER + INTRA:         -10.535
REMARK INTER:                  -9.569
REMARK INTRA:                  -0.967
REMARK UNBOUND:                -0.967
REMARK  Name = 
REMARK  6 active torsions:
REMARK  status: ('A' for Active; 'I' for Inactive)
REMARK    1  A    between atoms: C_1  and  O_2
REMARK    2  A    between atoms: O_2  and  C_3
REMARK    3  A    between atoms: N_6  and  C_7
REMARK    4  A    between atoms: C_7  and  C_8
REMARK    5  A    between atoms: C_12  and  C_13
REMARK    6  A    between atoms: C_23  and  C_24
REMARK                            x       y       z     vdW  Elec       q    Type
REMARK                         _______ _______ _______ _____ _____    ______ ____
ROOT
ATOM      1  C   UNL     1      46.357   8.412  12.522  0.00  0.00    +0.000 A 
ATOM      2  N   UNL     1      46.165   7.126  12.915  0.00  0.00    +0.000 NA
ATOM      3  C   UNL     1      47.220   6.284  12.955  0.00  0.00    +0.000 A 
ATOM      4  N   UNL     1      47.062   4.980  13.419  0.00  0.00    +0.000 N 
ATOM      5  C   UNL     1      48.495   6.730  12.629  0.00  0.00    +0.000 A 
ATOM      6  C   UNL     1      48.688   8.060  12.250  0.00  0.00    +0.000 A 
ATOM      7  C   UNL     1      47.604   8.941  12.201  0.00  0.00    +0.000 A 
ATOM      8  H   UNL     1      47.642   4.306  12.934  0.00  0.00    +0.000 HD
ENDROOT
BRANCH   7   9
ATOM      9  C   UNL     1      47.872  10.347  11.804  0.00  0.00    +0.000 C 
ATOM     10  N   UNL     1      47.203  11.356  12.437  0.00  0.00    +0.000 N 
ATOM     11  O   UNL     1      48.682  10.615  10.919  0.00  0.00    +0.000 OA
ATOM     12  H   UNL     1      46.548  11.183  13.191  0.00  0.00    +0.000 HD
ATOM     13  H   UNL     1      47.410  12.310  12.175  0.00  0.00    +0.000 HD
ENDBRANCH   7   9
BRANCH   1  15
ATOM     14  C   UNL     1      44.376   8.925  11.382  0.00  0.00    +0.000 C 
ATOM     15  O   UNL     1      45.244   9.232  12.470  0.00  0.00    +0.000 OA
ENDBRANCH   1  15
BRANCH   4  16
ATOM     16  C   UNL     1      45.727   4.490  13.738  0.00  0.00    +0.000 C 
BRANCH  16  17
ATOM     17  C   UNL     1      45.027   3.820  12.574  0.00  0.00    +0.000 A 
ATOM     18  C   UNL     1      43.705   3.384  12.674  0.00  0.00    +0.000 A 
ATOM     19  C   UNL     1      43.083   2.879  11.541  0.00  0.00    +0.000 A 
ATOM     20  N   UNL     1      43.680   2.766  10.333  0.00  0.00    +0.000 NA
ATOM     21  C   UNL     1      44.970   3.164  10.231  0.00  0.00    +0.000 A 
ATOM     22  C   UNL     1      45.649   3.700  11.326  0.00  0.00    +0.000 A 
BRANCH  21  23
ATOM     23  C   UNL     1      45.602   3.007   8.911  0.00  0.00    +0.000 A 
ATOM     24  C   UNL     1      45.813   4.096   8.060  0.00  0.00    +0.000 A 
ATOM     25  N   UNL     1      46.406   4.030   6.834  0.00  0.00    +0.000 NA
ATOM     26  C   UNL     1      46.798   2.806   6.421  0.00  0.00    +0.000 A 
ATOM     27  C   UNL     1      46.628   1.662   7.177  0.00  0.00    +0.000 A 
ATOM     28  F   UNL     1      47.034   0.472   6.719  0.00  0.00    +0.000 F 
ATOM     29  C   UNL     1      46.029   1.759   8.426  0.00  0.00    +0.000 A 
ENDBRANCH  21  23
ENDBRANCH  16  17
ENDBRANCH   4  16
TORSDOF 5
ENDMDL
MODEL 2
REMARK VINA RESULT:    -7.263      3.789      4.871
REMARK INTER + INTRA:         -10.353
REMARK INTER:                  -9.769
REMARK INTRA:                  -0.584
REMARK UNBOUND:                -0.967
REMARK  Name = 
REMARK  6 active torsions:
REMARK  status: ('A' for Active; 'I' for Inactive)
REMARK    1  A    between atoms: C_1  and  O_2
REMARK    2  A    between atoms: O_2  and  C_3
REMARK    3  A    between atoms: N_6  and  C_7
REMARK    4  A    between atoms: C_7  and  C_8
REMARK    5  A    between atoms: C_12  and  C_13
REMARK    6  A    between atoms: C_23  and  C_24
REMARK                            x       y       z     vdW  Elec       q    Type
REMARK                         _______ _______ _______ _____ _____    ______ ____
ROOT
ATOM      1  C   UNL     1      49.121   5.470  16.739  0.00  0.00    +0.000 A 
ATOM      2  N   UNL     1      48.105   5.359  15.845  0.00  0.00    +0.000 NA
ATOM      3  C   UNL     1      47.496   4.163  15.685  0.00  0.00    +0.000 A 
ATOM      4  N   UNL     1      46.406   4.038  14.826  0.00  0.00    +0.000 N 
ATOM      5  C   UNL     1      47.881   3.066  16.445  0.00  0.00    +0.000 A 
ATOM      6  C   UNL     1      48.910   3.196  17.379  0.00  0.00    +0.000 A 
ATOM      7  C   UNL     1      49.551   4.426  17.552  0.00  0.00    +0.000 A 
ATOM      8  H   UNL     1      46.374   3.149  14.342  0.00  0.00    +0.000 HD
ENDROOT
BRANCH   7   9
ATOM      9  C   UNL     1      50.630   4.508  18.570  0.00  0.00    +0.000 C 
ATOM     10  N   UNL     1      50.305   4.403  19.892  0.00  0.00    +0.000 N 
ATOM     11  O   UNL     1      51.803   4.667  18.241  0.00  0.00    +0.000 OA
ATOM     12  H   UNL     1      49.355   4.243  20.207  0.00  0.00    +0.000 HD
ATOM     13  H   UNL     1      51.050   4.437  20.575  0.00  0.00    +0.000 HD
ENDBRANCH   7   9
BRANCH   1  15
ATOM     14  C   UNL     1      50.500   7.055  15.701  0.00  0.00    +0.000 C 
ATOM     15  O   UNL     1      49.733   6.706  16.850  0.00  0.00    +0.000 OA
ENDBRANCH   1  15
BRANCH   4  16
ATOM     16  C   UNL     1      46.010   5.173  14.003  0.00  0.00    +0.000 C 
BRANCH  16  17
ATOM     17  C   UNL     1      45.123   4.801  12.832  0.00  0.00    +0.000 A 
ATOM     18  C   UNL     1      43.749   5.036  12.857  0.00  0.00    +0.000 A 
ATOM     19  C   UNL     1      43.008   4.777  11.713  0.00  0.00    +0.000 A 
ATOM     20  N   UNL     1      43.530   4.293  10.563  0.00  0.00    +0.000 NA
ATOM     21  C   UNL     1      44.859   4.039  10.536  0.00  0.00    +0.000 A 
ATOM     22  C   UNL     1      45.667   4.296  11.645  0.00  0.00    +0.000 A 
BRANCH  21  23
ATOM     23  C   UNL     1      45.395   3.491   9.280  0.00  0.00    +0.000 A 
ATOM     24  C   UNL     1      45.705   4.309   8.190  0.00  0.00    +0.000 A 
ATOM     25  N   UNL     1      46.220   3.876   7.004  0.00  0.00    +0.000 NA
ATOM     26  C   UNL     1      46.425   2.547   6.888  0.00  0.00    +0.000 A 
ATOM     27  C   UNL     1      46.143   1.647   7.898  0.00  0.00    +0.000 A 
ATOM     28  F   UNL     1      46.364   0.338   7.730  0.00  0.00    +0.000 F 
ATOM     29  C   UNL     1      45.628   2.117   9.099  0.00  0.00    +0.000 A 
ENDBRANCH  21  23
ENDBRANCH  16  17
ENDBRANCH   4  16
TORSDOF 5
ENDMDL
MODEL 3
REMARK VINA RESULT:    -7.153      1.637      2.029
REMARK INTER + INTRA:         -10.211
REMARK INTER:                  -9.262
REMARK INTRA:                  -0.949
REMARK UNBOUND:                -0.967
REMARK  Name = 
REMARK  6 active torsions:
REMARK  status: ('A' for Active; 'I' for Inactive)
REMARK    1  A    between atoms: C_1  and  O_2
REMARK    2  A    between atoms: O_2  and  C_3
REMARK    3  A    between atoms: N_6  and  C_7
REMARK    4  A    between atoms: C_7  and  C_8
REMARK    5  A    between atoms: C_12  and  C_13
REMARK    6  A    between atoms: C_23  and  C_24
REMARK                            x       y       z     vdW  Elec       q    Type
REMARK                         _______ _______ _______ _____ _____    ______ ____
ROOT
ATOM      1  C   UNL     1      48.376   8.240  12.478  0.00  0.00    +0.000 A 
ATOM      2  N   UNL     1      47.246   7.499  12.618  0.00  0.00    +0.000 NA
ATOM      3  C   UNL     1      47.188   6.562  13.589  0.00  0.00    +0.000 A 
ATOM      4  N   UNL     1      46.016   5.837  13.797  0.00  0.00    +0.000 N 
ATOM      5  C   UNL     1      48.256   6.375  14.457  0.00  0.00    +0.000 A 
ATOM      6  C   UNL     1      49.404   7.157  14.322  0.00  0.00    +0.000 A 
ATOM      7  C   UNL     1      49.479   8.128  13.319  0.00  0.00    +0.000 A 
ATOM      8  H   UNL     1      46.180   4.877  14.076  0.00  0.00    +0.000 HD
ENDROOT
BRANCH   7   9
ATOM      9  C   UNL     1      50.721   8.939  13.232  0.00  0.00    +0.000 C 
ATOM     10  N   UNL     1      51.351   9.062  12.026  0.00  0.00    +0.000 N 
ATOM     11  O   UNL     1      51.186   9.498  14.223  0.00  0.00    +0.000 OA
ATOM     12  H   UNL     1      50.988   8.642  11.178  0.00  0.00    +0.000 HD
ATOM     13  H   UNL     1      52.182   9.635  11.974  0.00  0.00    +0.000 HD
ENDBRANCH   7   9
BRANCH   1  15
ATOM     14  C   UNL     1      47.675  10.356  11.757  0.00  0.00    +0.000 C 
ATOM     15  O   UNL     1      48.402   9.168  11.454  0.00  0.00    +0.000 OA
ENDBRANCH   1  15
BRANCH   4  16
ATOM     16  C   UNL     1      44.899   6.003  12.878  0.00  0.00    +0.000 C 
BRANCH  16  17
ATOM     17  C   UNL     1      44.560   4.753  12.092  0.00  0.00    +0.000 A 
ATOM     18  C   UNL     1      43.531   3.900  12.490  0.00  0.00    +0.000 A 
ATOM     19  C   UNL     1      43.196   2.832  11.669  0.00  0.00    +0.000 A 
ATOM     20  N   UNL     1      43.814   2.549  10.500  0.00  0.00    +0.000 NA
ATOM     21  C   UNL     1      44.830   3.357  10.116  0.00  0.00    +0.000 A 
ATOM     22  C   UNL     1      45.206   4.461  10.884  0.00  0.00    +0.000 A 
BRANCH  21  23
ATOM     23  C   UNL     1      45.500   3.012   8.853  0.00  0.00    +0.000 A 
ATOM     24  C   UNL     1      45.730   3.963   7.855  0.00  0.00    +0.000 A 
ATOM     25  N   UNL     1      46.358   3.722   6.669  0.00  0.00    +0.000 NA
ATOM     26  C   UNL     1      46.769   2.454   6.455  0.00  0.00    +0.000 A 
ATOM     27  C   UNL     1      46.583   1.434   7.367  0.00  0.00    +0.000 A 
ATOM     28  F   UNL     1      47.010   0.193   7.104  0.00  0.00    +0.000 F 
ATOM     29  C   UNL     1      45.948   1.710   8.571  0.00  0.00    +0.000 A 
ENDBRANCH  21  23
ENDBRANCH  16  17
ENDBRANCH   4  16
TORSDOF 5
ENDMDL
MODEL 4
REMARK VINA RESULT:    -7.111      2.250      2.876
REMARK INTER + INTRA:         -10.156
REMARK INTER:                  -9.219
REMARK INTRA:                  -0.937
REMARK UNBOUND:                -0.967
REMARK  Name = 
REMARK  6 active torsions:
REMARK  status: ('A' for Active; 'I' for Inactive)
REMARK    1  A    between atoms: C_1  and  O_2
REMARK    2  A    between atoms: O_2  and  C_3
REMARK    3  A    between atoms: N_6  and  C_7
REMARK    4  A    between atoms: C_7  and  C_8
REMARK    5  A    between atoms: C_12  and  C_13
REMARK    6  A    between atoms: C_23  and  C_24
REMARK                            x       y       z     vdW  Elec       q    Type
REMARK                         _______ _______ _______ _____ _____    ______ ____
ROOT
ATOM      1  C   UNL     1      48.773   7.457  14.359  0.00  0.00    +0.000 A 
ATOM      2  N   UNL     1      47.596   7.196  13.732  0.00  0.00    +0.000 NA
ATOM      3  C   UNL     1      47.426   7.604  12.455  0.00  0.00    +0.000 A 
ATOM      4  N   UNL     1      46.255   7.289  11.767  0.00  0.00    +0.000 N 
ATOM      5  C   UNL     1      48.448   8.254  11.777  0.00  0.00    +0.000 A 
ATOM      6  C   UNL     1      49.663   8.496  12.421  0.00  0.00    +0.000 A 
ATOM      7  C   UNL     1      49.852   8.084  13.743  0.00  0.00    +0.000 A 
ATOM      8  H   UNL     1      45.953   8.016  11.131  0.00  0.00    +0.000 HD
ENDROOT
BRANCH   7   9
ATOM      9  C   UNL     1      51.170   8.356  14.372  0.00  0.00    +0.000 C 
ATOM     10  N   UNL     1      51.817   7.345  15.023  0.00  0.00    +0.000 N 
ATOM     11  O   UNL     1      51.683   9.472  14.315  0.00  0.00    +0.000 OA
ATOM     12  H   UNL     1      51.444   6.403  15.070  0.00  0.00    +0.000 HD
ATOM     13  H   UNL     1      52.723   7.536  15.428  0.00  0.00    +0.000 HD
ENDBRANCH   7   9
BRANCH   1  15
ATOM     14  C   UNL     1      48.357   5.746  15.904  0.00  0.00    +0.000 C 
ATOM     15  O   UNL     1      48.894   7.046  15.674  0.00  0.00    +0.000 OA
ENDBRANCH   1  15
BRANCH   4  16
ATOM     16  C   UNL     1      45.164   6.632  12.474  0.00  0.00    +0.000 C 
BRANCH  16  17
ATOM     17  C   UNL     1      44.693   5.350  11.818  0.00  0.00    +0.000 A 
ATOM     18  C   UNL     1      43.536   4.697  12.245  0.00  0.00    +0.000 A 
ATOM     19  C   UNL     1      43.095   3.590  11.534  0.00  0.00    +0.000 A 
ATOM     20  N   UNL     1      43.723   3.086  10.447  0.00  0.00    +0.000 NA
ATOM     21  C   UNL     1      44.859   3.698  10.039  0.00  0.00    +0.000 A 
ATOM     22  C   UNL     1      45.348   4.828  10.696  0.00  0.00    +0.000 A 
BRANCH  21  23
ATOM     23  C   UNL     1      45.534   3.114   8.869  0.00  0.00    +0.000 A 
ATOM     24  C   UNL     1      45.942   3.896   7.785  0.00  0.00    +0.000 A 
ATOM     25  N   UNL     1      46.586   3.428   6.678  0.00  0.00    +0.000 NA
ATOM     26  C   UNL     1      46.826   2.100   6.639  0.00  0.00    +0.000 A 
ATOM     27  C   UNL     1      46.456   1.235   7.649  0.00  0.00    +0.000 A 
ATOM     28  F   UNL     1      46.718  -0.075   7.559  0.00  0.00    +0.000 F 
ATOM     29  C   UNL     1      45.809   1.739   8.770  0.00  0.00    +0.000 A 
ENDBRANCH  21  23
ENDBRANCH  16  17
ENDBRANCH   4  16
TORSDOF 5
ENDMDL
MODEL 5
REMARK VINA RESULT:    -7.100      4.161      5.903
REMARK INTER + INTRA:         -10.142
REMARK INTER:                  -9.191
REMARK INTRA:                  -0.951
REMARK UNBOUND:                -0.967
REMARK  Name = 
REMARK  6 active torsions:
REMARK  status: ('A' for Active; 'I' for Inactive)
REMARK    1  A    between atoms: C_1  and  O_2
REMARK    2  A    between atoms: O_2  and  C_3
REMARK    3  A    between atoms: N_6  and  C_7
REMARK    4  A    between atoms: C_7  and  C_8
REMARK    5  A    between atoms: C_12  and  C_13
REMARK    6  A    between atoms: C_23  and  C_24
REMARK                            x       y       z     vdW  Elec       q    Type
REMARK                         _______ _______ _______ _____ _____    ______ ____
ROOT
ATOM      1  C   UNL     1      48.973   4.971  17.024  0.00  0.00    +0.000 A 
ATOM      2  N   UNL     1      48.878   5.776  15.934  0.00  0.00    +0.000 NA
ATOM      3  C   UNL     1      48.722   7.106  16.110  0.00  0.00    +0.000 A 
ATOM      4  N   UNL     1      48.691   7.962  15.011  0.00  0.00    +0.000 N 
ATOM      5  C   UNL     1      48.689   7.653  17.387  0.00  0.00    +0.000 A 
ATOM      6  C   UNL     1      48.811   6.820  18.500  0.00  0.00    +0.000 A 
ATOM      7  C   UNL     1      48.970   5.442  18.333  0.00  0.00    +0.000 A 
ATOM      8  H   UNL     1      48.059   8.745  15.126  0.00  0.00    +0.000 HD
ENDROOT
BRANCH   7   9
ATOM      9  C   UNL     1      49.109   4.607  19.554  0.00  0.00    +0.000 C 
ATOM     10  N   UNL     1      48.390   3.450  19.654  0.00  0.00    +0.000 N 
ATOM     11  O   UNL     1      49.857   4.941  20.471  0.00  0.00    +0.000 OA
ATOM     12  H   UNL     1      47.783   3.123  18.911  0.00  0.00    +0.000 HD
ATOM     13  H   UNL     1      48.510   2.879  20.479  0.00  0.00    +0.000 HD
ENDBRANCH   7   9
BRANCH   1  15
ATOM     14  C   UNL     1      47.962   3.038  16.168  0.00  0.00    +0.000 C 
ATOM     15  O   UNL     1      49.105   3.613  16.797  0.00  0.00    +0.000 OA
ENDBRANCH   1  15
BRANCH   4  16
ATOM     16  C   UNL     1      48.697   7.401  13.666  0.00  0.00    +0.000 C 
BRANCH  16  17
ATOM     17  C   UNL     1      47.326   7.327  13.027  0.00  0.00    +0.000 A 
ATOM     18  C   UNL     1      46.419   8.383  13.124  0.00  0.00    +0.000 A 
ATOM     19  C   UNL     1      45.224   8.300  12.425  0.00  0.00    +0.000 A 
ATOM     20  N   UNL     1      44.865   7.248  11.655  0.00  0.00    +0.000 NA
ATOM     21  C   UNL     1      45.726   6.209  11.573  0.00  0.00    +0.000 A 
ATOM     22  C   UNL     1      46.955   6.234  12.234  0.00  0.00    +0.000 A 
BRANCH  21  23
ATOM     23  C   UNL     1      45.299   5.067  10.748  0.00  0.00    +0.000 A 
ATOM     24  C   UNL     1      44.582   3.994  11.286  0.00  0.00    +0.000 A 
ATOM     25  N   UNL     1      44.139   2.914  10.583  0.00  0.00    +0.000 NA
ATOM     26  C   UNL     1      44.441   2.890   9.267  0.00  0.00    +0.000 A 
ATOM     27  C   UNL     1      45.153   3.890   8.635  0.00  0.00    +0.000 A 
ATOM     28  F   UNL     1      45.426   3.815   7.327  0.00  0.00    +0.000 F 
ATOM     29  C   UNL     1      45.585   4.984   9.374  0.00  0.00    +0.000 A 
ENDBRANCH  21  23
ENDBRANCH  16  17
ENDBRANCH   4  16
TORSDOF 5
ENDMDL
MODEL 6
REMARK VINA RESULT:    -6.635      5.540      8.238
REMARK INTER + INTRA:          -9.541
REMARK INTER:                  -8.775
REMARK INTRA:                  -0.766
REMARK UNBOUND:                -0.967
REMARK  Name = 
REMARK  6 active torsions:
REMARK  status: ('A' for Active; 'I' for Inactive)
REMARK    1  A    between atoms: C_1  and  O_2
REMARK    2  A    between atoms: O_2  and  C_3
REMARK    3  A    between atoms: N_6  and  C_7
REMARK    4  A    between atoms: C_7  and  C_8
REMARK    5  A    between atoms: C_12  and  C_13
REMARK    6  A    between atoms: C_23  and  C_24
REMARK                            x       y       z     vdW  Elec       q    Type
REMARK                         _______ _______ _______ _____ _____    ______ ____
ROOT
ATOM      1  C   UNL     1      45.449   4.022  11.901  0.00  0.00    +0.000 A 
ATOM      2  N   UNL     1      45.922   4.147  13.167  0.00  0.00    +0.000 NA
ATOM      3  C   UNL     1      46.627   5.250  13.501  0.00  0.00    +0.000 A 
ATOM      4  N   UNL     1      47.065   5.435  14.811  0.00  0.00    +0.000 N 
ATOM      5  C   UNL     1      46.842   6.261  12.573  0.00  0.00    +0.000 A 
ATOM      6  C   UNL     1      46.331   6.135  11.280  0.00  0.00    +0.000 A 
ATOM      7  C   UNL     1      45.603   4.998  10.921  0.00  0.00    +0.000 A 
ATOM      8  H   UNL     1      47.967   5.891  14.875  0.00  0.00    +0.000 HD
ENDROOT
BRANCH   7   9
ATOM      9  C   UNL     1      45.071   4.925   9.535  0.00  0.00    +0.000 C 
ATOM     10  N   UNL     1      43.738   4.695   9.346  0.00  0.00    +0.000 N 
ATOM     11  O   UNL     1      45.809   5.068   8.563  0.00  0.00    +0.000 OA
ATOM     12  H   UNL     1      43.089   4.599  10.118  0.00  0.00    +0.000 HD
ATOM     13  H   UNL     1      43.384   4.670   8.400  0.00  0.00    +0.000 HD
ENDBRANCH   7   9
BRANCH   1  15
ATOM     14  C   UNL     1      43.492   2.780  12.250  0.00  0.00    +0.000 C 
ATOM     15  O   UNL     1      44.756   2.864  11.596  0.00  0.00    +0.000 OA
ENDBRANCH   1  15
BRANCH   4  16
ATOM     16  C   UNL     1      46.872   4.371  15.788  0.00  0.00    +0.000 C 
BRANCH  16  17
ATOM     17  C   UNL     1      47.806   4.454  16.977  0.00  0.00    +0.000 A 
ATOM     18  C   UNL     1      47.394   5.009  18.189  0.00  0.00    +0.000 A 
ATOM     19  C   UNL     1      48.257   4.955  19.274  0.00  0.00    +0.000 A 
ATOM     20  N   UNL     1      49.492   4.405  19.236  0.00  0.00    +0.000 NA
ATOM     21  C   UNL     1      49.910   3.884  18.059  0.00  0.00    +0.000 A 
ATOM     22  C   UNL     1      49.086   3.887  16.933  0.00  0.00    +0.000 A 
BRANCH  21  23
ATOM     23  C   UNL     1      51.267   3.314  18.040  0.00  0.00    +0.000 A 
ATOM     24  C   UNL     1      52.376   4.032  18.498  0.00  0.00    +0.000 A 
ATOM     25  N   UNL     1      53.656   3.565  18.527  0.00  0.00    +0.000 NA
ATOM     26  C   UNL     1      53.850   2.314  18.058  0.00  0.00    +0.000 A 
ATOM     27  C   UNL     1      52.829   1.522  17.571  0.00  0.00    +0.000 A 
ATOM     28  F   UNL     1      53.076   0.288  17.116  0.00  0.00    +0.000 F 
ATOM     29  C   UNL     1      51.532   2.020  17.562  0.00  0.00    +0.000 A 
ENDBRANCH  21  23
ENDBRANCH  16  17
ENDBRANCH   4  16
TORSDOF 5
ENDMDL
MODEL 7
REMARK VINA RESULT:    -6.229      4.530      7.214
REMARK INTER + INTRA:          -9.017
REMARK INTER:                  -8.225
REMARK INTRA:                  -0.792
REMARK UNBOUND:                -0.967
REMARK  Name = 
REMARK  6 active torsions:
REMARK  status: ('A' for Active; 'I' for Inactive)
REMARK    1  A    between atoms: C_1  and  O_2
REMARK    2  A    between atoms: O_2  and  C_3
REMARK    3  A    between atoms: N_6  and  C_7
REMARK    4  A    between atoms: C_7  and  C_8
REMARK    5  A    between atoms: C_12  and  C_13
REMARK    6  A    between atoms: C_23  and  C_24
REMARK                            x       y       z     vdW  Elec       q    Type
REMARK                         _______ _______ _______ _____ _____    ______ ____
ROOT
ATOM      1  C   UNL     1      46.283   4.896  13.200  0.00  0.00    +0.000 A 
ATOM      2  N   UNL     1      47.269   5.805  12.984  0.00  0.00    +0.000 NA
ATOM      3  C   UNL     1      47.038   6.842  12.150  0.00  0.00    +0.000 A 
ATOM      4  N   UNL     1      48.009   7.825  11.965  0.00  0.00    +0.000 N 
ATOM      5  C   UNL     1      45.799   7.001  11.543  0.00  0.00    +0.000 A 
ATOM      6  C   UNL     1      44.783   6.075  11.790  0.00  0.00    +0.000 A 
ATOM      7  C   UNL     1      45.010   4.995  12.647  0.00  0.00    +0.000 A 
ATOM      8  H   UNL     1      48.037   8.192  11.021  0.00  0.00    +0.000 HD
ENDROOT
BRANCH   7   9
ATOM      9  C   UNL     1      43.887   4.050  12.883  0.00  0.00    +0.000 C 
ATOM     10  N   UNL     1      44.070   2.722  12.618  0.00  0.00    +0.000 N 
ATOM     11  O   UNL     1      42.804   4.443  13.310  0.00  0.00    +0.000 OA
ATOM     12  H   UNL     1      44.955   2.350  12.292  0.00  0.00    +0.000 HD
ATOM     13  H   UNL     1      43.307   2.086  12.803  0.00  0.00    +0.000 HD
ENDBRANCH   7   9
BRANCH   1  15
ATOM     14  C   UNL     1      47.108   4.246  15.294  0.00  0.00    +0.000 C 
ATOM     15  O   UNL     1      46.573   3.835  14.039  0.00  0.00    +0.000 OA
ENDBRANCH   1  15
BRANCH   4  16
ATOM     16  C   UNL     1      49.322   7.658  12.573  0.00  0.00    +0.000 C 
BRANCH  16  17
ATOM     17  C   UNL     1      50.467   8.114  11.693  0.00  0.00    +0.000 A 
ATOM     18  C   UNL     1      51.058   9.366  11.858  0.00  0.00    +0.000 A 
ATOM     19  C   UNL     1      52.175   9.681  11.097  0.00  0.00    +0.000 A 
ATOM     20  N   UNL     1      52.730   8.853  10.183  0.00  0.00    +0.000 NA
ATOM     21  C   UNL     1      52.150   7.645   9.998  0.00  0.00    +0.000 A 
ATOM     22  C   UNL     1      51.037   7.255  10.745  0.00  0.00    +0.000 A 
BRANCH  21  23
ATOM     23  C   UNL     1      52.760   6.774   8.981  0.00  0.00    +0.000 A 
ATOM     24  C   UNL     1      52.389   6.839   7.635  0.00  0.00    +0.000 A 
ATOM     25  N   UNL     1      52.921   6.079   6.636  0.00  0.00    +0.000 NA
ATOM     26  C   UNL     1      53.869   5.188   6.999  0.00  0.00    +0.000 A 
ATOM     27  C   UNL     1      54.302   5.033   8.301  0.00  0.00    +0.000 A 
ATOM     28  F   UNL     1      55.244   4.132   8.607  0.00  0.00    +0.000 F 
ATOM     29  C   UNL     1      53.749   5.827   9.298  0.00  0.00    +0.000 A 
ENDBRANCH  21  23
ENDBRANCH  16  17
ENDBRANCH   4  16
TORSDOF 5
ENDMDL
MODEL 8
REMARK VINA RESULT:    -5.971      4.786      8.518
REMARK INTER + INTRA:          -8.683
REMARK INTER:                  -7.593
REMARK INTRA:                  -1.090
REMARK UNBOUND:                -0.967
REMARK  Name = 
REMARK  6 active torsions:
REMARK  status: ('A' for Active; 'I' for Inactive)
REMARK    1  A    between atoms: C_1  and  O_2
REMARK    2  A    between atoms: O_2  and  C_3
REMARK    3  A    between atoms: N_6  and  C_7
REMARK    4  A    between atoms: C_7  and  C_8
REMARK    5  A    between atoms: C_12  and  C_13
REMARK    6  A    between atoms: C_23  and  C_24
REMARK                            x       y       z     vdW  Elec       q    Type
REMARK                         _______ _______ _______ _____ _____    ______ ____
ROOT
ATOM      1  C   UNL     1      46.161   4.592  12.898  0.00  0.00    +0.000 A 
ATOM      2  N   UNL     1      47.160   5.510  12.954  0.00  0.00    +0.000 NA
ATOM      3  C   UNL     1      47.092   6.607  12.169  0.00  0.00    +0.000 A 
ATOM      4  N   UNL     1      48.069   7.597  12.258  0.00  0.00    +0.000 N 
ATOM      5  C   UNL     1      46.001   6.814  11.334  0.00  0.00    +0.000 A 
ATOM      6  C   UNL     1      44.967   5.877  11.300  0.00  0.00    +0.000 A 
ATOM      7  C   UNL     1      45.026   4.736  12.105  0.00  0.00    +0.000 A 
ATOM      8  H   UNL     1      48.285   8.032  11.369  0.00  0.00    +0.000 HD
ENDROOT
BRANCH   7   9
ATOM      9  C   UNL     1      43.890   3.781  12.037  0.00  0.00    +0.000 C 
ATOM     10  N   UNL     1      43.435   3.206  13.190  0.00  0.00    +0.000 N 
ATOM     11  O   UNL     1      43.356   3.502  10.965  0.00  0.00    +0.000 OA
ATOM     12  H   UNL     1      43.827   3.427  14.098  0.00  0.00    +0.000 HD
ATOM     13  H   UNL     1      42.648   2.575  13.135  0.00  0.00    +0.000 HD
ENDBRANCH   7   9
BRANCH   1  15
ATOM     14  C   UNL     1      47.175   3.664  14.795  0.00  0.00    +0.000 C 
ATOM     15  O   UNL     1      46.285   3.471  13.699  0.00  0.00    +0.000 OA
ENDBRANCH   1  15
BRANCH   4  16
ATOM     16  C   UNL     1      49.232   7.381  13.108  0.00  0.00    +0.000 C 
BRANCH  16  17
ATOM     17  C   UNL     1      49.035   7.829  14.541  0.00  0.00    +0.000 A 
ATOM     18  C   UNL     1      48.662   9.138  14.849  0.00  0.00    +0.000 A 
ATOM     19  C   UNL     1      48.389   9.458  16.172  0.00  0.00    +0.000 A 
ATOM     20  N   UNL     1      48.472   8.582  17.199  0.00  0.00    +0.000 NA
ATOM     21  C   UNL     1      48.856   7.316  16.913  0.00  0.00    +0.000 A 
ATOM     22  C   UNL     1      49.127   6.921  15.602  0.00  0.00    +0.000 A 
BRANCH  21  23
ATOM     23  C   UNL     1      48.962   6.391  18.053  0.00  0.00    +0.000 A 
ATOM     24  C   UNL     1      49.472   6.798  19.289  0.00  0.00    +0.000 A 
ATOM     25  N   UNL     1      49.585   6.005  20.392  0.00  0.00    +0.000 NA
ATOM     26  C   UNL     1      49.179   4.724  20.254  0.00  0.00    +0.000 A 
ATOM     27  C   UNL     1      48.670   4.215  19.076  0.00  0.00    +0.000 A 
ATOM     28  F   UNL     1      48.284   2.935  18.993  0.00  0.00    +0.000 F 
ATOM     29  C   UNL     1      48.559   5.048  17.970  0.00  0.00    +0.000 A 
ENDBRANCH  21  23
ENDBRANCH  16  17
ENDBRANCH   4  16
TORSDOF 5
ENDMDL
MODEL 9
REMARK VINA RESULT:    -5.824      4.775      7.197
REMARK INTER + INTRA:          -8.493
REMARK INTER:                  -7.463
REMARK INTRA:                  -1.030
REMARK UNBOUND:                -0.967
REMARK  Name = 
REMARK  6 active torsions:
REMARK  status: ('A' for Active; 'I' for Inactive)
REMARK    1  A    between atoms: C_1  and  O_2
REMARK    2  A    between atoms: O_2  and  C_3
REMARK    3  A    between atoms: N_6  and  C_7
REMARK    4  A    between atoms: C_7  and  C_8
REMARK    5  A    between atoms: C_12  and  C_13
REMARK    6  A    between atoms: C_23  and  C_24
REMARK                            x       y       z     vdW  Elec       q    Type
REMARK                         _______ _______ _______ _____ _____    ______ ____
ROOT
ATOM      1  C   UNL     1      49.599   5.145  17.756  0.00  0.00    +0.000 A 
ATOM      2  N   UNL     1      49.764   6.145  16.852  0.00  0.00    +0.000 NA
ATOM      3  C   UNL     1      49.123   7.319  17.042  0.00  0.00    +0.000 A 
ATOM      4  N   UNL     1      49.329   8.383  16.167  0.00  0.00    +0.000 N 
ATOM      5  C   UNL     1      48.327   7.517  18.164  0.00  0.00    +0.000 A 
ATOM      6  C   UNL     1      48.182   6.492  19.100  0.00  0.00    +0.000 A 
ATOM      7  C   UNL     1      48.837   5.272  18.913  0.00  0.00    +0.000 A 
ATOM      8  H   UNL     1      48.501   8.945  16.011  0.00  0.00    +0.000 HD
ENDROOT
BRANCH   7   9
ATOM      9  C   UNL     1      48.656   4.223  19.950  0.00  0.00    +0.000 C 
ATOM     10  N   UNL     1      48.259   2.973  19.569  0.00  0.00    +0.000 N 
ATOM     11  O   UNL     1      48.858   4.462  21.139  0.00  0.00    +0.000 OA
ATOM     12  H   UNL     1      48.109   2.724  18.598  0.00  0.00    +0.000 HD
ATOM     13  H   UNL     1      48.161   2.261  20.280  0.00  0.00    +0.000 HD
ENDBRANCH   7   9
BRANCH   1  15
ATOM     14  C   UNL     1      51.661   4.034  17.705  0.00  0.00    +0.000 C 
ATOM     15  O   UNL     1      50.252   3.952  17.506  0.00  0.00    +0.000 OA
ENDBRANCH   1  15
BRANCH   4  16
ATOM     16  C   UNL     1      50.139   8.181  14.973  0.00  0.00    +0.000 C 
BRANCH  16  17
ATOM     17  C   UNL     1      49.328   7.959  13.713  0.00  0.00    +0.000 A 
ATOM     18  C   UNL     1      49.648   8.604  12.518  0.00  0.00    +0.000 A 
ATOM     19  C   UNL     1      48.937   8.274  11.373  0.00  0.00    +0.000 A 
ATOM     20  N   UNL     1      47.933   7.369  11.335  0.00  0.00    +0.000 NA
ATOM     21  C   UNL     1      47.599   6.755  12.494  0.00  0.00    +0.000 A 
ATOM     22  C   UNL     1      48.286   7.024  13.679  0.00  0.00    +0.000 A 
BRANCH  21  23
ATOM     23  C   UNL     1      46.487   5.793  12.428  0.00  0.00    +0.000 A 
ATOM     24  C   UNL     1      46.128   5.005  13.526  0.00  0.00    +0.000 A 
ATOM     25  N   UNL     1      45.102   4.107  13.545  0.00  0.00    +0.000 NA
ATOM     26  C   UNL     1      44.400   3.972  12.399  0.00  0.00    +0.000 A 
ATOM     27  C   UNL     1      44.677   4.692  11.254  0.00  0.00    +0.000 A 
ATOM     28  F   UNL     1      43.950   4.519  10.143  0.00  0.00    +0.000 F 
ATOM     29  C   UNL     1      45.722   5.607  11.265  0.00  0.00    +0.000 A 
ENDBRANCH  21  23
ENDBRANCH  16  17
ENDBRANCH   4  16
TORSDOF 5
ENDMDL
