MODEL 1
REMARK VINA RESULT:    -8.230      0.000      0.000
REMARK INTER + INTRA:         -12.708
REMARK INTER:                 -11.839
REMARK INTRA:                  -0.869
REMARK UNBOUND:                -0.869
REMARK  Name = 
REMARK  8 active torsions:
REMARK  status: ('A' for Active; 'I' for Inactive)
REMARK    1  A    between atoms: C_2  and  C_3
REMARK    2  A    between atoms: C_7  and  C_8
REMARK    3  A    between atoms: C_12  and  C_13
REMARK    4  A    between atoms: C_13  and  C_14
REMARK    5  A    between atoms: C_13  and  C_16
REMARK    6  A    between atoms: C_14  and  O_15
REMARK    7  A    between atoms: C_16  and  N_17
REMARK    8  A    between atoms: C_20  and  C_21
REMARK                            x       y       z     vdW  Elec       q    Type
REMARK                         _______ _______ _______ _____ _____    ______ ____
ROOT
ATOM      1  C   UNL     1      43.838   5.719  11.183  0.00  0.00    +0.000 C 
ENDROOT
BRANCH   1   6
ATOM      2  C   UNL     1      47.369   6.777  12.309  0.00  0.00    +0.000 A 
ATOM      3  C   UNL     1      47.580   5.870  13.360  0.00  0.00    +0.000 A 
ATOM      4  C   UNL     1      46.632   4.897  13.681  0.00  0.00    +0.000 A 
ATOM      5  C   UNL     1      45.447   4.811  12.956  0.00  0.00    +0.000 A 
ATOM      6  C   UNL     1      45.177   5.718  11.924  0.00  0.00    +0.000 A 
ATOM      7  C   UNL     1      46.152   6.679  11.603  0.00  0.00    +0.000 A 
BRANCH   2  12
ATOM      8  C   UNL     1      50.627   8.497  11.366  0.00  0.00    +0.000 A 
ATOM      9  C   UNL     1      50.201   9.813  11.403  0.00  0.00    +0.000 A 
ATOM     10  N   UNL     1      48.933  10.179  11.695  0.00  0.00    +0.000 NA
ATOM     11  C   UNL     1      48.057   9.178  11.962  0.00  0.00    +0.000 A 
ATOM     12  C   UNL     1      48.368   7.814  11.973  0.00  0.00    +0.000 A 
ATOM     13  C   UNL     1      49.698   7.493  11.657  0.00  0.00    +0.000 A 
BRANCH   8  15
ATOM     14  N   UNL     1      53.080   7.919  10.783  0.00  0.00    +0.000 NA
ATOM     15  C   UNL     1      51.983   8.181  11.046  0.00  0.00    +0.000 C 
ENDBRANCH   8  15
ENDBRANCH   2  12
ENDBRANCH   1   6
BRANCH   1  16
ATOM     16  C   UNL     1      42.658   5.751  12.175  0.00  0.00    +0.000 C 
BRANCH  16  17
ATOM     17  O   UNL     1      41.627   6.659  11.803  0.00  0.00    +0.000 OA
ATOM     18  H   UNL     1      40.851   6.126  11.561  0.00  0.00    +0.000 HD
ENDBRANCH  16  17
ENDBRANCH   1  16
BRANCH   1  19
ATOM     19  C   UNL     1      43.744   4.563  10.168  0.00  0.00    +0.000 C 
BRANCH  19  20
ATOM     20  N   UNL     1      44.719   4.719   9.079  0.00  0.00    +0.000 N 
ATOM     21  C   UNL     1      45.263   3.499   8.639  0.00  0.00    +0.000 A 
ATOM     22  C   UNL     1      46.140   3.507   7.561  0.00  0.00    +0.000 A 
ATOM     23  C   UNL     1      46.683   2.300   7.109  0.00  0.00    +0.000 A 
ATOM     24  C   UNL     1      46.325   1.114   7.745  0.00  0.00    +0.000 A 
ATOM     25  C   UNL     1      45.442   1.195   8.800  0.00  0.00    +0.000 A 
ATOM     26  N   UNL     1      44.913   2.350   9.249  0.00  0.00    +0.000 NA
ATOM     27  H   UNL     1      45.479   5.355   9.303  0.00  0.00    +0.000 HD
BRANCH  23  28
ATOM     28  C   UNL     1      47.622   2.345   5.953  0.00  0.00    +0.000 C 
ATOM     29  N   UNL     1      47.458   3.326   5.013  0.00  0.00    +0.000 N 
ATOM     30  O   UNL     1      48.523   1.524   5.830  0.00  0.00    +0.000 OA
ATOM     31  H   UNL     1      46.753   4.044   5.022  0.00  0.00    +0.000 HD
ATOM     32  H   UNL     1      48.116   3.323   4.243  0.00  0.00    +0.000 HD
ENDBRANCH  23  28
ENDBRANCH  19  20
ENDBRANCH   1  19
TORSDOF 8
ENDMDL
MODEL 2
REMARK VINA RESULT:    -8.084      3.097      4.339
REMARK INTER + INTRA:         -12.496
REMARK INTER:                 -11.711
REMARK INTRA:                  -0.786
REMARK UNBOUND:                -0.869
REMARK  Name = 
REMARK  8 active torsions:
REMARK  status: ('A' for Active; 'I' for Inactive)
REMARK    1  A    between atoms: C_2  and  C_3
REMARK    2  A    between atoms: C_7  and  C_8
REMARK    3  A    between atoms: C_12  and  C_13
REMARK    4  A    between atoms: C_13  and  C_14
REMARK    5  A    between atoms: C_13  and  C_16
REMARK    6  A    between atoms: C_14  and  O_15
REMARK    7  A    between atoms: C_16  and  N_17
REMARK    8  A    between atoms: C_20  and  C_21
REMARK                            x       y       z     vdW  Elec       q    Type
REMARK                         _______ _______ _______ _____ _____    ______ ____
ROOT
ATOM      1  C   UNL     1      43.701   4.780  12.044  0.00  0.00    +0.000 C 
ENDROOT
BRANCH   1   6
ATOM      2  C   UNL     1      47.000   5.335  13.960  0.00  0.00    +0.000 A 
ATOM      3  C   UNL     1      47.681   6.160  13.050  0.00  0.00    +0.000 A 
ATOM      4  C   UNL     1      47.084   6.579  11.861  0.00  0.00    +0.000 A 
ATOM      5  C   UNL     1      45.788   6.178  11.552  0.00  0.00    +0.000 A 
ATOM      6  C   UNL     1      45.083   5.325  12.409  0.00  0.00    +0.000 A 
ATOM      7  C   UNL     1      45.694   4.930  13.612  0.00  0.00    +0.000 A 
BRANCH   2  12
ATOM      8  C   UNL     1      49.032   5.274  17.173  0.00  0.00    +0.000 A 
ATOM      9  C   UNL     1      48.832   3.954  17.536  0.00  0.00    +0.000 A 
ATOM     10  N   UNL     1      48.075   3.091  16.824  0.00  0.00    +0.000 NA
ATOM     11  C   UNL     1      47.494   3.576  15.697  0.00  0.00    +0.000 A 
ATOM     12  C   UNL     1      47.633   4.883  15.217  0.00  0.00    +0.000 A 
ATOM     13  C   UNL     1      48.426   5.736  16.000  0.00  0.00    +0.000 A 
BRANCH   8  15
ATOM     14  N   UNL     1      50.504   6.824  18.629  0.00  0.00    +0.000 NA
ATOM     15  C   UNL     1      49.842   6.133  17.976  0.00  0.00    +0.000 C 
ENDBRANCH   8  15
ENDBRANCH   2  12
ENDBRANCH   1   6
BRANCH   1  16
ATOM     16  C   UNL     1      43.417   3.457  12.785  0.00  0.00    +0.000 C 
BRANCH  16  17
ATOM     17  O   UNL     1      44.429   2.473  12.600  0.00  0.00    +0.000 OA
ATOM     18  H   UNL     1      44.829   2.309  13.470  0.00  0.00    +0.000 HD
ENDBRANCH  16  17
ENDBRANCH   1  16
BRANCH   1  19
ATOM     19  C   UNL     1      43.510   4.673  10.519  0.00  0.00    +0.000 C 
BRANCH  19  20
ATOM     20  N   UNL     1      43.960   3.371  10.008  0.00  0.00    +0.000 N 
ATOM     21  C   UNL     1      44.994   3.472   9.060  0.00  0.00    +0.000 A 
ATOM     22  C   UNL     1      45.559   2.305   8.559  0.00  0.00    +0.000 A 
ATOM     23  C   UNL     1      46.593   2.390   7.620  0.00  0.00    +0.000 A 
ATOM     24  C   UNL     1      47.040   3.646   7.216  0.00  0.00    +0.000 A 
ATOM     25  C   UNL     1      46.431   4.751   7.769  0.00  0.00    +0.000 A 
ATOM     26  N   UNL     1      45.432   4.685   8.672  0.00  0.00    +0.000 NA
ATOM     27  H   UNL     1      43.211   2.808   9.617  0.00  0.00    +0.000 HD
BRANCH  23  28
ATOM     28  C   UNL     1      47.173   1.120   7.102  0.00  0.00    +0.000 C 
ATOM     29  N   UNL     1      46.795  -0.060   7.684  0.00  0.00    +0.000 N 
ATOM     30  O   UNL     1      47.978   1.117   6.178  0.00  0.00    +0.000 OA
ATOM     31  H   UNL     1      46.144  -0.163   8.444  0.00  0.00    +0.000 HD
ATOM     32  H   UNL     1      47.212  -0.901   7.303  0.00  0.00    +0.000 HD
ENDBRANCH  23  28
ENDBRANCH  19  20
ENDBRANCH   1  19
TORSDOF 8
ENDMDL
MODEL 3
REMARK VINA RESULT:    -7.874      1.637      2.101
REMARK INTER + INTRA:         -12.194
REMARK INTER:                 -10.961
REMARK INTRA:                  -1.233
REMARK UNBOUND:                -0.869
REMARK  Name = 
REMARK  8 active torsions:
REMARK  status: ('A' for Active; 'I' for Inactive)
REMARK    1  A    between atoms: C_2  and  C_3
REMARK    2  A    between atoms: C_7  and  C_8
REMARK    3  A    between atoms: C_12  and  C_13
REMARK    4  A    between atoms: C_13  and  C_14
REMARK    5  A    between atoms: C_13  and  C_16
REMARK    6  A    between atoms: C_14  and  O_15
REMARK    7  A    between atoms: C_16  and  N_17
REMARK    8  A    between atoms: C_20  and  C_21
REMARK                            x       y       z     vdW  Elec       q    Type
REMARK                         _______ _______ _______ _____ _____    ______ ____
ROOT
ATOM      1  C   UNL     1      44.318   5.271  12.046  0.00  0.00    +0.000 C 
ENDROOT
BRANCH   1   6
ATOM      2  C   UNL     1      46.966   8.070  12.121  0.00  0.00    +0.000 A 
ATOM      3  C   UNL     1      46.170   9.177  11.782  0.00  0.00    +0.000 A 
ATOM      4  C   UNL     1      44.796   9.048  11.578  0.00  0.00    +0.000 A 
ATOM      5  C   UNL     1      44.185   7.805  11.707  0.00  0.00    +0.000 A 
ATOM      6  C   UNL     1      44.943   6.666  12.006  0.00  0.00    +0.000 A 
ATOM      7  C   UNL     1      46.323   6.819  12.228  0.00  0.00    +0.000 A 
BRANCH   2  12
ATOM      8  C   UNL     1      50.729   7.937  11.585  0.00  0.00    +0.000 A 
ATOM      9  C   UNL     1      51.144   8.429  12.810  0.00  0.00    +0.000 A 
ATOM     10  N   UNL     1      50.293   8.814  13.786  0.00  0.00    +0.000 NA
ATOM     11  C   UNL     1      48.967   8.698  13.520  0.00  0.00    +0.000 A 
ATOM     12  C   UNL     1      48.424   8.202  12.330  0.00  0.00    +0.000 A 
ATOM     13  C   UNL     1      49.355   7.823  11.350  0.00  0.00    +0.000 A 
BRANCH   8  15
ATOM     14  N   UNL     1      52.459   7.247   9.790  0.00  0.00    +0.000 NA
ATOM     15  C   UNL     1      51.684   7.552  10.595  0.00  0.00    +0.000 C 
ENDBRANCH   8  15
ENDBRANCH   2  12
ENDBRANCH   1   6
BRANCH   1  16
ATOM     16  C   UNL     1      45.316   4.235  12.603  0.00  0.00    +0.000 C 
BRANCH  16  17
ATOM     17  O   UNL     1      44.847   2.893  12.524  0.00  0.00    +0.000 OA
ATOM     18  H   UNL     1      45.458   2.412  11.941  0.00  0.00    +0.000 HD
ENDBRANCH  16  17
ENDBRANCH   1  16
BRANCH   1  19
ATOM     19  C   UNL     1      43.726   4.868  10.682  0.00  0.00    +0.000 C 
BRANCH  19  20
ATOM     20  N   UNL     1      44.698   5.054   9.595  0.00  0.00    +0.000 N 
ATOM     21  C   UNL     1      45.147   3.844   9.036  0.00  0.00    +0.000 A 
ATOM     22  C   UNL     1      46.010   3.889   7.948  0.00  0.00    +0.000 A 
ATOM     23  C   UNL     1      46.461   2.693   7.378  0.00  0.00    +0.000 A 
ATOM     24  C   UNL     1      46.025   1.482   7.910  0.00  0.00    +0.000 A 
ATOM     25  C   UNL     1      45.163   1.528   8.985  0.00  0.00    +0.000 A 
ATOM     26  N   UNL     1      44.723   2.672   9.546  0.00  0.00    +0.000 NA
ATOM     27  H   UNL     1      45.504   5.611   9.862  0.00  0.00    +0.000 HD
BRANCH  23  28
ATOM     28  C   UNL     1      47.387   2.778   6.215  0.00  0.00    +0.000 C 
ATOM     29  N   UNL     1      48.720   2.541   6.420  0.00  0.00    +0.000 N 
ATOM     30  O   UNL     1      46.980   3.059   5.095  0.00  0.00    +0.000 OA
ATOM     31  H   UNL     1      49.151   2.305   7.298  0.00  0.00    +0.000 HD
ATOM     32  H   UNL     1      49.317   2.609   5.604  0.00  0.00    +0.000 HD
ENDBRANCH  23  28
ENDBRANCH  19  20
ENDBRANCH   1  19
TORSDOF 8
ENDMDL
MODEL 4
REMARK VINA RESULT:    -7.295      4.063      8.200
REMARK INTER + INTRA:         -11.362
REMARK INTER:                 -10.482
REMARK INTRA:                  -0.880
REMARK UNBOUND:                -0.869
REMARK  Name = 
REMARK  8 active torsions:
REMARK  status: ('A' for Active; 'I' for Inactive)
REMARK    1  A    between atoms: C_2  and  C_3
REMARK    2  A    between atoms: C_7  and  C_8
REMARK    3  A    between atoms: C_12  and  C_13
REMARK    4  A    between atoms: C_13  and  C_14
REMARK    5  A    between atoms: C_13  and  C_16
REMARK    6  A    between atoms: C_14  and  O_15
REMARK    7  A    between atoms: C_16  and  N_17
REMARK    8  A    between atoms: C_20  and  C_21
REMARK                            x       y       z     vdW  Elec       q    Type
REMARK                         _______ _______ _______ _____ _____    ______ ____
ROOT
ATOM      1  C   UNL     1      48.820   8.393  12.820  0.00  0.00    +0.000 C 
ENDROOT
BRANCH   1   6
ATOM      2  C   UNL     1      45.647   6.777  11.344  0.00  0.00    +0.000 A 
ATOM      3  C   UNL     1      44.710   7.794  11.589  0.00  0.00    +0.000 A 
ATOM      4  C   UNL     1      45.088   9.004  12.174  0.00  0.00    +0.000 A 
ATOM      5  C   UNL     1      46.415   9.223  12.529  0.00  0.00    +0.000 A 
ATOM      6  C   UNL     1      47.378   8.224  12.339  0.00  0.00    +0.000 A 
ATOM      7  C   UNL     1      46.982   7.019  11.730  0.00  0.00    +0.000 A 
BRANCH   2  12
ATOM      8  C   UNL     1      45.266   3.898   8.888  0.00  0.00    +0.000 A 
ATOM      9  C   UNL     1      44.419   3.090   9.626  0.00  0.00    +0.000 A 
ATOM     10  N   UNL     1      43.979   3.403  10.864  0.00  0.00    +0.000 NA
ATOM     11  C   UNL     1      44.407   4.582  11.383  0.00  0.00    +0.000 A 
ATOM     12  C   UNL     1      45.248   5.491  10.732  0.00  0.00    +0.000 A 
ATOM     13  C   UNL     1      45.679   5.110   9.451  0.00  0.00    +0.000 A 
BRANCH   8  15
ATOM     14  N   UNL     1      46.049   3.187   6.528  0.00  0.00    +0.000 NA
ATOM     15  C   UNL     1      45.696   3.502   7.586  0.00  0.00    +0.000 C 
ENDBRANCH   8  15
ENDBRANCH   2  12
ENDBRANCH   1   6
BRANCH   1  16
ATOM     16  C   UNL     1      49.771   7.451  12.054  0.00  0.00    +0.000 C 
BRANCH  16  17
ATOM     17  O   UNL     1      51.146   7.656  12.363  0.00  0.00    +0.000 OA
ATOM     18  H   UNL     1      51.409   6.945  12.972  0.00  0.00    +0.000 HD
ENDBRANCH  16  17
ENDBRANCH   1  16
BRANCH   1  19
ATOM     19  C   UNL     1      48.935   8.257  14.350  0.00  0.00    +0.000 C 
BRANCH  19  20
ATOM     20  N   UNL     1      48.067   7.188  14.864  0.00  0.00    +0.000 N 
ATOM     21  C   UNL     1      48.721   6.319  15.756  0.00  0.00    +0.000 A 
ATOM     22  C   UNL     1      47.986   5.312  16.370  0.00  0.00    +0.000 A 
ATOM     23  C   UNL     1      48.623   4.445  17.265  0.00  0.00    +0.000 A 
ATOM     24  C   UNL     1      49.980   4.617  17.527  0.00  0.00    +0.000 A 
ATOM     25  C   UNL     1      50.631   5.646  16.881  0.00  0.00    +0.000 A 
ATOM     26  N   UNL     1      50.032   6.487  16.014  0.00  0.00    +0.000 NA
ATOM     27  H   UNL     1      47.627   6.636  14.133  0.00  0.00    +0.000 HD
BRANCH  23  28
ATOM     28  C   UNL     1      47.806   3.376  17.903  0.00  0.00    +0.000 C 
ATOM     29  N   UNL     1      48.223   2.858  19.099  0.00  0.00    +0.000 N 
ATOM     30  O   UNL     1      46.784   2.954  17.376  0.00  0.00    +0.000 OA
ATOM     31  H   UNL     1      49.044   3.135  19.610  0.00  0.00    +0.000 HD
ATOM     32  H   UNL     1      47.641   2.132  19.500  0.00  0.00    +0.000 HD
ENDBRANCH  23  28
ENDBRANCH  19  20
ENDBRANCH   1  19
TORSDOF 8
ENDMDL
MODEL 5
REMARK VINA RESULT:    -7.031      2.125      2.813
REMARK INTER + INTRA:         -10.982
REMARK INTER:                 -10.326
REMARK INTRA:                  -0.656
REMARK UNBOUND:                -0.869
REMARK  Name = 
REMARK  8 active torsions:
REMARK  status: ('A' for Active; 'I' for Inactive)
REMARK    1  A    between atoms: C_2  and  C_3
REMARK    2  A    between atoms: C_7  and  C_8
REMARK    3  A    between atoms: C_12  and  C_13
REMARK    4  A    between atoms: C_13  and  C_14
REMARK    5  A    between atoms: C_13  and  C_16
REMARK    6  A    between atoms: C_14  and  O_15
REMARK    7  A    between atoms: C_16  and  N_17
REMARK    8  A    between atoms: C_20  and  C_21
REMARK                            x       y       z     vdW  Elec       q    Type
REMARK                         _______ _______ _______ _____ _____    ______ ____
ROOT
ATOM      1  C   UNL     1      43.411   6.263  11.016  0.00  0.00    +0.000 C 
ENDROOT
BRANCH   1   6
ATOM      2  C   UNL     1      46.413   8.340  12.255  0.00  0.00    +0.000 A 
ATOM      3  C   UNL     1      45.943   9.639  11.996  0.00  0.00    +0.000 A 
ATOM      4  C   UNL     1      44.666   9.859  11.478  0.00  0.00    +0.000 A 
ATOM      5  C   UNL     1      43.829   8.783  11.204  0.00  0.00    +0.000 A 
ATOM      6  C   UNL     1      44.267   7.469  11.410  0.00  0.00    +0.000 A 
ATOM      7  C   UNL     1      45.549   7.267  11.952  0.00  0.00    +0.000 A 
BRANCH   2  12
ATOM      8  C   UNL     1      49.269   7.286  14.533  0.00  0.00    +0.000 A 
ATOM      9  C   UNL     1      50.335   7.738  13.775  0.00  0.00    +0.000 A 
ATOM     10  N   UNL     1      50.193   8.343  12.575  0.00  0.00    +0.000 NA
ATOM     11  C   UNL     1      48.925   8.502  12.118  0.00  0.00    +0.000 A 
ATOM     12  C   UNL     1      47.768   8.103  12.797  0.00  0.00    +0.000 A 
ATOM     13  C   UNL     1      47.977   7.475  14.035  0.00  0.00    +0.000 A 
BRANCH   8  15
ATOM     14  N   UNL     1      49.666   6.135  16.815  0.00  0.00    +0.000 NA
ATOM     15  C   UNL     1      49.492   6.650  15.792  0.00  0.00    +0.000 C 
ENDBRANCH   8  15
ENDBRANCH   2  12
ENDBRANCH   1   6
BRANCH   1  16
ATOM     16  C   UNL     1      42.263   6.050  12.023  0.00  0.00    +0.000 C 
BRANCH  16  17
ATOM     17  O   UNL     1      42.706   5.640  13.312  0.00  0.00    +0.000 OA
ATOM     18  H   UNL     1      43.402   6.261  13.585  0.00  0.00    +0.000 HD
ENDBRANCH  16  17
ENDBRANCH   1  16
BRANCH   1  19
ATOM     19  C   UNL     1      44.266   5.001  10.795  0.00  0.00    +0.000 C 
BRANCH  19  20
ATOM     20  N   UNL     1      45.127   5.130   9.611  0.00  0.00    +0.000 N 
ATOM     21  C   UNL     1      45.474   3.894   9.037  0.00  0.00    +0.000 A 
ATOM     22  C   UNL     1      46.222   3.887   7.866  0.00  0.00    +0.000 A 
ATOM     23  C   UNL     1      46.570   2.665   7.280  0.00  0.00    +0.000 A 
ATOM     24  C   UNL     1      46.150   1.481   7.881  0.00  0.00    +0.000 A 
ATOM     25  C   UNL     1      45.404   1.579   9.036  0.00  0.00    +0.000 A 
ATOM     26  N   UNL     1      45.064   2.748   9.613  0.00  0.00    +0.000 NA
ATOM     27  H   UNL     1      45.975   5.662   9.782  0.00  0.00    +0.000 HD
BRANCH  23  28
ATOM     28  C   UNL     1      47.375   2.694   6.027  0.00  0.00    +0.000 C 
ATOM     29  N   UNL     1      48.723   2.468   6.108  0.00  0.00    +0.000 N 
ATOM     30  O   UNL     1      46.856   2.921   4.941  0.00  0.00    +0.000 OA
ATOM     31  H   UNL     1      49.241   2.275   6.949  0.00  0.00    +0.000 HD
ATOM     32  H   UNL     1      49.235   2.497   5.234  0.00  0.00    +0.000 HD
ENDBRANCH  23  28
ENDBRANCH  19  20
ENDBRANCH   1  19
TORSDOF 8
ENDMDL
MODEL 6
REMARK VINA RESULT:    -6.769      4.316      8.718
REMARK INTER + INTRA:         -10.605
REMARK INTER:                  -9.567
REMARK INTRA:                  -1.038
REMARK UNBOUND:                -0.869
REMARK  Name = 
REMARK  8 active torsions:
REMARK  status: ('A' for Active; 'I' for Inactive)
REMARK    1  A    between atoms: C_2  and  C_3
REMARK    2  A    between atoms: C_7  and  C_8
REMARK    3  A    between atoms: C_12  and  C_13
REMARK    4  A    between atoms: C_13  and  C_14
REMARK    5  A    between atoms: C_13  and  C_16
REMARK    6  A    between atoms: C_14  and  O_15
REMARK    7  A    between atoms: C_16  and  N_17
REMARK    8  A    between atoms: C_20  and  C_21
REMARK                            x       y       z     vdW  Elec       q    Type
REMARK                         _______ _______ _______ _____ _____    ______ ____
ROOT
ATOM      1  C   UNL     1      49.033   8.288  12.900  0.00  0.00    +0.000 C 
ENDROOT
BRANCH   1   6
ATOM      2  C   UNL     1      45.582   6.790  12.062  0.00  0.00    +0.000 A 
ATOM      3  C   UNL     1      44.844   7.965  11.848  0.00  0.00    +0.000 A 
ATOM      4  C   UNL     1      45.444   9.223  11.920  0.00  0.00    +0.000 A 
ATOM      5  C   UNL     1      46.800   9.334  12.211  0.00  0.00    +0.000 A 
ATOM      6  C   UNL     1      47.568   8.192  12.470  0.00  0.00    +0.000 A 
ATOM      7  C   UNL     1      46.951   6.933  12.373  0.00  0.00    +0.000 A 
BRANCH   2  12
ATOM      8  C   UNL     1      44.465   3.369  10.834  0.00  0.00    +0.000 A 
ATOM      9  C   UNL     1      43.685   2.990  11.912  0.00  0.00    +0.000 A 
ATOM     10  N   UNL     1      43.511   3.756  13.012  0.00  0.00    +0.000 NA
ATOM     11  C   UNL     1      44.147   4.955  13.027  0.00  0.00    +0.000 A 
ATOM     12  C   UNL     1      44.947   5.456  11.994  0.00  0.00    +0.000 A 
ATOM     13  C   UNL     1      45.097   4.615  10.880  0.00  0.00    +0.000 A 
BRANCH   8  15
ATOM     14  N   UNL     1      44.721   1.803   8.790  0.00  0.00    +0.000 NA
ATOM     15  C   UNL     1      44.609   2.507   9.704  0.00  0.00    +0.000 C 
ENDBRANCH   8  15
ENDBRANCH   2  12
ENDBRANCH   1   6
BRANCH   1  16
ATOM     16  C   UNL     1      49.955   8.483  11.678  0.00  0.00    +0.000 C 
BRANCH  16  17
ATOM     17  O   UNL     1      50.770   7.350  11.396  0.00  0.00    +0.000 OA
ATOM     18  H   UNL     1      50.193   6.569  11.426  0.00  0.00    +0.000 HD
ENDBRANCH  16  17
ENDBRANCH   1  16
BRANCH   1  19
ATOM     19  C   UNL     1      49.449   7.101  13.790  0.00  0.00    +0.000 C 
BRANCH  19  20
ATOM     20  N   UNL     1      49.418   7.458  15.215  0.00  0.00    +0.000 N 
ATOM     21  C   UNL     1      48.776   6.495  16.016  0.00  0.00    +0.000 A 
ATOM     22  C   UNL     1      48.750   6.680  17.393  0.00  0.00    +0.000 A 
ATOM     23  C   UNL     1      48.121   5.728  18.202  0.00  0.00    +0.000 A 
ATOM     24  C   UNL     1      47.542   4.610  17.608  0.00  0.00    +0.000 A 
ATOM     25  C   UNL     1      47.620   4.500  16.237  0.00  0.00    +0.000 A 
ATOM     26  N   UNL     1      48.220   5.410  15.444  0.00  0.00    +0.000 NA
ATOM     27  H   UNL     1      49.002   8.366  15.397  0.00  0.00    +0.000 HD
BRANCH  23  28
ATOM     28  C   UNL     1      48.108   5.960  19.673  0.00  0.00    +0.000 C 
ATOM     29  N   UNL     1      47.003   5.582  20.387  0.00  0.00    +0.000 N 
ATOM     30  O   UNL     1      49.057   6.482  20.245  0.00  0.00    +0.000 OA
ATOM     31  H   UNL     1      46.176   5.149  20.013  0.00  0.00    +0.000 HD
ATOM     32  H   UNL     1      47.033   5.757  21.385  0.00  0.00    +0.000 HD
ENDBRANCH  23  28
ENDBRANCH  19  20
ENDBRANCH   1  19
TORSDOF 8
ENDMDL
MODEL 7
REMARK VINA RESULT:    -6.651      3.503      5.743
REMARK INTER + INTRA:         -10.436
REMARK INTER:                  -9.393
REMARK INTRA:                  -1.043
REMARK UNBOUND:                -0.869
REMARK  Name = 
REMARK  8 active torsions:
REMARK  status: ('A' for Active; 'I' for Inactive)
REMARK    1  A    between atoms: C_2  and  C_3
REMARK    2  A    between atoms: C_7  and  C_8
REMARK    3  A    between atoms: C_12  and  C_13
REMARK    4  A    between atoms: C_13  and  C_14
REMARK    5  A    between atoms: C_13  and  C_16
REMARK    6  A    between atoms: C_14  and  O_15
REMARK    7  A    between atoms: C_16  and  N_17
REMARK    8  A    between atoms: C_20  and  C_21
REMARK                            x       y       z     vdW  Elec       q    Type
REMARK                         _______ _______ _______ _____ _____    ______ ____
ROOT
ATOM      1  C   UNL     1      46.347   9.404  11.921  0.00  0.00    +0.000 C 
ENDROOT
BRANCH   1   6
ATOM      2  C   UNL     1      49.232   8.024  14.073  0.00  0.00    +0.000 A 
ATOM      3  C   UNL     1      50.321   8.693  13.491  0.00  0.00    +0.000 A 
ATOM      4  C   UNL     1      50.140   9.612  12.457  0.00  0.00    +0.000 A 
ATOM      5  C   UNL     1      48.862   9.881  11.978  0.00  0.00    +0.000 A 
ATOM      6  C   UNL     1      47.749   9.211  12.501  0.00  0.00    +0.000 A 
ATOM      7  C   UNL     1      47.949   8.303  13.556  0.00  0.00    +0.000 A 
BRANCH   2  12
ATOM      8  C   UNL     1      48.614   5.237  16.586  0.00  0.00    +0.000 A 
ATOM      9  C   UNL     1      49.826   5.269  17.254  0.00  0.00    +0.000 A 
ATOM     10  N   UNL     1      50.830   6.116  16.937  0.00  0.00    +0.000 NA
ATOM     11  C   UNL     1      50.606   6.969  15.905  0.00  0.00    +0.000 A 
ATOM     12  C   UNL     1      49.421   7.044  15.164  0.00  0.00    +0.000 A 
ATOM     13  C   UNL     1      48.415   6.137  15.534  0.00  0.00    +0.000 A 
BRANCH   8  15
ATOM     14  N   UNL     1      46.774   3.557  17.278  0.00  0.00    +0.000 NA
ATOM     15  C   UNL     1      47.597   4.312  16.971  0.00  0.00    +0.000 C 
ENDBRANCH   8  15
ENDBRANCH   2  12
ENDBRANCH   1   6
BRANCH   1  16
ATOM     16  C   UNL     1      45.993  10.902  11.822  0.00  0.00    +0.000 C 
BRANCH  16  17
ATOM     17  O   UNL     1      44.638  11.189  12.156  0.00  0.00    +0.000 OA
ATOM     18  H   UNL     1      44.202  11.489  11.340  0.00  0.00    +0.000 HD
ENDBRANCH  16  17
ENDBRANCH   1  16
BRANCH   1  19
ATOM     19  C   UNL     1      45.292   8.581  12.685  0.00  0.00    +0.000 C 
BRANCH  19  20
ATOM     20  N   UNL     1      44.613   7.621  11.803  0.00  0.00    +0.000 N 
ATOM     21  C   UNL     1      44.915   6.280  12.101  0.00  0.00    +0.000 A 
ATOM     22  C   UNL     1      44.275   5.275  11.387  0.00  0.00    +0.000 A 
ATOM     23  C   UNL     1      44.561   3.936  11.677  0.00  0.00    +0.000 A 
ATOM     24  C   UNL     1      45.477   3.642  12.684  0.00  0.00    +0.000 A 
ATOM     25  C   UNL     1      46.060   4.699  13.349  0.00  0.00    +0.000 A 
ATOM     26  N   UNL     1      45.797   5.993  13.078  0.00  0.00    +0.000 NA
ATOM     27  H   UNL     1      44.786   7.784  10.816  0.00  0.00    +0.000 HD
BRANCH  23  28
ATOM     28  C   UNL     1      43.859   2.885  10.891  0.00  0.00    +0.000 C 
ATOM     29  N   UNL     1      44.274   2.636   9.610  0.00  0.00    +0.000 N 
ATOM     30  O   UNL     1      42.923   2.252  11.364  0.00  0.00    +0.000 OA
ATOM     31  H   UNL     1      45.029   3.100   9.132  0.00  0.00    +0.000 HD
ATOM     32  H   UNL     1      43.771   1.914   9.108  0.00  0.00    +0.000 HD
ENDBRANCH  23  28
ENDBRANCH  19  20
ENDBRANCH   1  19
TORSDOF 8
ENDMDL
MODEL 8
REMARK VINA RESULT:    -5.982      4.434      6.221
REMARK INTER + INTRA:          -9.473
REMARK INTER:                  -8.514
REMARK INTRA:                  -0.959
REMARK UNBOUND:                -0.869
REMARK  Name = 
REMARK  8 active torsions:
REMARK  status: ('A' for Active; 'I' for Inactive)
REMARK    1  A    between atoms: C_2  and  C_3
REMARK    2  A    between atoms: C_7  and  C_8
REMARK    3  A    between atoms: C_12  and  C_13
REMARK    4  A    between atoms: C_13  and  C_14
REMARK    5  A    between atoms: C_13  and  C_16
REMARK    6  A    between atoms: C_14  and  O_15
REMARK    7  A    between atoms: C_16  and  N_17
REMARK    8  A    between atoms: C_20  and  C_21
REMARK                            x       y       z     vdW  Elec       q    Type
REMARK                         _______ _______ _______ _____ _____    ______ ____
ROOT
ATOM      1  C   UNL     1      47.766   8.607  13.193  0.00  0.00    +0.000 C 
ENDROOT
BRANCH   1   6
ATOM      2  C   UNL     1      48.964   6.779  16.368  0.00  0.00    +0.000 A 
ATOM      3  C   UNL     1      49.259   7.878  17.193  0.00  0.00    +0.000 A 
ATOM      4  C   UNL     1      49.036   9.187  16.766  0.00  0.00    +0.000 A 
ATOM      5  C   UNL     1      48.513   9.429  15.500  0.00  0.00    +0.000 A 
ATOM      6  C   UNL     1      48.238   8.368  14.628  0.00  0.00    +0.000 A 
ATOM      7  C   UNL     1      48.451   7.054  15.084  0.00  0.00    +0.000 A 
BRANCH   2  12
ATOM      8  C   UNL     1      50.670   3.640  17.668  0.00  0.00    +0.000 A 
ATOM      9  C   UNL     1      49.606   2.760  17.587  0.00  0.00    +0.000 A 
ATOM     10  N   UNL     1      48.375   3.116  17.158  0.00  0.00    +0.000 NA
ATOM     11  C   UNL     1      48.208   4.412  16.793  0.00  0.00    +0.000 A 
ATOM     12  C   UNL     1      49.207   5.391  16.815  0.00  0.00    +0.000 A 
ATOM     13  C   UNL     1      50.464   4.965  17.275  0.00  0.00    +0.000 A 
BRANCH   8  15
ATOM     14  N   UNL     1      52.979   2.842  18.520  0.00  0.00    +0.000 NA
ATOM     15  C   UNL     1      51.944   3.196  18.136  0.00  0.00    +0.000 C 
ENDBRANCH   8  15
ENDBRANCH   2  12
ENDBRANCH   1   6
BRANCH   1  16
ATOM     16  C   UNL     1      48.186  10.007  12.700  0.00  0.00    +0.000 C 
BRANCH  16  17
ATOM     17  O   UNL     1      49.423  10.014  11.994  0.00  0.00    +0.000 OA
ATOM     18  H   UNL     1      49.223   9.795  11.069  0.00  0.00    +0.000 HD
ENDBRANCH  16  17
ENDBRANCH   1  16
BRANCH   1  19
ATOM     19  C   UNL     1      46.258   8.335  13.032  0.00  0.00    +0.000 C 
BRANCH  19  20
ATOM     20  N   UNL     1      45.962   7.676  11.752  0.00  0.00    +0.000 N 
ATOM     21  C   UNL     1      45.633   6.315  11.889  0.00  0.00    +0.000 A 
ATOM     22  C   UNL     1      45.256   5.600  10.758  0.00  0.00    +0.000 A 
ATOM     23  C   UNL     1      44.921   4.248  10.881  0.00  0.00    +0.000 A 
ATOM     24  C   UNL     1      44.962   3.650  12.138  0.00  0.00    +0.000 A 
ATOM     25  C   UNL     1      45.337   4.434  13.208  0.00  0.00    +0.000 A 
ATOM     26  N   UNL     1      45.667   5.736  13.105  0.00  0.00    +0.000 NA
ATOM     27  H   UNL     1      46.706   7.765  11.067  0.00  0.00    +0.000 HD
BRANCH  23  28
ATOM     28  C   UNL     1      44.525   3.511   9.648  0.00  0.00    +0.000 C 
ATOM     29  N   UNL     1      44.472   2.144   9.690  0.00  0.00    +0.000 N 
ATOM     30  O   UNL     1      44.257   4.103   8.610  0.00  0.00    +0.000 OA
ATOM     31  H   UNL     1      44.673   1.568  10.490  0.00  0.00    +0.000 HD
ATOM     32  H   UNL     1      44.200   1.680   8.831  0.00  0.00    +0.000 HD
ENDBRANCH  23  28
ENDBRANCH  19  20
ENDBRANCH   1  19
TORSDOF 8
ENDMDL
MODEL 9
REMARK VINA RESULT:    -5.875      5.006      6.254
REMARK INTER + INTRA:          -9.319
REMARK INTER:                  -8.519
REMARK INTRA:                  -0.800
REMARK UNBOUND:                -0.869
REMARK  Name = 
REMARK  8 active torsions:
REMARK  status: ('A' for Active; 'I' for Inactive)
REMARK    1  A    between atoms: C_2  and  C_3
REMARK    2  A    between atoms: C_7  and  C_8
REMARK    3  A    between atoms: C_12  and  C_13
REMARK    4  A    between atoms: C_13  and  C_14
REMARK    5  A    between atoms: C_13  and  C_16
REMARK    6  A    between atoms: C_14  and  O_15
REMARK    7  A    between atoms: C_16  and  N_17
REMARK    8  A    between atoms: C_20  and  C_21
REMARK                            x       y       z     vdW  Elec       q    Type
REMARK                         _______ _______ _______ _____ _____    ______ ____
ROOT
ATOM      1  C   UNL     1      47.974   6.989  13.979  0.00  0.00    +0.000 C 
ENDROOT
BRANCH   1   6
ATOM      2  C   UNL     1      49.326   5.185  17.105  0.00  0.00    +0.000 A 
ATOM      3  C   UNL     1      48.457   4.083  17.154  0.00  0.00    +0.000 A 
ATOM      4  C   UNL     1      47.480   3.884  16.178  0.00  0.00    +0.000 A 
ATOM      5  C   UNL     1      47.348   4.788  15.128  0.00  0.00    +0.000 A 
ATOM      6  C   UNL     1      48.167   5.922  15.058  0.00  0.00    +0.000 A 
ATOM      7  C   UNL     1      49.159   6.094  16.040  0.00  0.00    +0.000 A 
BRANCH   2  12
ATOM      8  C   UNL     1      52.236   4.634  19.490  0.00  0.00    +0.000 A 
ATOM      9  C   UNL     1      52.229   5.859  20.134  0.00  0.00    +0.000 A 
ATOM     10  N   UNL     1      51.362   6.852  19.838  0.00  0.00    +0.000 NA
ATOM     11  C   UNL     1      50.461   6.602  18.854  0.00  0.00    +0.000 A 
ATOM     12  C   UNL     1      50.357   5.402  18.143  0.00  0.00    +0.000 A 
ATOM     13  C   UNL     1      51.287   4.409  18.488  0.00  0.00    +0.000 A 
BRANCH   8  15
ATOM     14  N   UNL     1      53.952   2.814  20.149  0.00  0.00    +0.000 NA
ATOM     15  C   UNL     1      53.185   3.630  19.851  0.00  0.00    +0.000 C 
ENDBRANCH   8  15
ENDBRANCH   2  12
ENDBRANCH   1   6
BRANCH   1  16
ATOM     16  C   UNL     1      48.272   8.396  14.535  0.00  0.00    +0.000 C 
BRANCH  16  17
ATOM     17  O   UNL     1      47.102   9.137  14.866  0.00  0.00    +0.000 OA
ATOM     18  H   UNL     1      47.307   9.650  15.666  0.00  0.00    +0.000 HD
ENDBRANCH  16  17
ENDBRANCH   1  16
BRANCH   1  19
ATOM     19  C   UNL     1      46.590   6.884  13.309  0.00  0.00    +0.000 C 
BRANCH  19  20
ATOM     20  N   UNL     1      46.658   6.143  12.041  0.00  0.00    +0.000 N 
ATOM     21  C   UNL     1      45.609   5.221  11.877  0.00  0.00    +0.000 A 
ATOM     22  C   UNL     1      45.519   4.514  10.684  0.00  0.00    +0.000 A 
ATOM     23  C   UNL     1      44.478   3.598  10.505  0.00  0.00    +0.000 A 
ATOM     24  C   UNL     1      43.546   3.422  11.525  0.00  0.00    +0.000 A 
ATOM     25  C   UNL     1      43.704   4.169  12.673  0.00  0.00    +0.000 A 
ATOM     26  N   UNL     1      44.705   5.053  12.861  0.00  0.00    +0.000 NA
ATOM     27  H   UNL     1      47.542   5.663  11.899  0.00  0.00    +0.000 HD
BRANCH  23  28
ATOM     28  C   UNL     1      44.413   2.855   9.216  0.00  0.00    +0.000 C 
ATOM     29  N   UNL     1      44.203   3.561   8.062  0.00  0.00    +0.000 N 
ATOM     30  O   UNL     1      44.537   1.637   9.174  0.00  0.00    +0.000 OA
ATOM     31  H   UNL     1      44.089   4.558   7.990  0.00  0.00    +0.000 HD
ATOM     32  H   UNL     1      44.165   3.020   7.206  0.00  0.00    +0.000 HD
ENDBRANCH  23  28
ENDBRANCH  19  20
ENDBRANCH   1  19
TORSDOF 8
ENDMDL
