MODEL 1
REMARK VINA RESULT:    -8.267      0.000      0.000
REMARK INTER + INTRA:         -10.783
REMARK INTER:                 -10.200
REMARK INTRA:                  -0.582
REMARK UNBOUND:                -0.582
REMARK  Name = 
REMARK  6 active torsions:
REMARK  status: ('A' for Active; 'I' for Inactive)
REMARK    1  A    between atoms: C_1  and  C_2
REMARK    2  A    between atoms: C_5  and  C_6
REMARK    3  A    between atoms: C_6  and  C_7
REMARK    4  A    between atoms: C_6  and  N_8
REMARK    5  A    between atoms: N_8  and  C_9
REMARK    6  A    between atoms: C_12  and  C_13
REMARK                            x       y       z     vdW  Elec       q    Type
REMARK                         _______ _______ _______ _____ _____    ______ ____
ROOT
ATOM      1  N   UNL     1      43.734   4.805   9.817  0.00  0.00    +0.000 N 
ATOM      2  H   UNL     1      43.874   5.761   9.490  0.00  0.00    +0.000 HD
ENDROOT
BRANCH   1   3
ATOM      3  C   UNL     1      44.549   3.903   9.118  0.00  0.00    +0.000 A 
ATOM      4  C   UNL     1      45.533   4.285   8.205  0.00  0.00    +0.000 A 
ATOM      5  C   UNL     1      46.369   3.340   7.608  0.00  0.00    +0.000 A 
ATOM      6  C   UNL     1      46.210   2.008   7.950  0.00  0.00    +0.000 A 
ATOM      7  N   UNL     1      45.292   1.571   8.851  0.00  0.00    +0.000 NA
ATOM      8  C   UNL     1      44.512   2.532   9.417  0.00  0.00    +0.000 A 
BRANCH   6   9
ATOM      9  C   UNL     1      47.088   0.976   7.309  0.00  0.00    +0.000 C 
ATOM     10  N   UNL     1      46.819  -0.322   7.644  0.00  0.00    +0.000 N 
ATOM     11  O   UNL     1      47.988   1.266   6.530  0.00  0.00    +0.000 OA
ATOM     12  H   UNL     1      46.066  -0.526   8.291  0.00  0.00    +0.000 HD
ATOM     13  H   UNL     1      47.375  -1.065   7.247  0.00  0.00    +0.000 HD
ENDBRANCH   6   9
ENDBRANCH   1   3
BRANCH   1  14
ATOM     14  C   UNL     1      43.625   4.739  11.283  0.00  0.00    +0.000 C 
ATOM     15  C   UNL     1      42.450   5.580  11.794  0.00  0.00    +0.000 C 
BRANCH  14  20
ATOM     16  C   UNL     1      48.282   6.686  14.096  0.00  0.00    +0.000 C 
ATOM     17  C   UNL     1      47.131   6.175  13.281  0.00  0.00    +0.000 A 
ATOM     18  C   UNL     1      46.766   6.787  12.088  0.00  0.00    +0.000 A 
ATOM     19  C   UNL     1      45.652   6.308  11.398  0.00  0.00    +0.000 A 
ATOM     20  C   UNL     1      44.913   5.240  11.916  0.00  0.00    +0.000 A 
ATOM     21  C   UNL     1      45.375   4.677  13.101  0.00  0.00    +0.000 A 
ATOM     22  N   UNL     1      46.456   5.117  13.787  0.00  0.00    +0.000 NA
ENDBRANCH  14  20
ENDBRANCH   1  14
TORSDOF 4
ENDMDL
MODEL 2
REMARK VINA RESULT:    -8.076      1.304      1.776
REMARK INTER + INTRA:         -10.546
REMARK INTER:                  -9.885
REMARK INTRA:                  -0.661
REMARK UNBOUND:                -0.582
REMARK  Name = 
REMARK  6 active torsions:
REMARK  status: ('A' for Active; 'I' for Inactive)
REMARK    1  A    between atoms: C_1  and  C_2
REMARK    2  A    between atoms: C_5  and  C_6
REMARK    3  A    between atoms: C_6  and  C_7
REMARK    4  A    between atoms: C_6  and  N_8
REMARK    5  A    between atoms: N_8  and  C_9
REMARK    6  A    between atoms: C_12  and  C_13
REMARK                            x       y       z     vdW  Elec       q    Type
REMARK                         _______ _______ _______ _____ _____    ______ ____
ROOT
ATOM      1  N   UNL     1      43.774   4.848   9.896  0.00  0.00    +0.000 N 
ATOM      2  H   UNL     1      43.855   5.822   9.603  0.00  0.00    +0.000 HD
ENDROOT
BRANCH   1   3
ATOM      3  C   UNL     1      44.703   4.037   9.229  0.00  0.00    +0.000 A 
ATOM      4  C   UNL     1      44.742   2.645   9.333  0.00  0.00    +0.000 A 
ATOM      5  C   UNL     1      45.638   1.891   8.573  0.00  0.00    +0.000 A 
ATOM      6  C   UNL     1      46.484   2.552   7.700  0.00  0.00    +0.000 A 
ATOM      7  N   UNL     1      46.479   3.900   7.528  0.00  0.00    +0.000 NA
ATOM      8  C   UNL     1      45.578   4.590   8.280  0.00  0.00    +0.000 A 
BRANCH   6   9
ATOM      9  C   UNL     1      47.463   1.761   6.886  0.00  0.00    +0.000 C 
ATOM     10  N   UNL     1      48.538   2.458   6.411  0.00  0.00    +0.000 N 
ATOM     11  O   UNL     1      47.319   0.565   6.659  0.00  0.00    +0.000 OA
ATOM     12  H   UNL     1      48.626   3.446   6.617  0.00  0.00    +0.000 HD
ATOM     13  H   UNL     1      49.234   1.982   5.854  0.00  0.00    +0.000 HD
ENDBRANCH   6   9
ENDBRANCH   1   3
BRANCH   1  14
ATOM     14  C   UNL     1      43.580   4.729  11.350  0.00  0.00    +0.000 C 
ATOM     15  C   UNL     1      42.360   5.531  11.818  0.00  0.00    +0.000 C 
BRANCH  14  20
ATOM     16  C   UNL     1      48.443   6.793  13.692  0.00  0.00    +0.000 C 
ATOM     17  C   UNL     1      47.153   6.225  13.178  0.00  0.00    +0.000 A 
ATOM     18  C   UNL     1      46.792   4.909  13.439  0.00  0.00    +0.000 A 
ATOM     19  C   UNL     1      45.609   4.412  12.889  0.00  0.00    +0.000 A 
ATOM     20  C   UNL     1      44.818   5.231  12.076  0.00  0.00    +0.000 A 
ATOM     21  C   UNL     1      45.251   6.541  11.898  0.00  0.00    +0.000 A 
ATOM     22  N   UNL     1      46.388   7.049  12.425  0.00  0.00    +0.000 NA
ENDBRANCH  14  20
ENDBRANCH   1  14
TORSDOF 4
ENDMDL
MODEL 3
REMARK VINA RESULT:    -7.101      2.374      6.018
REMARK INTER + INTRA:          -9.344
REMARK INTER:                  -9.436
REMARK INTRA:                   0.093
REMARK UNBOUND:                -0.582
REMARK  Name = 
REMARK  6 active torsions:
REMARK  status: ('A' for Active; 'I' for Inactive)
REMARK    1  A    between atoms: C_1  and  C_2
REMARK    2  A    between atoms: C_5  and  C_6
REMARK    3  A    between atoms: C_6  and  C_7
REMARK    4  A    between atoms: C_6  and  N_8
REMARK    5  A    between atoms: N_8  and  C_9
REMARK    6  A    between atoms: C_12  and  C_13
REMARK                            x       y       z     vdW  Elec       q    Type
REMARK                         _______ _______ _______ _____ _____    ______ ____
ROOT
ATOM      1  N   UNL     1      44.079   5.289  10.655  0.00  0.00    +0.000 N 
ATOM      2  H   UNL     1      43.269   5.845  10.930  0.00  0.00    +0.000 HD
ENDROOT
BRANCH   1   3
ATOM      3  C   UNL     1      45.168   5.518  11.508  0.00  0.00    +0.000 A 
ATOM      4  C   UNL     1      46.281   6.288  11.165  0.00  0.00    +0.000 A 
ATOM      5  C   UNL     1      47.291   6.549  12.092  0.00  0.00    +0.000 A 
ATOM      6  C   UNL     1      47.162   6.035  13.371  0.00  0.00    +0.000 A 
ATOM      7  N   UNL     1      46.092   5.303  13.780  0.00  0.00    +0.000 NA
ATOM      8  C   UNL     1      45.128   5.090  12.844  0.00  0.00    +0.000 A 
BRANCH   6   9
ATOM      9  C   UNL     1      48.243   6.292  14.378  0.00  0.00    +0.000 C 
ATOM     10  N   UNL     1      47.911   6.042  15.680  0.00  0.00    +0.000 N 
ATOM     11  O   UNL     1      49.356   6.695  14.063  0.00  0.00    +0.000 OA
ATOM     12  H   UNL     1      46.981   5.708  15.905  0.00  0.00    +0.000 HD
ATOM     13  H   UNL     1      48.595   6.195  16.407  0.00  0.00    +0.000 HD
ENDBRANCH   6   9
ENDBRANCH   1   3
BRANCH   1  14
ATOM     14  C   UNL     1      43.697   3.920  10.274  0.00  0.00    +0.000 C 
ATOM     15  C   UNL     1      43.657   2.991  11.493  0.00  0.00    +0.000 C 
BRANCH  14  20
ATOM     16  C   UNL     1      47.711   1.656   6.787  0.00  0.00    +0.000 C 
ATOM     17  C   UNL     1      46.623   2.282   7.609  0.00  0.00    +0.000 A 
ATOM     18  C   UNL     1      46.315   3.631   7.485  0.00  0.00    +0.000 A 
ATOM     19  C   UNL     1      45.334   4.177   8.314  0.00  0.00    +0.000 A 
ATOM     20  C   UNL     1      44.691   3.373   9.261  0.00  0.00    +0.000 A 
ATOM     21  C   UNL     1      45.050   2.030   9.288  0.00  0.00    +0.000 A 
ATOM     22  N   UNL     1      45.991   1.474   8.491  0.00  0.00    +0.000 NA
ENDBRANCH  14  20
ENDBRANCH   1  14
TORSDOF 4
ENDMDL
MODEL 4
REMARK VINA RESULT:    -6.710      3.314      6.687
REMARK INTER + INTRA:          -8.862
REMARK INTER:                  -8.378
REMARK INTRA:                  -0.484
REMARK UNBOUND:                -0.582
REMARK  Name = 
REMARK  6 active torsions:
REMARK  status: ('A' for Active; 'I' for Inactive)
REMARK    1  A    between atoms: C_1  and  C_2
REMARK    2  A    between atoms: C_5  and  C_6
REMARK    3  A    between atoms: C_6  and  C_7
REMARK    4  A    between atoms: C_6  and  N_8
REMARK    5  A    between atoms: N_8  and  C_9
REMARK    6  A    between atoms: C_12  and  C_13
REMARK                            x       y       z     vdW  Elec       q    Type
REMARK                         _______ _______ _______ _____ _____    ______ ____
ROOT
ATOM      1  N   UNL     1      45.144   4.360  11.985  0.00  0.00    +0.000 N 
ATOM      2  H   UNL     1      45.984   3.783  12.037  0.00  0.00    +0.000 HD
ENDROOT
BRANCH   1   3
ATOM      3  C   UNL     1      45.454   5.722  12.097  0.00  0.00    +0.000 A 
ATOM      4  C   UNL     1      46.722   6.212  12.417  0.00  0.00    +0.000 A 
ATOM      5  C   UNL     1      46.985   7.583  12.427  0.00  0.00    +0.000 A 
ATOM      6  C   UNL     1      45.960   8.454  12.100  0.00  0.00    +0.000 A 
ATOM      7  N   UNL     1      44.712   8.045  11.751  0.00  0.00    +0.000 NA
ATOM      8  C   UNL     1      44.511   6.699  11.742  0.00  0.00    +0.000 A 
BRANCH   6   9
ATOM      9  C   UNL     1      46.217   9.930  12.120  0.00  0.00    +0.000 C 
ATOM     10  N   UNL     1      45.108  10.724  12.202  0.00  0.00    +0.000 N 
ATOM     11  O   UNL     1      47.346  10.405  12.070  0.00  0.00    +0.000 OA
ATOM     12  H   UNL     1      44.189  10.299  12.242  0.00  0.00    +0.000 HD
ATOM     13  H   UNL     1      45.213  11.728  12.218  0.00  0.00    +0.000 HD
ENDBRANCH   6   9
ENDBRANCH   1   3
BRANCH   1  14
ATOM     14  C   UNL     1      44.217   3.883  10.946  0.00  0.00    +0.000 C 
ATOM     15  C   UNL     1      43.426   2.659  11.423  0.00  0.00    +0.000 C 
BRANCH  14  20
ATOM     16  C   UNL     1      46.860   2.760   5.932  0.00  0.00    +0.000 C 
ATOM     17  C   UNL     1      46.245   2.993   7.280  0.00  0.00    +0.000 A 
ATOM     18  C   UNL     1      45.908   1.931   8.111  0.00  0.00    +0.000 A 
ATOM     19  C   UNL     1      45.285   2.200   9.330  0.00  0.00    +0.000 A 
ATOM     20  C   UNL     1      44.994   3.520   9.692  0.00  0.00    +0.000 A 
ATOM     21  C   UNL     1      45.396   4.513   8.805  0.00  0.00    +0.000 A 
ATOM     22  N   UNL     1      46.008   4.281   7.621  0.00  0.00    +0.000 NA
ENDBRANCH  14  20
ENDBRANCH   1  14
TORSDOF 4
ENDMDL
MODEL 5
REMARK VINA RESULT:    -6.591      3.149      6.563
REMARK INTER + INTRA:          -8.715
REMARK INTER:                  -8.140
REMARK INTRA:                  -0.575
REMARK UNBOUND:                -0.582
REMARK  Name = 
REMARK  6 active torsions:
REMARK  status: ('A' for Active; 'I' for Inactive)
REMARK    1  A    between atoms: C_1  and  C_2
REMARK    2  A    between atoms: C_5  and  C_6
REMARK    3  A    between atoms: C_6  and  C_7
REMARK    4  A    between atoms: C_6  and  N_8
REMARK    5  A    between atoms: N_8  and  C_9
REMARK    6  A    between atoms: C_12  and  C_13
REMARK                            x       y       z     vdW  Elec       q    Type
REMARK                         _______ _______ _______ _____ _____    ______ ____
ROOT
ATOM      1  N   UNL     1      44.826   4.783  12.781  0.00  0.00    +0.000 N 
ATOM      2  H   UNL     1      44.894   3.765  12.776  0.00  0.00    +0.000 HD
ENDROOT
BRANCH   1   3
ATOM      3  C   UNL     1      46.007   5.370  13.259  0.00  0.00    +0.000 A 
ATOM      4  C   UNL     1      46.416   6.668  12.946  0.00  0.00    +0.000 A 
ATOM      5  C   UNL     1      47.559   7.222  13.525  0.00  0.00    +0.000 A 
ATOM      6  C   UNL     1      48.277   6.459  14.431  0.00  0.00    +0.000 A 
ATOM      7  N   UNL     1      47.919   5.202  14.801  0.00  0.00    +0.000 NA
ATOM      8  C   UNL     1      46.790   4.712  14.220  0.00  0.00    +0.000 A 
BRANCH   6   9
ATOM      9  C   UNL     1      49.516   7.031  15.052  0.00  0.00    +0.000 C 
ATOM     10  N   UNL     1      49.846   8.297  14.657  0.00  0.00    +0.000 N 
ATOM     11  O   UNL     1      50.193   6.413  15.865  0.00  0.00    +0.000 OA
ATOM     12  H   UNL     1      49.263   8.780  13.983  0.00  0.00    +0.000 HD
ATOM     13  H   UNL     1      50.670   8.739  15.039  0.00  0.00    +0.000 HD
ENDBRANCH   6   9
ENDBRANCH   1   3
BRANCH   1  14
ATOM     14  C   UNL     1      44.171   5.293  11.566  0.00  0.00    +0.000 C 
ATOM     15  C   UNL     1      42.661   5.028  11.593  0.00  0.00    +0.000 C 
BRANCH  14  20
ATOM     16  C   UNL     1      46.306   3.131   6.651  0.00  0.00    +0.000 C 
ATOM     17  C   UNL     1      45.788   3.609   7.976  0.00  0.00    +0.000 A 
ATOM     18  C   UNL     1      44.992   2.797   8.773  0.00  0.00    +0.000 A 
ATOM     19  C   UNL     1      44.488   3.310   9.969  0.00  0.00    +0.000 A 
ATOM     20  C   UNL     1      44.775   4.628  10.340  0.00  0.00    +0.000 A 
ATOM     21  C   UNL     1      45.604   5.351   9.489  0.00  0.00    +0.000 A 
ATOM     22  N   UNL     1      46.111   4.875   8.329  0.00  0.00    +0.000 NA
ENDBRANCH  14  20
ENDBRANCH   1  14
TORSDOF 4
ENDMDL
MODEL 6
REMARK VINA RESULT:    -6.207      4.170      6.214
REMARK INTER + INTRA:          -8.241
REMARK INTER:                  -7.829
REMARK INTRA:                  -0.412
REMARK UNBOUND:                -0.582
REMARK  Name = 
REMARK  6 active torsions:
REMARK  status: ('A' for Active; 'I' for Inactive)
REMARK    1  A    between atoms: C_1  and  C_2
REMARK    2  A    between atoms: C_5  and  C_6
REMARK    3  A    between atoms: C_6  and  C_7
REMARK    4  A    between atoms: C_6  and  N_8
REMARK    5  A    between atoms: N_8  and  C_9
REMARK    6  A    between atoms: C_12  and  C_13
REMARK                            x       y       z     vdW  Elec       q    Type
REMARK                         _______ _______ _______ _____ _____    ______ ____
ROOT
ATOM      1  N   UNL     1      47.467   5.056  15.463  0.00  0.00    +0.000 N 
ATOM      2  H   UNL     1      48.418   5.265  15.157  0.00  0.00    +0.000 HD
ENDROOT
BRANCH   1   3
ATOM      3  C   UNL     1      46.650   4.699  14.382  0.00  0.00    +0.000 A 
ATOM      4  C   UNL     1      45.919   5.612  13.620  0.00  0.00    +0.000 A 
ATOM      5  C   UNL     1      45.192   5.200  12.502  0.00  0.00    +0.000 A 
ATOM      6  C   UNL     1      45.219   3.860  12.154  0.00  0.00    +0.000 A 
ATOM      7  N   UNL     1      45.932   2.924  12.834  0.00  0.00    +0.000 NA
ATOM      8  C   UNL     1      46.636   3.379  13.907  0.00  0.00    +0.000 A 
BRANCH   6   9
ATOM      9  C   UNL     1      44.434   3.394  10.965  0.00  0.00    +0.000 C 
ATOM     10  N   UNL     1      45.071   2.506  10.145  0.00  0.00    +0.000 N 
ATOM     11  O   UNL     1      43.292   3.776  10.737  0.00  0.00    +0.000 OA
ATOM     12  H   UNL     1      46.016   2.211  10.363  0.00  0.00    +0.000 HD
ATOM     13  H   UNL     1      44.597   2.155   9.326  0.00  0.00    +0.000 HD
ENDBRANCH   6   9
ENDBRANCH   1   3
BRANCH   1  14
ATOM     14  C   UNL     1      47.455   4.271  16.708  0.00  0.00    +0.000 C 
ATOM     15  C   UNL     1      47.190   5.161  17.927  0.00  0.00    +0.000 C 
BRANCH  14  20
ATOM     16  C   UNL     1      52.290   1.220  17.546  0.00  0.00    +0.000 C 
ATOM     17  C   UNL     1      51.094   2.089  17.293  0.00  0.00    +0.000 A 
ATOM     18  C   UNL     1      51.022   3.380  17.799  0.00  0.00    +0.000 A 
ATOM     19  C   UNL     1      49.862   4.126  17.584  0.00  0.00    +0.000 A 
ATOM     20  C   UNL     1      48.790   3.565  16.883  0.00  0.00    +0.000 A 
ATOM     21  C   UNL     1      48.970   2.277  16.391  0.00  0.00    +0.000 A 
ATOM     22  N   UNL     1      50.086   1.535  16.579  0.00  0.00    +0.000 NA
ENDBRANCH  14  20
ENDBRANCH   1  14
TORSDOF 4
ENDMDL
MODEL 7
REMARK VINA RESULT:    -6.050      2.711      6.286
REMARK INTER + INTRA:          -8.047
REMARK INTER:                  -8.414
REMARK INTRA:                   0.367
REMARK UNBOUND:                -0.582
REMARK  Name = 
REMARK  6 active torsions:
REMARK  status: ('A' for Active; 'I' for Inactive)
REMARK    1  A    between atoms: C_1  and  C_2
REMARK    2  A    between atoms: C_5  and  C_6
REMARK    3  A    between atoms: C_6  and  C_7
REMARK    4  A    between atoms: C_6  and  N_8
REMARK    5  A    between atoms: N_8  and  C_9
REMARK    6  A    between atoms: C_12  and  C_13
REMARK                            x       y       z     vdW  Elec       q    Type
REMARK                         _______ _______ _______ _____ _____    ______ ____
ROOT
ATOM      1  N   UNL     1      44.880   5.809  10.641  0.00  0.00    +0.000 N 
ATOM      2  H   UNL     1      44.363   6.687  10.666  0.00  0.00    +0.000 HD
ENDROOT
BRANCH   1   3
ATOM      3  C   UNL     1      45.495   5.544  11.872  0.00  0.00    +0.000 A 
ATOM      4  C   UNL     1      44.913   4.786  12.890  0.00  0.00    +0.000 A 
ATOM      5  C   UNL     1      45.615   4.487  14.059  0.00  0.00    +0.000 A 
ATOM      6  C   UNL     1      46.914   4.951  14.186  0.00  0.00    +0.000 A 
ATOM      7  N   UNL     1      47.550   5.668  13.224  0.00  0.00    +0.000 NA
ATOM      8  C   UNL     1      46.829   5.921  12.097  0.00  0.00    +0.000 A 
BRANCH   6   9
ATOM      9  C   UNL     1      47.680   4.653  15.439  0.00  0.00    +0.000 C 
ATOM     10  N   UNL     1      47.891   5.716  16.271  0.00  0.00    +0.000 N 
ATOM     11  O   UNL     1      48.091   3.531  15.711  0.00  0.00    +0.000 OA
ATOM     12  H   UNL     1      47.536   6.631  16.015  0.00  0.00    +0.000 HD
ATOM     13  H   UNL     1      48.401   5.582  17.132  0.00  0.00    +0.000 HD
ENDBRANCH   6   9
ENDBRANCH   1   3
BRANCH   1  14
ATOM     14  C   UNL     1      44.137   4.756   9.930  0.00  0.00    +0.000 C 
ATOM     15  C   UNL     1      43.386   3.846  10.908  0.00  0.00    +0.000 C 
BRANCH  14  20
ATOM     16  C   UNL     1      47.608   1.773   6.402  0.00  0.00    +0.000 C 
ATOM     17  C   UNL     1      46.751   2.499   7.397  0.00  0.00    +0.000 A 
ATOM     18  C   UNL     1      46.015   1.808   8.351  0.00  0.00    +0.000 A 
ATOM     19  C   UNL     1      45.188   2.527   9.216  0.00  0.00    +0.000 A 
ATOM     20  C   UNL     1      45.099   3.918   9.103  0.00  0.00    +0.000 A 
ATOM     21  C   UNL     1      45.897   4.519   8.135  0.00  0.00    +0.000 A 
ATOM     22  N   UNL     1      46.711   3.847   7.290  0.00  0.00    +0.000 NA
ENDBRANCH  14  20
ENDBRANCH   1  14
TORSDOF 4
ENDMDL
MODEL 8
REMARK VINA RESULT:    -5.757      3.193      6.423
REMARK INTER + INTRA:          -7.686
REMARK INTER:                  -7.740
REMARK INTRA:                   0.054
REMARK UNBOUND:                -0.582
REMARK  Name = 
REMARK  6 active torsions:
REMARK  status: ('A' for Active; 'I' for Inactive)
REMARK    1  A    between atoms: C_1  and  C_2
REMARK    2  A    between atoms: C_5  and  C_6
REMARK    3  A    between atoms: C_6  and  C_7
REMARK    4  A    between atoms: C_6  and  N_8
REMARK    5  A    between atoms: N_8  and  C_9
REMARK    6  A    between atoms: C_12  and  C_13
REMARK                            x       y       z     vdW  Elec       q    Type
REMARK                         _______ _______ _______ _____ _____    ______ ____
ROOT
ATOM      1  N   UNL     1      46.590   6.313  12.390  0.00  0.00    +0.000 N 
ATOM      2  H   UNL     1      46.824   7.292  12.555  0.00  0.00    +0.000 HD
ENDROOT
BRANCH   1   3
ATOM      3  C   UNL     1      47.024   5.499  13.446  0.00  0.00    +0.000 A 
ATOM      4  C   UNL     1      47.483   5.988  14.671  0.00  0.00    +0.000 A 
ATOM      5  C   UNL     1      47.818   5.121  15.713  0.00  0.00    +0.000 A 
ATOM      6  C   UNL     1      47.674   3.758  15.511  0.00  0.00    +0.000 A 
ATOM      7  N   UNL     1      47.206   3.218  14.355  0.00  0.00    +0.000 NA
ATOM      8  C   UNL     1      46.879   4.105  13.376  0.00  0.00    +0.000 A 
BRANCH   6   9
ATOM      9  C   UNL     1      48.043   2.811  16.612  0.00  0.00    +0.000 C 
ATOM     10  N   UNL     1      47.142   2.713  17.635  0.00  0.00    +0.000 N 
ATOM     11  O   UNL     1      49.080   2.158  16.602  0.00  0.00    +0.000 OA
ATOM     12  H   UNL     1      46.294   3.267  17.611  0.00  0.00    +0.000 HD
ATOM     13  H   UNL     1      47.332   2.092  18.408  0.00  0.00    +0.000 HD
ENDBRANCH   6   9
ENDBRANCH   1   3
BRANCH   1  14
ATOM     14  C   UNL     1      45.237   6.162  11.831  0.00  0.00    +0.000 C 
ATOM     15  C   UNL     1      44.262   5.598  12.872  0.00  0.00    +0.000 C 
BRANCH  14  20
ATOM     16  C   UNL     1      45.284   2.997   6.996  0.00  0.00    +0.000 C 
ATOM     17  C   UNL     1      45.296   3.733   8.303  0.00  0.00    +0.000 A 
ATOM     18  C   UNL     1      44.551   3.286   9.387  0.00  0.00    +0.000 A 
ATOM     19  C   UNL     1      44.551   4.039  10.563  0.00  0.00    +0.000 A 
ATOM     20  C   UNL     1      45.280   5.231  10.630  0.00  0.00    +0.000 A 
ATOM     21  C   UNL     1      46.015   5.578   9.501  0.00  0.00    +0.000 A 
ATOM     22  N   UNL     1      46.039   4.863   8.353  0.00  0.00    +0.000 NA
ENDBRANCH  14  20
ENDBRANCH   1  14
TORSDOF 4
ENDMDL
MODEL 9
REMARK VINA RESULT:    -5.321      3.279      5.350
REMARK INTER + INTRA:          -7.148
REMARK INTER:                  -6.620
REMARK INTRA:                  -0.527
REMARK UNBOUND:                -0.582
REMARK  Name = 
REMARK  6 active torsions:
REMARK  status: ('A' for Active; 'I' for Inactive)
REMARK    1  A    between atoms: C_1  and  C_2
REMARK    2  A    between atoms: C_5  and  C_6
REMARK    3  A    between atoms: C_6  and  C_7
REMARK    4  A    between atoms: C_6  and  N_8
REMARK    5  A    between atoms: N_8  and  C_9
REMARK    6  A    between atoms: C_12  and  C_13
REMARK                            x       y       z     vdW  Elec       q    Type
REMARK                         _______ _______ _______ _____ _____    ______ ____
ROOT
ATOM      1  N   UNL     1      46.861   7.255  13.517  0.00  0.00    +0.000 N 
ATOM      2  H   UNL     1      46.545   8.189  13.259  0.00  0.00    +0.000 HD
ENDROOT
BRANCH   1   3
ATOM      3  C   UNL     1      46.084   6.265  12.900  0.00  0.00    +0.000 A 
ATOM      4  C   UNL     1      45.444   6.427  11.670  0.00  0.00    +0.000 A 
ATOM      5  C   UNL     1      44.756   5.371  11.070  0.00  0.00    +0.000 A 
ATOM      6  C   UNL     1      44.731   4.147  11.717  0.00  0.00    +0.000 A 
ATOM      7  N   UNL     1      45.357   3.912  12.900  0.00  0.00    +0.000 NA
ATOM      8  C   UNL     1      46.026   4.969  13.437  0.00  0.00    +0.000 A 
BRANCH   6   9
ATOM      9  C   UNL     1      43.986   3.004  11.096  0.00  0.00    +0.000 C 
ATOM     10  N   UNL     1      43.411   2.126  11.971  0.00  0.00    +0.000 N 
ATOM     11  O   UNL     1      43.891   2.859   9.883  0.00  0.00    +0.000 OA
ATOM     12  H   UNL     1      43.510   2.276  12.969  0.00  0.00    +0.000 HD
ATOM     13  H   UNL     1      42.895   1.334  11.616  0.00  0.00    +0.000 HD
ENDBRANCH   6   9
ENDBRANCH   1   3
BRANCH   1  14
ATOM     14  C   UNL     1      48.330   7.159  13.529  0.00  0.00    +0.000 C 
ATOM     15  C   UNL     1      48.892   7.367  14.940  0.00  0.00    +0.000 C 
BRANCH  14  20
ATOM     16  C   UNL     1      50.923  11.185  10.295  0.00  0.00    +0.000 C 
ATOM     17  C   UNL     1      50.176  10.135  11.063  0.00  0.00    +0.000 A 
ATOM     18  C   UNL     1      48.829  10.286  11.365  0.00  0.00    +0.000 A 
ATOM     19  C   UNL     1      48.195   9.307  12.132  0.00  0.00    +0.000 A 
ATOM     20  C   UNL     1      48.920   8.204  12.596  0.00  0.00    +0.000 A 
ATOM     21  C   UNL     1      50.256   8.129  12.216  0.00  0.00    +0.000 A 
ATOM     22  N   UNL     1      50.892   9.060  11.468  0.00  0.00    +0.000 NA
ENDBRANCH  14  20
ENDBRANCH   1  14
TORSDOF 4
ENDMDL
