MODEL 1
REMARK VINA RESULT:    -7.933      0.000      0.000
REMARK INTER + INTRA:         -10.982
REMARK INTER:                 -10.251
REMARK INTRA:                  -0.731
REMARK UNBOUND:                -0.731
REMARK  Name = 
REMARK  5 active torsions:
REMARK  status: ('A' for Active; 'I' for Inactive)
REMARK    1  A    between atoms: C_2  and  C_5
REMARK    2  A    between atoms: C_7  and  C_8
REMARK    3  A    between atoms: C_8  and  O_9
REMARK    4  A    between atoms: O_9  and  C_10
REMARK    5  A    between atoms: C_14  and  C_15
REMARK                            x       y       z     vdW  Elec       q    Type
REMARK                         _______ _______ _______ _____ _____    ______ ____
ROOT
ATOM      1  O   UNL     1      44.624   5.913  10.931  0.00  0.00    +0.000 OA
ENDROOT
BRANCH   1   2
ATOM      2  C   UNL     1      44.563   4.660  10.372  0.00  0.00    +0.000 A 
ATOM      3  N   UNL     1      43.805   3.794  11.054  0.00  0.00    +0.000 NA
ATOM      4  C   UNL     1      43.818   2.530  10.613  0.00  0.00    +0.000 A 
ATOM      5  C   UNL     1      44.563   2.115   9.537  0.00  0.00    +0.000 A 
ATOM      6  C   UNL     1      45.321   3.080   8.893  0.00  0.00    +0.000 A 
ATOM      7  N   UNL     1      45.329   4.367   9.307  0.00  0.00    +0.000 NA
BRANCH   6   8
ATOM      8  C   UNL     1      46.196   2.749   7.753  0.00  0.00    +0.000 A 
ATOM      9  C   UNL     1      46.365   3.601   6.650  0.00  0.00    +0.000 A 
ATOM     10  C   UNL     1      47.146   3.216   5.561  0.00  0.00    +0.000 A 
ATOM     11  C   UNL     1      47.760   1.978   5.600  0.00  0.00    +0.000 A 
ATOM     12  N   UNL     1      47.656   1.131   6.644  0.00  0.00    +0.000 NA
ATOM     13  C   UNL     1      46.886   1.537   7.688  0.00  0.00    +0.000 A 
ENDBRANCH   6   8
ENDBRANCH   1   2
BRANCH   1  14
ATOM     14  C   UNL     1      44.424   5.897  12.339  0.00  0.00    +0.000 C 
BRANCH  14  17
ATOM     15  C   UNL     1      47.294   4.950  14.689  0.00  0.00    +0.000 A 
ATOM     16  C   UNL     1      46.026   4.981  14.099  0.00  0.00    +0.000 A 
ATOM     17  C   UNL     1      45.776   5.843  13.022  0.00  0.00    +0.000 A 
ATOM     18  C   UNL     1      46.807   6.684  12.601  0.00  0.00    +0.000 A 
ATOM     19  C   UNL     1      48.034   6.608  13.238  0.00  0.00    +0.000 A 
ATOM     20  N   UNL     1      48.300   5.768  14.260  0.00  0.00    +0.000 NA
BRANCH  15  22
ATOM     21  F   UNL     1      48.696   4.297  16.549  0.00  0.00    +0.000 F 
ATOM     22  C   UNL     1      47.579   3.978  15.828  0.00  0.00    +0.000 C 
ATOM     23  F   UNL     1      47.782   2.698  15.401  0.00  0.00    +0.000 F 
ATOM     24  F   UNL     1      46.568   3.913  16.743  0.00  0.00    +0.000 F 
ENDBRANCH  15  22
ENDBRANCH  14  17
ENDBRANCH   1  14
TORSDOF 5
ENDMDL
MODEL 2
REMARK VINA RESULT:    -7.822      2.344      2.908
REMARK INTER + INTRA:         -10.839
REMARK INTER:                 -10.015
REMARK INTRA:                  -0.825
REMARK UNBOUND:                -0.731
REMARK  Name = 
REMARK  5 active torsions:
REMARK  status: ('A' for Active; 'I' for Inactive)
REMARK    1  A    between atoms: C_2  and  C_5
REMARK    2  A    between atoms: C_7  and  C_8
REMARK    3  A    between atoms: C_8  and  O_9
REMARK    4  A    between atoms: O_9  and  C_10
REMARK    5  A    between atoms: C_14  and  C_15
REMARK                            x       y       z     vdW  Elec       q    Type
REMARK                         _______ _______ _______ _____ _____    ______ ____
ROOT
ATOM      1  O   UNL     1      43.993   6.050  10.978  0.00  0.00    +0.000 OA
ENDROOT
BRANCH   1   2
ATOM      2  C   UNL     1      44.050   4.741  10.569  0.00  0.00    +0.000 A 
ATOM      3  N   UNL     1      43.387   3.891  11.362  0.00  0.00    +0.000 NA
ATOM      4  C   UNL     1      43.520   2.592  11.069  0.00  0.00    +0.000 A 
ATOM      5  C   UNL     1      44.292   2.128  10.031  0.00  0.00    +0.000 A 
ATOM      6  C   UNL     1      44.945   3.080   9.265  0.00  0.00    +0.000 A 
ATOM      7  N   UNL     1      44.831   4.401   9.529  0.00  0.00    +0.000 NA
BRANCH   6   8
ATOM      8  C   UNL     1      45.838   2.704   8.152  0.00  0.00    +0.000 A 
ATOM      9  C   UNL     1      46.146   3.577   7.096  0.00  0.00    +0.000 A 
ATOM     10  C   UNL     1      46.937   3.155   6.028  0.00  0.00    +0.000 A 
ATOM     11  C   UNL     1      47.420   1.860   6.041  0.00  0.00    +0.000 A 
ATOM     12  N   UNL     1      47.179   0.989   7.042  0.00  0.00    +0.000 NA
ATOM     13  C   UNL     1      46.404   1.431   8.066  0.00  0.00    +0.000 A 
ENDBRANCH   6   8
ENDBRANCH   1   2
BRANCH   1  14
ATOM     14  C   UNL     1      44.122   6.191  12.388  0.00  0.00    +0.000 C 
BRANCH  14  17
ATOM     15  C   UNL     1      47.863   6.975  12.594  0.00  0.00    +0.000 A 
ATOM     16  C   UNL     1      46.518   7.048  12.218  0.00  0.00    +0.000 A 
ATOM     17  C   UNL     1      45.592   6.140  12.751  0.00  0.00    +0.000 A 
ATOM     18  C   UNL     1      46.065   5.152  13.617  0.00  0.00    +0.000 A 
ATOM     19  C   UNL     1      47.412   5.133  13.936  0.00  0.00    +0.000 A 
ATOM     20  N   UNL     1      48.312   6.014  13.453  0.00  0.00    +0.000 NA
BRANCH  15  22
ATOM     21  F   UNL     1      49.736   8.453  12.997  0.00  0.00    +0.000 F 
ATOM     22  C   UNL     1      48.859   7.994  12.052  0.00  0.00    +0.000 C 
ATOM     23  F   UNL     1      48.261   9.112  11.547  0.00  0.00    +0.000 F 
ATOM     24  F   UNL     1      49.640   7.500  11.048  0.00  0.00    +0.000 F 
ENDBRANCH  15  22
ENDBRANCH  14  17
ENDBRANCH   1  14
TORSDOF 5
ENDMDL
MODEL 3
REMARK VINA RESULT:    -7.717      1.565      2.296
REMARK INTER + INTRA:         -10.703
REMARK INTER:                 -10.008
REMARK INTRA:                  -0.695
REMARK UNBOUND:                -0.731
REMARK  Name = 
REMARK  5 active torsions:
REMARK  status: ('A' for Active; 'I' for Inactive)
REMARK    1  A    between atoms: C_2  and  C_5
REMARK    2  A    between atoms: C_7  and  C_8
REMARK    3  A    between atoms: C_8  and  O_9
REMARK    4  A    between atoms: O_9  and  C_10
REMARK    5  A    between atoms: C_14  and  C_15
REMARK                            x       y       z     vdW  Elec       q    Type
REMARK                         _______ _______ _______ _____ _____    ______ ____
ROOT
ATOM      1  O   UNL     1      45.201   5.586  13.400  0.00  0.00    +0.000 OA
ENDROOT
BRANCH   1   2
ATOM      2  C   UNL     1      44.701   4.644  12.535  0.00  0.00    +0.000 A 
ATOM      3  N   UNL     1      43.783   3.837  13.079  0.00  0.00    +0.000 NA
ATOM      4  C   UNL     1      43.361   2.827  12.307  0.00  0.00    +0.000 A 
ATOM      5  C   UNL     1      43.831   2.602  11.037  0.00  0.00    +0.000 A 
ATOM      6  C   UNL     1      44.783   3.488  10.557  0.00  0.00    +0.000 A 
ATOM      7  N   UNL     1      45.230   4.521  11.306  0.00  0.00    +0.000 NA
BRANCH   6   8
ATOM      8  C   UNL     1      45.396   3.324   9.225  0.00  0.00    +0.000 A 
ATOM      9  C   UNL     1      45.721   2.069   8.687  0.00  0.00    +0.000 A 
ATOM     10  C   UNL     1      46.365   1.965   7.454  0.00  0.00    +0.000 A 
ATOM     11  C   UNL     1      46.665   3.128   6.771  0.00  0.00    +0.000 A 
ATOM     12  N   UNL     1      46.352   4.358   7.227  0.00  0.00    +0.000 NA
ATOM     13  C   UNL     1      45.726   4.424   8.431  0.00  0.00    +0.000 A 
ENDBRANCH   6   8
ENDBRANCH   1   2
BRANCH   1  14
ATOM     14  C   UNL     1      46.535   5.966  13.086  0.00  0.00    +0.000 C 
BRANCH  14  17
ATOM     15  C   UNL     1      48.104   4.454  16.234  0.00  0.00    +0.000 A 
ATOM     16  C   UNL     1      47.270   4.618  15.123  0.00  0.00    +0.000 A 
ATOM     17  C   UNL     1      47.403   5.753  14.310  0.00  0.00    +0.000 A 
ATOM     18  C   UNL     1      48.349   6.714  14.672  0.00  0.00    +0.000 A 
ATOM     19  C   UNL     1      49.133   6.490  15.792  0.00  0.00    +0.000 A 
ATOM     20  N   UNL     1      49.036   5.393  16.571  0.00  0.00    +0.000 NA
BRANCH  15  22
ATOM     21  F   UNL     1      48.506   2.082  16.485  0.00  0.00    +0.000 F 
ATOM     22  C   UNL     1      47.992   3.197  17.088  0.00  0.00    +0.000 C 
ATOM     23  F   UNL     1      46.702   2.873  17.397  0.00  0.00    +0.000 F 
ATOM     24  F   UNL     1      48.650   3.296  18.279  0.00  0.00    +0.000 F 
ENDBRANCH  15  22
ENDBRANCH  14  17
ENDBRANCH   1  14
TORSDOF 5
ENDMDL
MODEL 4
REMARK VINA RESULT:    -7.427      4.108      8.372
REMARK INTER + INTRA:         -10.329
REMARK INTER:                  -9.763
REMARK INTRA:                  -0.566
REMARK UNBOUND:                -0.731
REMARK  Name = 
REMARK  5 active torsions:
REMARK  status: ('A' for Active; 'I' for Inactive)
REMARK    1  A    between atoms: C_2  and  C_5
REMARK    2  A    between atoms: C_7  and  C_8
REMARK    3  A    between atoms: C_8  and  O_9
REMARK    4  A    between atoms: O_9  and  C_10
REMARK    5  A    between atoms: C_14  and  C_15
REMARK                            x       y       z     vdW  Elec       q    Type
REMARK                         _______ _______ _______ _____ _____    ______ ____
ROOT
ATOM      1  O   UNL     1      47.116   3.207  14.174  0.00  0.00    +0.000 OA
ENDROOT
BRANCH   1   2
ATOM      2  C   UNL     1      47.551   3.310  15.472  0.00  0.00    +0.000 A 
ATOM      3  N   UNL     1      46.716   3.976  16.277  0.00  0.00    +0.000 NA
ATOM      4  C   UNL     1      47.159   4.206  17.520  0.00  0.00    +0.000 A 
ATOM      5  C   UNL     1      48.395   3.805  17.965  0.00  0.00    +0.000 A 
ATOM      6  C   UNL     1      49.194   3.123  17.061  0.00  0.00    +0.000 A 
ATOM      7  N   UNL     1      48.778   2.869  15.800  0.00  0.00    +0.000 NA
BRANCH   6   8
ATOM      8  C   UNL     1      50.558   2.681  17.408  0.00  0.00    +0.000 A 
ATOM      9  C   UNL     1      50.968   1.341  17.321  0.00  0.00    +0.000 A 
ATOM     10  C   UNL     1      52.246   0.957  17.727  0.00  0.00    +0.000 A 
ATOM     11  C   UNL     1      53.102   1.930  18.206  0.00  0.00    +0.000 A 
ATOM     12  N   UNL     1      52.771   3.235  18.286  0.00  0.00    +0.000 NA
ATOM     13  C   UNL     1      51.519   3.575  17.883  0.00  0.00    +0.000 A 
ENDBRANCH   6   8
ENDBRANCH   1   2
BRANCH   1  14
ATOM     14  C   UNL     1      46.580   4.427  13.676  0.00  0.00    +0.000 C 
BRANCH  14  17
ATOM     15  C   UNL     1      44.548   3.193  10.675  0.00  0.00    +0.000 A 
ATOM     16  C   UNL     1      45.639   3.484  11.501  0.00  0.00    +0.000 A 
ATOM     17  C   UNL     1      45.432   4.108  12.740  0.00  0.00    +0.000 A 
ATOM     18  C   UNL     1      44.127   4.461  13.087  0.00  0.00    +0.000 A 
ATOM     19  C   UNL     1      43.097   4.152  12.215  0.00  0.00    +0.000 A 
ATOM     20  N   UNL     1      43.274   3.529  11.032  0.00  0.00    +0.000 NA
BRANCH  15  22
ATOM     21  F   UNL     1      46.089   2.229   9.078  0.00  0.00    +0.000 F 
ATOM     22  C   UNL     1      44.770   2.470   9.351  0.00  0.00    +0.000 C 
ATOM     23  F   UNL     1      44.305   3.168   8.275  0.00  0.00    +0.000 F 
ATOM     24  F   UNL     1      44.164   1.249   9.298  0.00  0.00    +0.000 F 
ENDBRANCH  15  22
ENDBRANCH  14  17
ENDBRANCH   1  14
TORSDOF 5
ENDMDL
MODEL 5
REMARK VINA RESULT:    -7.352      3.662      6.791
REMARK INTER + INTRA:         -10.232
REMARK INTER:                  -9.857
REMARK INTRA:                  -0.375
REMARK UNBOUND:                -0.731
REMARK  Name = 
REMARK  5 active torsions:
REMARK  status: ('A' for Active; 'I' for Inactive)
REMARK    1  A    between atoms: C_2  and  C_5
REMARK    2  A    between atoms: C_7  and  C_8
REMARK    3  A    between atoms: C_8  and  O_9
REMARK    4  A    between atoms: O_9  and  C_10
REMARK    5  A    between atoms: C_14  and  C_15
REMARK                            x       y       z     vdW  Elec       q    Type
REMARK                         _______ _______ _______ _____ _____    ______ ____
ROOT
ATOM      1  O   UNL     1      44.443   2.445  11.846  0.00  0.00    +0.000 OA
ENDROOT
BRANCH   1   2
ATOM      2  C   UNL     1      44.523   3.729  12.326  0.00  0.00    +0.000 A 
ATOM      3  N   UNL     1      43.335   4.303  12.549  0.00  0.00    +0.000 NA
ATOM      4  C   UNL     1      43.366   5.595  12.899  0.00  0.00    +0.000 A 
ATOM      5  C   UNL     1      44.529   6.317  13.018  0.00  0.00    +0.000 A 
ATOM      6  C   UNL     1      45.712   5.640  12.764  0.00  0.00    +0.000 A 
ATOM      7  N   UNL     1      45.719   4.335  12.413  0.00  0.00    +0.000 NA
BRANCH   6   8
ATOM      8  C   UNL     1      47.021   6.318  12.815  0.00  0.00    +0.000 A 
ATOM      9  C   UNL     1      47.473   7.176  11.799  0.00  0.00    +0.000 A 
ATOM     10  C   UNL     1      48.748   7.739  11.854  0.00  0.00    +0.000 A 
ATOM     11  C   UNL     1      49.550   7.441  12.939  0.00  0.00    +0.000 A 
ATOM     12  N   UNL     1      49.158   6.647  13.956  0.00  0.00    +0.000 NA
ATOM     13  C   UNL     1      47.911   6.114  13.871  0.00  0.00    +0.000 A 
ENDBRANCH   6   8
ENDBRANCH   1   2
BRANCH   1  14
ATOM     14  C   UNL     1      43.767   2.366  10.598  0.00  0.00    +0.000 C 
BRANCH  14  17
ATOM     15  C   UNL     1      46.313   2.533   7.744  0.00  0.00    +0.000 A 
ATOM     16  C   UNL     1      45.490   2.017   8.750  0.00  0.00    +0.000 A 
ATOM     17  C   UNL     1      44.688   2.880   9.511  0.00  0.00    +0.000 A 
ATOM     18  C   UNL     1      44.778   4.251   9.260  0.00  0.00    +0.000 A 
ATOM     19  C   UNL     1      45.623   4.692   8.256  0.00  0.00    +0.000 A 
ATOM     20  N   UNL     1      46.382   3.874   7.498  0.00  0.00    +0.000 NA
BRANCH  15  22
ATOM     21  F   UNL     1      46.753   0.281   6.976  0.00  0.00    +0.000 F 
ATOM     22  C   UNL     1      47.147   1.589   6.886  0.00  0.00    +0.000 C 
ATOM     23  F   UNL     1      48.470   1.587   7.221  0.00  0.00    +0.000 F 
ATOM     24  F   UNL     1      47.097   1.887   5.556  0.00  0.00    +0.000 F 
ENDBRANCH  15  22
ENDBRANCH  14  17
ENDBRANCH   1  14
TORSDOF 5
ENDMDL
MODEL 6
REMARK VINA RESULT:    -7.318      3.705      6.996
REMARK INTER + INTRA:         -10.188
REMARK INTER:                  -9.946
REMARK INTRA:                  -0.242
REMARK UNBOUND:                -0.731
REMARK  Name = 
REMARK  5 active torsions:
REMARK  status: ('A' for Active; 'I' for Inactive)
REMARK    1  A    between atoms: C_2  and  C_5
REMARK    2  A    between atoms: C_7  and  C_8
REMARK    3  A    between atoms: C_8  and  O_9
REMARK    4  A    between atoms: O_9  and  C_10
REMARK    5  A    between atoms: C_14  and  C_15
REMARK                            x       y       z     vdW  Elec       q    Type
REMARK                         _______ _______ _______ _____ _____    ______ ____
ROOT
ATOM      1  O   UNL     1      43.567   3.743  11.663  0.00  0.00    +0.000 OA
ENDROOT
BRANCH   1   2
ATOM      2  C   UNL     1      44.740   4.269  12.145  0.00  0.00    +0.000 A 
ATOM      3  N   UNL     1      45.438   3.430  12.918  0.00  0.00    +0.000 NA
ATOM      4  C   UNL     1      46.524   3.943  13.508  0.00  0.00    +0.000 A 
ATOM      5  C   UNL     1      46.917   5.251  13.357  0.00  0.00    +0.000 A 
ATOM      6  C   UNL     1      46.131   6.048  12.540  0.00  0.00    +0.000 A 
ATOM      7  N   UNL     1      45.030   5.563  11.925  0.00  0.00    +0.000 NA
BRANCH   6   8
ATOM      8  C   UNL     1      46.425   7.480  12.336  0.00  0.00    +0.000 A 
ATOM      9  C   UNL     1      47.732   7.979  12.221  0.00  0.00    +0.000 A 
ATOM     10  C   UNL     1      47.966   9.349  12.100  0.00  0.00    +0.000 A 
ATOM     11  C   UNL     1      46.878  10.201  12.085  0.00  0.00    +0.000 A 
ATOM     12  N   UNL     1      45.601   9.775  12.165  0.00  0.00    +0.000 NA
ATOM     13  C   UNL     1      45.408   8.435  12.282  0.00  0.00    +0.000 A 
ENDBRANCH   6   8
ENDBRANCH   1   2
BRANCH   1  14
ATOM     14  C   UNL     1      43.760   2.521  10.962  0.00  0.00    +0.000 C 
BRANCH  14  17
ATOM     15  C   UNL     1      46.095   2.154   7.950  0.00  0.00    +0.000 A 
ATOM     16  C   UNL     1      45.408   1.857   9.132  0.00  0.00    +0.000 A 
ATOM     17  C   UNL     1      44.539   2.804   9.694  0.00  0.00    +0.000 A 
ATOM     18  C   UNL     1      44.426   4.046   9.066  0.00  0.00    +0.000 A 
ATOM     19  C   UNL     1      45.145   4.275   7.905  0.00  0.00    +0.000 A 
ATOM     20  N   UNL     1      45.965   3.367   7.337  0.00  0.00    +0.000 NA
BRANCH  15  22
ATOM     21  F   UNL     1      48.326   1.440   7.349  0.00  0.00    +0.000 F 
ATOM     22  C   UNL     1      47.000   1.106   7.315  0.00  0.00    +0.000 C 
ATOM     23  F   UNL     1      46.721   0.885   5.997  0.00  0.00    +0.000 F 
ATOM     24  F   UNL     1      46.921  -0.112   7.925  0.00  0.00    +0.000 F 
ENDBRANCH  15  22
ENDBRANCH  14  17
ENDBRANCH   1  14
TORSDOF 5
ENDMDL
MODEL 7
REMARK VINA RESULT:    -7.280      2.596      3.198
REMARK INTER + INTRA:         -10.139
REMARK INTER:                  -9.390
REMARK INTRA:                  -0.749
REMARK UNBOUND:                -0.731
REMARK  Name = 
REMARK  5 active torsions:
REMARK  status: ('A' for Active; 'I' for Inactive)
REMARK    1  A    between atoms: C_2  and  C_5
REMARK    2  A    between atoms: C_7  and  C_8
REMARK    3  A    between atoms: C_8  and  O_9
REMARK    4  A    between atoms: O_9  and  C_10
REMARK    5  A    between atoms: C_14  and  C_15
REMARK                            x       y       z     vdW  Elec       q    Type
REMARK                         _______ _______ _______ _____ _____    ______ ____
ROOT
ATOM      1  O   UNL     1      43.922   6.302  11.080  0.00  0.00    +0.000 OA
ENDROOT
BRANCH   1   2
ATOM      2  C   UNL     1      43.949   4.975  10.726  0.00  0.00    +0.000 A 
ATOM      3  N   UNL     1      43.277   4.174  11.561  0.00  0.00    +0.000 NA
ATOM      4  C   UNL     1      43.381   2.861  11.322  0.00  0.00    +0.000 A 
ATOM      5  C   UNL     1      44.134   2.338  10.299  0.00  0.00    +0.000 A 
ATOM      6  C   UNL     1      44.798   3.243   9.487  0.00  0.00    +0.000 A 
ATOM      7  N   UNL     1      44.713   4.576   9.695  0.00  0.00    +0.000 NA
BRANCH   6   8
ATOM      8  C   UNL     1      45.672   2.802   8.383  0.00  0.00    +0.000 A 
ATOM      9  C   UNL     1      46.020   3.636   7.309  0.00  0.00    +0.000 A 
ATOM     10  C   UNL     1      46.791   3.155   6.250  0.00  0.00    +0.000 A 
ATOM     11  C   UNL     1      47.214   1.840   6.292  0.00  0.00    +0.000 A 
ATOM     12  N   UNL     1      46.933   1.003   7.311  0.00  0.00    +0.000 NA
ATOM     13  C   UNL     1      46.179   1.503   8.325  0.00  0.00    +0.000 A 
ENDBRANCH   6   8
ENDBRANCH   1   2
BRANCH   1  14
ATOM     14  C   UNL     1      44.453   6.535  12.378  0.00  0.00    +0.000 C 
BRANCH  14  17
ATOM     15  C   UNL     1      47.881   8.227  12.155  0.00  0.00    +0.000 A 
ATOM     16  C   UNL     1      46.905   7.231  12.268  0.00  0.00    +0.000 A 
ATOM     17  C   UNL     1      45.546   7.580  12.277  0.00  0.00    +0.000 A 
ATOM     18  C   UNL     1      45.216   8.935  12.216  0.00  0.00    +0.000 A 
ATOM     19  C   UNL     1      46.235   9.867  12.117  0.00  0.00    +0.000 A 
ATOM     20  N   UNL     1      47.545   9.548  12.083  0.00  0.00    +0.000 NA
BRANCH  15  22
ATOM     21  F   UNL     1      49.618   6.616  12.643  0.00  0.00    +0.000 F 
ATOM     22  C   UNL     1      49.354   7.843  12.097  0.00  0.00    +0.000 C 
ATOM     23  F   UNL     1      50.162   8.714  12.767  0.00  0.00    +0.000 F 
ATOM     24  F   UNL     1      49.843   7.780  10.824  0.00  0.00    +0.000 F 
ENDBRANCH  15  22
ENDBRANCH  14  17
ENDBRANCH   1  14
TORSDOF 5
ENDMDL
MODEL 8
REMARK VINA RESULT:    -7.039      3.622      7.712
REMARK INTER + INTRA:          -9.828
REMARK INTER:                  -9.090
REMARK INTRA:                  -0.738
REMARK UNBOUND:                -0.731
REMARK  Name = 
REMARK  5 active torsions:
REMARK  status: ('A' for Active; 'I' for Inactive)
REMARK    1  A    between atoms: C_2  and  C_5
REMARK    2  A    between atoms: C_7  and  C_8
REMARK    3  A    between atoms: C_8  and  O_9
REMARK    4  A    between atoms: O_9  and  C_10
REMARK    5  A    between atoms: C_14  and  C_15
REMARK                            x       y       z     vdW  Elec       q    Type
REMARK                         _______ _______ _______ _____ _____    ______ ____
ROOT
ATOM      1  O   UNL     1      47.030   6.421  11.731  0.00  0.00    +0.000 OA
ENDROOT
BRANCH   1   2
ATOM      2  C   UNL     1      47.649   6.669  12.931  0.00  0.00    +0.000 A 
ATOM      3  N   UNL     1      48.471   7.724  12.915  0.00  0.00    +0.000 NA
ATOM      4  C   UNL     1      49.188   7.927  14.027  0.00  0.00    +0.000 A 
ATOM      5  C   UNL     1      49.113   7.111  15.130  0.00  0.00    +0.000 A 
ATOM      6  C   UNL     1      48.236   6.040  15.057  0.00  0.00    +0.000 A 
ATOM      7  N   UNL     1      47.494   5.808  13.951  0.00  0.00    +0.000 NA
BRANCH   6   8
ATOM      8  C   UNL     1      48.101   5.069  16.159  0.00  0.00    +0.000 A 
ATOM      9  C   UNL     1      49.059   4.936  17.177  0.00  0.00    +0.000 A 
ATOM     10  C   UNL     1      48.926   3.956  18.160  0.00  0.00    +0.000 A 
ATOM     11  C   UNL     1      47.822   3.125  18.113  0.00  0.00    +0.000 A 
ATOM     12  N   UNL     1      46.858   3.226  17.176  0.00  0.00    +0.000 NA
ATOM     13  C   UNL     1      47.019   4.190  16.232  0.00  0.00    +0.000 A 
ENDBRANCH   6   8
ENDBRANCH   1   2
BRANCH   1  14
ATOM     14  C   UNL     1      45.629   6.659  11.776  0.00  0.00    +0.000 C 
BRANCH  14  17
ATOM     15  C   UNL     1      44.465   3.418  10.102  0.00  0.00    +0.000 A 
ATOM     16  C   UNL     1      45.143   4.622  10.319  0.00  0.00    +0.000 A 
ATOM     17  C   UNL     1      44.905   5.359  11.488  0.00  0.00    +0.000 A 
ATOM     18  C   UNL     1      43.950   4.877  12.385  0.00  0.00    +0.000 A 
ATOM     19  C   UNL     1      43.309   3.684  12.100  0.00  0.00    +0.000 A 
ATOM     20  N   UNL     1      43.544   2.949  10.993  0.00  0.00    +0.000 NA
BRANCH  15  22
ATOM     21  F   UNL     1      46.084   2.270   8.719  0.00  0.00    +0.000 F 
ATOM     22  C   UNL     1      44.762   2.594   8.855  0.00  0.00    +0.000 C 
ATOM     23  F   UNL     1      44.430   3.237   7.697  0.00  0.00    +0.000 F 
ATOM     24  F   UNL     1      44.096   1.403   8.827  0.00  0.00    +0.000 F 
ENDBRANCH  15  22
ENDBRANCH  14  17
ENDBRANCH   1  14
TORSDOF 5
ENDMDL
MODEL 9
REMARK VINA RESULT:    -6.815      1.866      2.559
REMARK INTER + INTRA:          -9.538
REMARK INTER:                  -8.972
REMARK INTRA:                  -0.565
REMARK UNBOUND:                -0.731
REMARK  Name = 
REMARK  5 active torsions:
REMARK  status: ('A' for Active; 'I' for Inactive)
REMARK    1  A    between atoms: C_2  and  C_5
REMARK    2  A    between atoms: C_7  and  C_8
REMARK    3  A    between atoms: C_8  and  O_9
REMARK    4  A    between atoms: O_9  and  C_10
REMARK    5  A    between atoms: C_14  and  C_15
REMARK                            x       y       z     vdW  Elec       q    Type
REMARK                         _______ _______ _______ _____ _____    ______ ____
ROOT
ATOM      1  O   UNL     1      45.758   6.722  10.960  0.00  0.00    +0.000 OA
ENDROOT
BRANCH   1   2
ATOM      2  C   UNL     1      45.190   5.598  10.413  0.00  0.00    +0.000 A 
ATOM      3  N   UNL     1      44.078   5.190  11.035  0.00  0.00    +0.000 NA
ATOM      4  C   UNL     1      43.562   4.030  10.611  0.00  0.00    +0.000 A 
ATOM      5  C   UNL     1      44.124   3.276   9.610  0.00  0.00    +0.000 A 
ATOM      6  C   UNL     1      45.277   3.775   9.025  0.00  0.00    +0.000 A 
ATOM      7  N   UNL     1      45.824   4.945   9.424  0.00  0.00    +0.000 NA
BRANCH   6   8
ATOM      8  C   UNL     1      45.998   3.035   7.971  0.00  0.00    +0.000 A 
ATOM      9  C   UNL     1      46.362   1.686   8.103  0.00  0.00    +0.000 A 
ATOM     10  C   UNL     1      47.105   1.046   7.112  0.00  0.00    +0.000 A 
ATOM     11  C   UNL     1      47.464   1.770   5.991  0.00  0.00    +0.000 A 
ATOM     12  N   UNL     1      47.118   3.059   5.799  0.00  0.00    +0.000 NA
ATOM     13  C   UNL     1      46.396   3.653   6.784  0.00  0.00    +0.000 A 
ENDBRANCH   6   8
ENDBRANCH   1   2
BRANCH   1  14
ATOM     14  C   UNL     1      45.321   6.966  12.291  0.00  0.00    +0.000 C 
BRANCH  14  17
ATOM     15  C   UNL     1      48.458   6.596  14.454  0.00  0.00    +0.000 A 
ATOM     16  C   UNL     1      47.535   7.127  13.547  0.00  0.00    +0.000 A 
ATOM     17  C   UNL     1      46.358   6.423  13.253  0.00  0.00    +0.000 A 
ATOM     18  C   UNL     1      46.171   5.177  13.854  0.00  0.00    +0.000 A 
ATOM     19  C   UNL     1      47.132   4.709  14.733  0.00  0.00    +0.000 A 
ATOM     20  N   UNL     1      48.258   5.383  15.047  0.00  0.00    +0.000 NA
BRANCH  15  22
ATOM     21  F   UNL     1      49.456   8.523  15.525  0.00  0.00    +0.000 F 
ATOM     22  C   UNL     1      49.713   7.386  14.809  0.00  0.00    +0.000 C 
ATOM     23  F   UNL     1      50.411   7.803  13.713  0.00  0.00    +0.000 F 
ATOM     24  F   UNL     1      50.596   6.676  15.569  0.00  0.00    +0.000 F 
ENDBRANCH  15  22
ENDBRANCH  14  17
ENDBRANCH   1  14
TORSDOF 5
ENDMDL
