MODEL 1
REMARK VINA RESULT:    -8.010      0.000      0.000
REMARK INTER + INTRA:         -11.968
REMARK INTER:                 -10.820
REMARK INTRA:                  -1.148
REMARK UNBOUND:                -1.148
REMARK  Name = 
REMARK  6 active torsions:
REMARK  status: ('A' for Active; 'I' for Inactive)
REMARK    1  A    between atoms: C_2  and  C_20
REMARK    2  A    between atoms: N_3  and  C_4
REMARK    3  A    between atoms: C_4  and  C_5
REMARK    4  A    between atoms: C_8  and  C_9
REMARK    5  A    between atoms: C_9  and  N_10
REMARK    6  A    between atoms: C_11  and  C_13
REMARK                            x       y       z     vdW  Elec       q    Type
REMARK                         _______ _______ _______ _____ _____    ______ ____
ROOT
ATOM      1  C   UNL     1      44.238   6.303  12.405  0.00  0.00    +0.000 C 
ATOM      2  C   UNL     1      43.470   6.224  11.078  0.00  0.00    +0.000 C 
ATOM      3  C   UNL     1      43.802   4.968  10.277  0.00  0.00    +0.000 C 
ATOM      4  C   UNL     1      43.601   3.677  11.091  0.00  0.00    +0.000 C 
ATOM      5  C   UNL     1      44.284   3.757  12.468  0.00  0.00    +0.000 C 
ATOM      6  C   UNL     1      43.953   5.040  13.227  0.00  0.00    +0.000 C 
ENDROOT
BRANCH   1   7
ATOM      7  C   UNL     1      45.752   6.521  12.214  0.00  0.00    +0.000 C 
BRANCH   7  10
ATOM      8  O   UNL     1      48.566   6.514  12.621  0.00  0.00    +0.000 OA
ATOM      9  C   UNL     1      47.814   6.431  13.586  0.00  0.00    +0.000 C 
ATOM     10  N   UNL     1      46.446   6.511  13.482  0.00  0.00    +0.000 N 
ATOM     11  H   UNL     1      45.898   6.195  14.272  0.00  0.00    +0.000 HD
BRANCH   9  12
ATOM     12  C   UNL     1      48.326   6.314  14.958  0.00  0.00    +0.000 A 
ATOM     13  C   UNL     1      49.149   7.295  15.491  0.00  0.00    +0.000 A 
ATOM     14  S   UNL     1      49.551   7.025  17.130  0.00  0.00    +0.000 S 
ATOM     15  C   UNL     1      48.680   5.559  17.161  0.00  0.00    +0.000 A 
ATOM     16  N   UNL     1      48.601   4.807  18.293  0.00  0.00    +0.000 NA
ATOM     17  C   UNL     1      47.933   3.710  18.157  0.00  0.00    +0.000 A 
ATOM     18  N   UNL     1      47.348   3.288  16.992  0.00  0.00    +0.000 N 
ATOM     19  C   UNL     1      47.386   4.024  15.833  0.00  0.00    +0.000 A 
ATOM     20  O   UNL     1      46.818   3.639  14.817  0.00  0.00    +0.000 OA
ATOM     21  C   UNL     1      48.107   5.278  15.937  0.00  0.00    +0.000 A 
ATOM     22  H   UNL     1      46.841   2.419  16.951  0.00  0.00    +0.000 HD
ENDBRANCH   9  12
ENDBRANCH   7  10
ENDBRANCH   1   7
BRANCH   4  23
ATOM     23  C   UNL     1      44.135   2.449  10.331  0.00  0.00    +0.000 C 
BRANCH  23  24
ATOM     24  N   UNL     1      45.136   2.775   9.342  0.00  0.00    +0.000 N 
ATOM     25  C   UNL     1      45.738   1.837   8.535  0.00  0.00    +0.000 C 
ATOM     26  O   UNL     1      45.524   0.632   8.614  0.00  0.00    +0.000 OA
ATOM     27  H   UNL     1      45.339   3.745   9.108  0.00  0.00    +0.000 HD
BRANCH  25  28
ATOM     28  C   UNL     1      46.772   2.422   7.566  0.00  0.00    +0.000 C 
ATOM     29  C   UNL     1      46.138   3.257   6.470  0.00  0.00    +0.000 C 
ATOM     30  C   UNL     1      47.228   3.309   5.416  0.00  0.00    +0.000 C 
ATOM     31  C   UNL     1      48.011   2.015   5.601  0.00  0.00    +0.000 C 
ATOM     32  N   UNL     1      47.447   1.354   6.782  0.00  0.00    +0.000 NA
ATOM     33  H   UNL     1      48.189   0.937   7.346  0.00  0.00    +0.000 HD
ENDBRANCH  25  28
ENDBRANCH  23  24
ENDBRANCH   4  23
TORSDOF 6
ENDMDL
MODEL 2
REMARK VINA RESULT:    -7.518      2.807      4.435
REMARK INTER + INTRA:         -11.303
REMARK INTER:                 -10.531
REMARK INTRA:                  -0.773
REMARK UNBOUND:                -1.148
REMARK  Name = 
REMARK  6 active torsions:
REMARK  status: ('A' for Active; 'I' for Inactive)
REMARK    1  A    between atoms: C_2  and  C_20
REMARK    2  A    between atoms: N_3  and  C_4
REMARK    3  A    between atoms: C_4  and  C_5
REMARK    4  A    between atoms: C_8  and  C_9
REMARK    5  A    between atoms: C_9  and  N_10
REMARK    6  A    between atoms: C_11  and  C_13
REMARK                            x       y       z     vdW  Elec       q    Type
REMARK                         _______ _______ _______ _____ _____    ______ ____
ROOT
ATOM      1  C   UNL     1      48.687   7.525  14.042  0.00  0.00    +0.000 C 
ATOM      2  C   UNL     1      48.735   6.867  12.655  0.00  0.00    +0.000 C 
ATOM      3  C   UNL     1      47.347   6.565  12.097  0.00  0.00    +0.000 C 
ATOM      4  C   UNL     1      46.436   7.806  12.073  0.00  0.00    +0.000 C 
ATOM      5  C   UNL     1      46.436   8.541  13.425  0.00  0.00    +0.000 C 
ATOM      6  C   UNL     1      47.840   8.800  13.966  0.00  0.00    +0.000 C 
ENDROOT
BRANCH   1   7
ATOM      7  C   UNL     1      48.177   6.574  15.143  0.00  0.00    +0.000 C 
BRANCH   7  10
ATOM      8  O   UNL     1      48.021   4.861  17.407  0.00  0.00    +0.000 OA
ATOM      9  C   UNL     1      49.117   5.137  16.931  0.00  0.00    +0.000 C 
ATOM     10  N   UNL     1      49.273   5.888  15.791  0.00  0.00    +0.000 N 
ATOM     11  H   UNL     1      50.192   6.270  15.604  0.00  0.00    +0.000 HD
BRANCH   9  12
ATOM     12  C   UNL     1      50.364   4.617  17.507  0.00  0.00    +0.000 A 
ATOM     13  C   UNL     1      51.226   5.453  18.200  0.00  0.00    +0.000 A 
ATOM     14  S   UNL     1      52.564   4.636  18.878  0.00  0.00    +0.000 S 
ATOM     15  C   UNL     1      52.062   3.146  18.218  0.00  0.00    +0.000 A 
ATOM     16  N   UNL     1      52.769   2.003  18.431  0.00  0.00    +0.000 NA
ATOM     17  C   UNL     1      52.283   0.959  17.845  0.00  0.00    +0.000 A 
ATOM     18  N   UNL     1      51.165   0.955  17.054  0.00  0.00    +0.000 N 
ATOM     19  C   UNL     1      50.410   2.081  16.828  0.00  0.00    +0.000 A 
ATOM     20  O   UNL     1      49.391   2.036  16.148  0.00  0.00    +0.000 OA
ATOM     21  C   UNL     1      50.901   3.278  17.482  0.00  0.00    +0.000 A 
ATOM     22  H   UNL     1      50.837   0.107  16.622  0.00  0.00    +0.000 HD
ENDBRANCH   9  12
ENDBRANCH   7  10
ENDBRANCH   1   7
BRANCH   4  23
ATOM     23  C   UNL     1      44.990   7.429  11.700  0.00  0.00    +0.000 C 
BRANCH  23  24
ATOM     24  N   UNL     1      44.906   6.408  10.682  0.00  0.00    +0.000 N 
ATOM     25  C   UNL     1      44.281   5.197  10.873  0.00  0.00    +0.000 C 
ATOM     26  O   UNL     1      43.783   4.848  11.939  0.00  0.00    +0.000 OA
ATOM     27  H   UNL     1      45.194   6.603   9.725  0.00  0.00    +0.000 HD
BRANCH  25  28
ATOM     28  C   UNL     1      44.324   4.275   9.649  0.00  0.00    +0.000 C 
ATOM     29  C   UNL     1      44.867   2.897   9.975  0.00  0.00    +0.000 C 
ATOM     30  C   UNL     1      45.264   2.362   8.612  0.00  0.00    +0.000 C 
ATOM     31  C   UNL     1      45.617   3.599   7.795  0.00  0.00    +0.000 C 
ATOM     32  N   UNL     1      45.306   4.757   8.640  0.00  0.00    +0.000 NA
ATOM     33  H   UNL     1      44.882   5.500   8.084  0.00  0.00    +0.000 HD
ENDBRANCH  25  28
ENDBRANCH  23  24
ENDBRANCH   4  23
TORSDOF 6
ENDMDL
MODEL 3
REMARK VINA RESULT:    -7.482      4.576      9.128
REMARK INTER + INTRA:         -11.255
REMARK INTER:                 -10.352
REMARK INTRA:                  -0.902
REMARK UNBOUND:                -1.148
REMARK  Name = 
REMARK  6 active torsions:
REMARK  status: ('A' for Active; 'I' for Inactive)
REMARK    1  A    between atoms: C_2  and  C_20
REMARK    2  A    between atoms: N_3  and  C_4
REMARK    3  A    between atoms: C_4  and  C_5
REMARK    4  A    between atoms: C_8  and  C_9
REMARK    5  A    between atoms: C_9  and  N_10
REMARK    6  A    between atoms: C_11  and  C_13
REMARK                            x       y       z     vdW  Elec       q    Type
REMARK                         _______ _______ _______ _____ _____    ______ ____
ROOT
ATOM      1  C   UNL     1      47.853   4.284  17.279  0.00  0.00    +0.000 C 
ATOM      2  C   UNL     1      47.858   2.818  16.824  0.00  0.00    +0.000 C 
ATOM      3  C   UNL     1      49.263   2.290  16.547  0.00  0.00    +0.000 C 
ATOM      4  C   UNL     1      50.214   2.485  17.741  0.00  0.00    +0.000 C 
ATOM      5  C   UNL     1      50.167   3.925  18.281  0.00  0.00    +0.000 C 
ATOM      6  C   UNL     1      48.745   4.429  18.518  0.00  0.00    +0.000 C 
ENDROOT
BRANCH   1   7
ATOM      7  C   UNL     1      48.272   5.263  16.164  0.00  0.00    +0.000 C 
BRANCH   7  10
ATOM      8  O   UNL     1      48.633   6.097  13.470  0.00  0.00    +0.000 OA
ATOM      9  C   UNL     1      47.505   5.842  13.880  0.00  0.00    +0.000 C 
ATOM     10  N   UNL     1      47.256   5.355  15.140  0.00  0.00    +0.000 N 
ATOM     11  H   UNL     1      46.303   5.402  15.479  0.00  0.00    +0.000 HD
BRANCH   9  12
ATOM     12  C   UNL     1      46.322   5.968  13.018  0.00  0.00    +0.000 A 
ATOM     13  C   UNL     1      45.855   7.217  12.636  0.00  0.00    +0.000 A 
ATOM     14  S   UNL     1      44.536   7.145  11.553  0.00  0.00    +0.000 S 
ATOM     15  C   UNL     1      44.514   5.441  11.603  0.00  0.00    +0.000 A 
ATOM     16  N   UNL     1      43.615   4.723  10.875  0.00  0.00    +0.000 NA
ATOM     17  C   UNL     1      43.699   3.445  11.036  0.00  0.00    +0.000 A 
ATOM     18  N   UNL     1      44.588   2.817  11.869  0.00  0.00    +0.000 N 
ATOM     19  C   UNL     1      45.525   3.501  12.607  0.00  0.00    +0.000 A 
ATOM     20  O   UNL     1      46.334   2.908  13.311  0.00  0.00    +0.000 OA
ATOM     21  C   UNL     1      45.487   4.941  12.444  0.00  0.00    +0.000 A 
ATOM     22  H   UNL     1      44.602   1.814  11.953  0.00  0.00    +0.000 HD
ENDBRANCH   9  12
ENDBRANCH   7  10
ENDBRANCH   1   7
BRANCH   4  23
ATOM     23  C   UNL     1      51.664   2.133  17.363  0.00  0.00    +0.000 C 
BRANCH  23  24
ATOM     24  N   UNL     1      52.193   1.005  18.095  0.00  0.00    +0.000 N 
ATOM     25  C   UNL     1      53.431   0.457  17.852  0.00  0.00    +0.000 C 
ATOM     26  O   UNL     1      54.181   0.836  16.957  0.00  0.00    +0.000 OA
ATOM     27  H   UNL     1      51.716   0.654  18.924  0.00  0.00    +0.000 HD
BRANCH  25  28
ATOM     28  C   UNL     1      53.771  -0.736  18.754  0.00  0.00    +0.000 C 
ATOM     29  C   UNL     1      54.663  -1.751  18.067  0.00  0.00    +0.000 C 
ATOM     30  C   UNL     1      54.466  -2.996  18.911  0.00  0.00    +0.000 C 
ATOM     31  C   UNL     1      53.057  -2.864  19.477  0.00  0.00    +0.000 C 
ATOM     32  N   UNL     1      52.563  -1.550  19.057  0.00  0.00    +0.000 NA
ATOM     33  H   UNL     1      52.038  -1.107  19.813  0.00  0.00    +0.000 HD
ENDBRANCH  25  28
ENDBRANCH  23  24
ENDBRANCH   4  23
TORSDOF 6
ENDMDL
MODEL 4
REMARK VINA RESULT:    -7.410      4.034      9.001
REMARK INTER + INTRA:         -11.157
REMARK INTER:                 -10.057
REMARK INTRA:                  -1.100
REMARK UNBOUND:                -1.148
REMARK  Name = 
REMARK  6 active torsions:
REMARK  status: ('A' for Active; 'I' for Inactive)
REMARK    1  A    between atoms: C_2  and  C_20
REMARK    2  A    between atoms: N_3  and  C_4
REMARK    3  A    between atoms: C_4  and  C_5
REMARK    4  A    between atoms: C_8  and  C_9
REMARK    5  A    between atoms: C_9  and  N_10
REMARK    6  A    between atoms: C_11  and  C_13
REMARK                            x       y       z     vdW  Elec       q    Type
REMARK                         _______ _______ _______ _____ _____    ______ ____
ROOT
ATOM      1  C   UNL     1      47.859   4.876  17.285  0.00  0.00    +0.000 C 
ATOM      2  C   UNL     1      47.389   3.437  17.028  0.00  0.00    +0.000 C 
ATOM      3  C   UNL     1      48.530   2.506  16.628  0.00  0.00    +0.000 C 
ATOM      4  C   UNL     1      49.688   2.520  17.641  0.00  0.00    +0.000 C 
ATOM      5  C   UNL     1      50.125   3.954  17.990  0.00  0.00    +0.000 C 
ATOM      6  C   UNL     1      48.955   4.864  18.356  0.00  0.00    +0.000 C 
ENDROOT
BRANCH   1   7
ATOM      7  C   UNL     1      48.330   5.594  16.004  0.00  0.00    +0.000 C 
BRANCH   7  10
ATOM      8  O   UNL     1      48.637   6.159  13.235  0.00  0.00    +0.000 OA
ATOM      9  C   UNL     1      47.516   5.967  13.693  0.00  0.00    +0.000 C 
ATOM     10  N   UNL     1      47.290   5.607  15.000  0.00  0.00    +0.000 N 
ATOM     11  H   UNL     1      46.347   5.705  15.355  0.00  0.00    +0.000 HD
BRANCH   9  12
ATOM     12  C   UNL     1      46.314   6.033  12.851  0.00  0.00    +0.000 A 
ATOM     13  C   UNL     1      45.830   7.253  12.404  0.00  0.00    +0.000 A 
ATOM     14  S   UNL     1      44.489   7.107  11.355  0.00  0.00    +0.000 S 
ATOM     15  C   UNL     1      44.481   5.409  11.510  0.00  0.00    +0.000 A 
ATOM     16  N   UNL     1      43.573   4.642  10.846  0.00  0.00    +0.000 NA
ATOM     17  C   UNL     1      43.670   3.376  11.083  0.00  0.00    +0.000 A 
ATOM     18  N   UNL     1      44.581   2.806  11.933  0.00  0.00    +0.000 N 
ATOM     19  C   UNL     1      45.527   3.540  12.608  0.00  0.00    +0.000 A 
ATOM     20  O   UNL     1      46.355   2.996  13.330  0.00  0.00    +0.000 OA
ATOM     21  C   UNL     1      45.475   4.967  12.358  0.00  0.00    +0.000 A 
ATOM     22  H   UNL     1      44.604   1.810  12.078  0.00  0.00    +0.000 HD
ENDBRANCH   9  12
ENDBRANCH   7  10
ENDBRANCH   1   7
BRANCH   4  23
ATOM     23  C   UNL     1      50.903   1.735  17.112  0.00  0.00    +0.000 C 
BRANCH  23  24
ATOM     24  N   UNL     1      52.164   2.207  17.634  0.00  0.00    +0.000 N 
ATOM     25  C   UNL     1      53.123   1.375  18.165  0.00  0.00    +0.000 C 
ATOM     26  O   UNL     1      52.979   0.163  18.295  0.00  0.00    +0.000 OA
ATOM     27  H   UNL     1      52.452   3.175  17.503  0.00  0.00    +0.000 HD
BRANCH  25  28
ATOM     28  C   UNL     1      54.377   2.107  18.659  0.00  0.00    +0.000 C 
ATOM     29  C   UNL     1      54.080   3.076  19.787  0.00  0.00    +0.000 C 
ATOM     30  C   UNL     1      55.292   3.989  19.772  0.00  0.00    +0.000 C 
ATOM     31  C   UNL     1      55.765   3.984  18.323  0.00  0.00    +0.000 C 
ATOM     32  N   UNL     1      54.923   3.015  17.615  0.00  0.00    +0.000 NA
ATOM     33  H   UNL     1      55.481   2.473  16.954  0.00  0.00    +0.000 HD
ENDBRANCH  25  28
ENDBRANCH  23  24
ENDBRANCH   4  23
TORSDOF 6
ENDMDL
MODEL 5
REMARK VINA RESULT:    -7.405      2.723      3.444
REMARK INTER + INTRA:         -11.150
REMARK INTER:                 -10.036
REMARK INTRA:                  -1.114
REMARK UNBOUND:                -1.148
REMARK  Name = 
REMARK  6 active torsions:
REMARK  status: ('A' for Active; 'I' for Inactive)
REMARK    1  A    between atoms: C_2  and  C_20
REMARK    2  A    between atoms: N_3  and  C_4
REMARK    3  A    between atoms: C_4  and  C_5
REMARK    4  A    between atoms: C_8  and  C_9
REMARK    5  A    between atoms: C_9  and  N_10
REMARK    6  A    between atoms: C_11  and  C_13
REMARK                            x       y       z     vdW  Elec       q    Type
REMARK                         _______ _______ _______ _____ _____    ______ ____
ROOT
ATOM      1  C   UNL     1      45.256   6.248  12.882  0.00  0.00    +0.000 C 
ATOM      2  C   UNL     1      43.734   6.121  12.722  0.00  0.00    +0.000 C 
ATOM      3  C   UNL     1      43.333   5.022  11.743  0.00  0.00    +0.000 C 
ATOM      4  C   UNL     1      43.951   3.658  12.099  0.00  0.00    +0.000 C 
ATOM      5  C   UNL     1      45.465   3.766  12.354  0.00  0.00    +0.000 C 
ATOM      6  C   UNL     1      45.831   4.895  13.314  0.00  0.00    +0.000 C 
ENDROOT
BRANCH   1   7
ATOM      7  C   UNL     1      45.953   6.777  11.612  0.00  0.00    +0.000 C 
BRANCH   7  10
ATOM      8  O   UNL     1      46.754   9.402  12.355  0.00  0.00    +0.000 OA
ATOM      9  C   UNL     1      47.605   8.536  12.180  0.00  0.00    +0.000 C 
ATOM     10  N   UNL     1      47.296   7.226  11.902  0.00  0.00    +0.000 N 
ATOM     11  H   UNL     1      48.037   6.639  11.536  0.00  0.00    +0.000 HD
BRANCH   9  12
ATOM     12  C   UNL     1      49.039   8.818  12.330  0.00  0.00    +0.000 A 
ATOM     13  C   UNL     1      49.690   9.659  11.442  0.00  0.00    +0.000 A 
ATOM     14  S   UNL     1      51.326   9.939  11.850  0.00  0.00    +0.000 S 
ATOM     15  C   UNL     1      51.227   8.899  13.197  0.00  0.00    +0.000 A 
ATOM     16  N   UNL     1      52.298   8.692  14.011  0.00  0.00    +0.000 NA
ATOM     17  C   UNL     1      52.083   7.858  14.973  0.00  0.00    +0.000 A 
ATOM     18  N   UNL     1      50.901   7.199  15.188  0.00  0.00    +0.000 N 
ATOM     19  C   UNL     1      49.789   7.394  14.404  0.00  0.00    +0.000 A 
ATOM     20  O   UNL     1      48.733   6.821  14.648  0.00  0.00    +0.000 OA
ATOM     21  C   UNL     1      49.972   8.340  13.321  0.00  0.00    +0.000 A 
ATOM     22  H   UNL     1      50.796   6.557  15.957  0.00  0.00    +0.000 HD
ENDBRANCH   9  12
ENDBRANCH   7  10
ENDBRANCH   1   7
BRANCH   4  23
ATOM     23  C   UNL     1      43.697   2.623  10.988  0.00  0.00    +0.000 C 
BRANCH  23  24
ATOM     24  N   UNL     1      44.821   2.447  10.097  0.00  0.00    +0.000 N 
ATOM     25  C   UNL     1      44.999   3.183   8.948  0.00  0.00    +0.000 C 
ATOM     26  O   UNL     1      44.197   4.018   8.542  0.00  0.00    +0.000 OA
ATOM     27  H   UNL     1      45.607   1.856  10.362  0.00  0.00    +0.000 HD
BRANCH  25  28
ATOM     28  C   UNL     1      46.264   2.815   8.164  0.00  0.00    +0.000 C 
ATOM     29  C   UNL     1      46.204   3.263   6.717  0.00  0.00    +0.000 C 
ATOM     30  C   UNL     1      47.268   2.406   6.056  0.00  0.00    +0.000 C 
ATOM     31  C   UNL     1      47.313   1.131   6.889  0.00  0.00    +0.000 C 
ATOM     32  N   UNL     1      46.404   1.340   8.019  0.00  0.00    +0.000 NA
ATOM     33  H   UNL     1      46.803   0.953   8.875  0.00  0.00    +0.000 HD
ENDBRANCH  25  28
ENDBRANCH  23  24
ENDBRANCH   4  23
TORSDOF 6
ENDMDL
MODEL 6
REMARK VINA RESULT:    -7.210      3.906      9.326
REMARK INTER + INTRA:         -10.887
REMARK INTER:                  -9.904
REMARK INTRA:                  -0.983
REMARK UNBOUND:                -1.148
REMARK  Name = 
REMARK  6 active torsions:
REMARK  status: ('A' for Active; 'I' for Inactive)
REMARK    1  A    between atoms: C_2  and  C_20
REMARK    2  A    between atoms: N_3  and  C_4
REMARK    3  A    between atoms: C_4  and  C_5
REMARK    4  A    between atoms: C_8  and  C_9
REMARK    5  A    between atoms: C_9  and  N_10
REMARK    6  A    between atoms: C_11  and  C_13
REMARK                            x       y       z     vdW  Elec       q    Type
REMARK                         _______ _______ _______ _____ _____    ______ ____
ROOT
ATOM      1  C   UNL     1      47.181   4.387  17.372  0.00  0.00    +0.000 C 
ATOM      2  C   UNL     1      47.821   3.115  17.947  0.00  0.00    +0.000 C 
ATOM      3  C   UNL     1      49.202   3.368  18.544  0.00  0.00    +0.000 C 
ATOM      4  C   UNL     1      49.196   4.490  19.597  0.00  0.00    +0.000 C 
ATOM      5  C   UNL     1      48.481   5.752  19.083  0.00  0.00    +0.000 C 
ATOM      6  C   UNL     1      47.116   5.458  18.467  0.00  0.00    +0.000 C 
ENDROOT
BRANCH   1   7
ATOM      7  C   UNL     1      47.904   4.909  16.115  0.00  0.00    +0.000 C 
BRANCH   7  10
ATOM      8  O   UNL     1      48.477   6.030  13.565  0.00  0.00    +0.000 OA
ATOM      9  C   UNL     1      47.325   5.712  13.842  0.00  0.00    +0.000 C 
ATOM     10  N   UNL     1      46.980   5.089  15.017  0.00  0.00    +0.000 N 
ATOM     11  H   UNL     1      46.000   5.081  15.271  0.00  0.00    +0.000 HD
BRANCH   9  12
ATOM     12  C   UNL     1      46.220   5.905  12.893  0.00  0.00    +0.000 A 
ATOM     13  C   UNL     1      45.829   7.180  12.514  0.00  0.00    +0.000 A 
ATOM     14  S   UNL     1      44.599   7.187  11.328  0.00  0.00    +0.000 S 
ATOM     15  C   UNL     1      44.514   5.484  11.325  0.00  0.00    +0.000 A 
ATOM     16  N   UNL     1      43.653   4.820  10.506  0.00  0.00    +0.000 NA
ATOM     17  C   UNL     1      43.680   3.535  10.634  0.00  0.00    +0.000 A 
ATOM     18  N   UNL     1      44.477   2.853  11.515  0.00  0.00    +0.000 N 
ATOM     19  C   UNL     1      45.374   3.481  12.345  0.00  0.00    +0.000 A 
ATOM     20  O   UNL     1      46.104   2.839  13.093  0.00  0.00    +0.000 OA
ATOM     21  C   UNL     1      45.399   4.925  12.224  0.00  0.00    +0.000 A 
ATOM     22  H   UNL     1      44.450   1.848  11.569  0.00  0.00    +0.000 HD
ENDBRANCH   9  12
ENDBRANCH   7  10
ENDBRANCH   1   7
BRANCH   4  23
ATOM     23  C   UNL     1      50.628   4.859  20.028  0.00  0.00    +0.000 C 
BRANCH  23  24
ATOM     24  N   UNL     1      51.645   4.052  19.394  0.00  0.00    +0.000 N 
ATOM     25  C   UNL     1      52.934   3.950  19.866  0.00  0.00    +0.000 C 
ATOM     26  O   UNL     1      53.357   4.574  20.835  0.00  0.00    +0.000 OA
ATOM     27  H   UNL     1      51.406   3.412  18.640  0.00  0.00    +0.000 HD
BRANCH  25  28
ATOM     28  C   UNL     1      53.834   3.039  19.023  0.00  0.00    +0.000 C 
ATOM     29  C   UNL     1      53.084   2.363  17.892  0.00  0.00    +0.000 C 
ATOM     30  C   UNL     1      53.994   1.204  17.532  0.00  0.00    +0.000 C 
ATOM     31  C   UNL     1      54.721   0.862  18.827  0.00  0.00    +0.000 C 
ATOM     32  N   UNL     1      54.313   1.870  19.810  0.00  0.00    +0.000 NA
ATOM     33  H   UNL     1      55.109   2.153  20.384  0.00  0.00    +0.000 HD
ENDBRANCH  25  28
ENDBRANCH  23  24
ENDBRANCH   4  23
TORSDOF 6
ENDMDL
MODEL 7
REMARK VINA RESULT:    -7.066      2.943      8.511
REMARK INTER + INTRA:         -10.693
REMARK INTER:                  -9.607
REMARK INTRA:                  -1.085
REMARK UNBOUND:                -1.148
REMARK  Name = 
REMARK  6 active torsions:
REMARK  status: ('A' for Active; 'I' for Inactive)
REMARK    1  A    between atoms: C_2  and  C_20
REMARK    2  A    between atoms: N_3  and  C_4
REMARK    3  A    between atoms: C_4  and  C_5
REMARK    4  A    between atoms: C_8  and  C_9
REMARK    5  A    between atoms: C_9  and  N_10
REMARK    6  A    between atoms: C_11  and  C_13
REMARK                            x       y       z     vdW  Elec       q    Type
REMARK                         _______ _______ _______ _____ _____    ______ ____
ROOT
ATOM      1  C   UNL     1      48.236   8.334  11.992  0.00  0.00    +0.000 C 
ATOM      2  C   UNL     1      48.817   9.625  12.585  0.00  0.00    +0.000 C 
ATOM      3  C   UNL     1      48.604   9.730  14.092  0.00  0.00    +0.000 C 
ATOM      4  C   UNL     1      49.136   8.502  14.853  0.00  0.00    +0.000 C 
ATOM      5  C   UNL     1      48.643   7.185  14.227  0.00  0.00    +0.000 C 
ATOM      6  C   UNL     1      48.845   7.128  12.715  0.00  0.00    +0.000 C 
ENDROOT
BRANCH   1   7
ATOM      7  C   UNL     1      46.695   8.294  12.029  0.00  0.00    +0.000 C 
BRANCH   7  10
ATOM      8  O   UNL     1      44.060   7.573  11.241  0.00  0.00    +0.000 OA
ATOM      9  C   UNL     1      44.886   6.695  11.466  0.00  0.00    +0.000 C 
ATOM     10  N   UNL     1      46.200   6.960  11.770  0.00  0.00    +0.000 N 
ATOM     11  H   UNL     1      46.746   6.210  12.174  0.00  0.00    +0.000 HD
BRANCH   9  12
ATOM     12  C   UNL     1      44.551   5.269  11.353  0.00  0.00    +0.000 A 
ATOM     13  C   UNL     1      43.853   4.625  12.363  0.00  0.00    +0.000 A 
ATOM     14  S   UNL     1      43.472   3.001  11.994  0.00  0.00    +0.000 S 
ATOM     15  C   UNL     1      44.277   3.093  10.494  0.00  0.00    +0.000 A 
ATOM     16  N   UNL     1      44.323   2.027   9.648  0.00  0.00    +0.000 NA
ATOM     17  C   UNL     1      44.992   2.237   8.563  0.00  0.00    +0.000 A 
ATOM     18  N   UNL     1      45.632   3.407   8.251  0.00  0.00    +0.000 N 
ATOM     19  C   UNL     1      45.595   4.513   9.066  0.00  0.00    +0.000 A 
ATOM     20  O   UNL     1      46.144   5.560   8.739  0.00  0.00    +0.000 OA
ATOM     21  C   UNL     1      44.837   4.338  10.289  0.00  0.00    +0.000 A 
ATOM     22  H   UNL     1      46.140   3.507   7.388  0.00  0.00    +0.000 HD
ENDBRANCH   9  12
ENDBRANCH   7  10
ENDBRANCH   1   7
BRANCH   4  23
ATOM     23  C   UNL     1      48.726   8.543  16.336  0.00  0.00    +0.000 C 
BRANCH  23  24
ATOM     24  N   UNL     1      48.262   7.271  16.840  0.00  0.00    +0.000 N 
ATOM     25  C   UNL     1      48.817   6.639  17.929  0.00  0.00    +0.000 C 
ATOM     26  O   UNL     1      49.790   7.066  18.542  0.00  0.00    +0.000 OA
ATOM     27  H   UNL     1      47.405   6.852  16.484  0.00  0.00    +0.000 HD
BRANCH  25  28
ATOM     28  C   UNL     1      48.159   5.297  18.272  0.00  0.00    +0.000 C 
ATOM     29  C   UNL     1      49.166   4.173  18.419  0.00  0.00    +0.000 C 
ATOM     30  C   UNL     1      48.307   2.932  18.268  0.00  0.00    +0.000 C 
ATOM     31  C   UNL     1      47.153   3.363  17.371  0.00  0.00    +0.000 C 
ATOM     32  N   UNL     1      47.315   4.803  17.150  0.00  0.00    +0.000 NA
ATOM     33  H   UNL     1      46.409   5.273  17.176  0.00  0.00    +0.000 HD
ENDBRANCH  25  28
ENDBRANCH  23  24
ENDBRANCH   4  23
TORSDOF 6
ENDMDL
MODEL 8
REMARK VINA RESULT:    -6.652      3.656      8.122
REMARK INTER + INTRA:         -10.133
REMARK INTER:                  -8.947
REMARK INTRA:                  -1.187
REMARK UNBOUND:                -1.148
REMARK  Name = 
REMARK  6 active torsions:
REMARK  status: ('A' for Active; 'I' for Inactive)
REMARK    1  A    between atoms: C_2  and  C_20
REMARK    2  A    between atoms: N_3  and  C_4
REMARK    3  A    between atoms: C_4  and  C_5
REMARK    4  A    between atoms: C_8  and  C_9
REMARK    5  A    between atoms: C_9  and  N_10
REMARK    6  A    between atoms: C_11  and  C_13
REMARK                            x       y       z     vdW  Elec       q    Type
REMARK                         _______ _______ _______ _____ _____    ______ ____
ROOT
ATOM      1  C   UNL     1      49.838   8.779  12.595  0.00  0.00    +0.000 C 
ATOM      2  C   UNL     1      48.840   9.411  13.576  0.00  0.00    +0.000 C 
ATOM      3  C   UNL     1      48.984   8.870  14.995  0.00  0.00    +0.000 C 
ATOM      4  C   UNL     1      50.420   8.996  15.534  0.00  0.00    +0.000 C 
ATOM      5  C   UNL     1      51.455   8.452  14.534  0.00  0.00    +0.000 C 
ATOM      6  C   UNL     1      51.262   8.992  13.119  0.00  0.00    +0.000 C 
ENDROOT
BRANCH   1   7
ATOM      7  C   UNL     1      49.554   7.288  12.324  0.00  0.00    +0.000 C 
BRANCH   7  10
ATOM      8  O   UNL     1      47.769   5.691  13.856  0.00  0.00    +0.000 OA
ATOM      9  C   UNL     1      47.377   6.210  12.817  0.00  0.00    +0.000 C 
ATOM     10  N   UNL     1      48.150   7.062  12.064  0.00  0.00    +0.000 N 
ATOM     11  H   UNL     1      47.849   7.250  11.116  0.00  0.00    +0.000 HD
BRANCH   9  12
ATOM     12  C   UNL     1      46.005   6.021  12.327  0.00  0.00    +0.000 A 
ATOM     13  C   UNL     1      45.271   7.095  11.847  0.00  0.00    +0.000 A 
ATOM     14  S   UNL     1      43.741   6.650  11.231  0.00  0.00    +0.000 S 
ATOM     15  C   UNL     1      43.991   5.013  11.637  0.00  0.00    +0.000 A 
ATOM     16  N   UNL     1      43.053   4.065  11.364  0.00  0.00    +0.000 NA
ATOM     17  C   UNL     1      43.369   2.875  11.755  0.00  0.00    +0.000 A 
ATOM     18  N   UNL     1      44.529   2.547  12.406  0.00  0.00    +0.000 N 
ATOM     19  C   UNL     1      45.511   3.468  12.683  0.00  0.00    +0.000 A 
ATOM     20  O   UNL     1      46.556   3.135  13.230  0.00  0.00    +0.000 OA
ATOM     21  C   UNL     1      45.215   4.817  12.244  0.00  0.00    +0.000 A 
ATOM     22  H   UNL     1      44.716   1.599  12.688  0.00  0.00    +0.000 HD
ENDBRANCH   9  12
ENDBRANCH   7  10
ENDBRANCH   1   7
BRANCH   4  23
ATOM     23  C   UNL     1      50.579   8.262  16.878  0.00  0.00    +0.000 C 
BRANCH  23  24
ATOM     24  N   UNL     1      49.678   7.143  17.032  0.00  0.00    +0.000 N 
ATOM     25  C   UNL     1      49.884   6.122  17.931  0.00  0.00    +0.000 C 
ATOM     26  O   UNL     1      50.876   6.035  18.648  0.00  0.00    +0.000 OA
ATOM     27  H   UNL     1      48.772   7.137  16.567  0.00  0.00    +0.000 HD
BRANCH  25  28
ATOM     28  C   UNL     1      48.794   5.043  17.909  0.00  0.00    +0.000 C 
ATOM     29  C   UNL     1      49.314   3.699  17.439  0.00  0.00    +0.000 C 
ATOM     30  C   UNL     1      48.044   2.969  17.042  0.00  0.00    +0.000 C 
ATOM     31  C   UNL     1      47.080   4.069  16.614  0.00  0.00    +0.000 C 
ATOM     32  N   UNL     1      47.756   5.342  16.886  0.00  0.00    +0.000 NA
ATOM     33  H   UNL     1      47.096   6.023  17.263  0.00  0.00    +0.000 HD
ENDBRANCH  25  28
ENDBRANCH  23  24
ENDBRANCH   4  23
TORSDOF 6
ENDMDL
MODEL 9
REMARK VINA RESULT:    -6.638      3.397      9.587
REMARK INTER + INTRA:         -10.115
REMARK INTER:                  -9.023
REMARK INTRA:                  -1.092
REMARK UNBOUND:                -1.148
REMARK  Name = 
REMARK  6 active torsions:
REMARK  status: ('A' for Active; 'I' for Inactive)
REMARK    1  A    between atoms: C_2  and  C_20
REMARK    2  A    between atoms: N_3  and  C_4
REMARK    3  A    between atoms: C_4  and  C_5
REMARK    4  A    between atoms: C_8  and  C_9
REMARK    5  A    between atoms: C_9  and  N_10
REMARK    6  A    between atoms: C_11  and  C_13
REMARK                            x       y       z     vdW  Elec       q    Type
REMARK                         _______ _______ _______ _____ _____    ______ ____
ROOT
ATOM      1  C   UNL     1      48.026   3.943  16.816  0.00  0.00    +0.000 C 
ATOM      2  C   UNL     1      49.336   3.295  17.285  0.00  0.00    +0.000 C 
ATOM      3  C   UNL     1      50.117   4.177  18.255  0.00  0.00    +0.000 C 
ATOM      4  C   UNL     1      49.273   4.619  19.464  0.00  0.00    +0.000 C 
ATOM      5  C   UNL     1      47.912   5.193  19.032  0.00  0.00    +0.000 C 
ATOM      6  C   UNL     1      47.173   4.298  18.039  0.00  0.00    +0.000 C 
ENDROOT
BRANCH   1   7
ATOM      7  C   UNL     1      48.252   5.171  15.911  0.00  0.00    +0.000 C 
BRANCH   7  10
ATOM      8  O   UNL     1      48.551   6.077  13.232  0.00  0.00    +0.000 OA
ATOM      9  C   UNL     1      47.433   5.803  13.658  0.00  0.00    +0.000 C 
ATOM     10  N   UNL     1      47.214   5.281  14.910  0.00  0.00    +0.000 N 
ATOM     11  H   UNL     1      46.268   5.311  15.269  0.00  0.00    +0.000 HD
BRANCH   9  12
ATOM     12  C   UNL     1      46.232   5.941  12.824  0.00  0.00    +0.000 A 
ATOM     13  C   UNL     1      45.774   7.194  12.446  0.00  0.00    +0.000 A 
ATOM     14  S   UNL     1      44.429   7.135  11.395  0.00  0.00    +0.000 S 
ATOM     15  C   UNL     1      44.383   5.432  11.456  0.00  0.00    +0.000 A 
ATOM     16  N   UNL     1      43.458   4.723  10.753  0.00  0.00    +0.000 NA
ATOM     17  C   UNL     1      43.527   3.445  10.920  0.00  0.00    +0.000 A 
ATOM     18  N   UNL     1      44.427   2.809  11.735  0.00  0.00    +0.000 N 
ATOM     19  C   UNL     1      45.390   3.483  12.446  0.00  0.00    +0.000 A 
ATOM     20  O   UNL     1      46.207   2.882  13.134  0.00  0.00    +0.000 OA
ATOM     21  C   UNL     1      45.369   4.923  12.276  0.00  0.00    +0.000 A 
ATOM     22  H   UNL     1      44.428   1.806  11.824  0.00  0.00    +0.000 HD
ENDBRANCH   9  12
ENDBRANCH   7  10
ENDBRANCH   1   7
BRANCH   4  23
ATOM     23  C   UNL     1      50.018   5.666  20.312  0.00  0.00    +0.000 C 
BRANCH  23  24
ATOM     24  N   UNL     1      49.328   6.932  20.399  0.00  0.00    +0.000 N 
ATOM     25  C   UNL     1      49.740   8.067  19.739  0.00  0.00    +0.000 C 
ATOM     26  O   UNL     1      50.759   8.127  19.058  0.00  0.00    +0.000 OA
ATOM     27  H   UNL     1      48.418   6.998  20.853  0.00  0.00    +0.000 HD
BRANCH  25  28
ATOM     28  C   UNL     1      48.849   9.290  19.989  0.00  0.00    +0.000 C 
ATOM     29  C   UNL     1      47.408   8.913  20.274  0.00  0.00    +0.000 C 
ATOM     30  C   UNL     1      46.665  10.209  20.006  0.00  0.00    +0.000 C 
ATOM     31  C   UNL     1      47.504  10.931  18.959  0.00  0.00    +0.000 C 
ATOM     32  N   UNL     1      48.709  10.120  18.762  0.00  0.00    +0.000 NA
ATOM     33  H   UNL     1      49.530  10.718  18.663  0.00  0.00    +0.000 HD
ENDBRANCH  25  28
ENDBRANCH  23  24
ENDBRANCH   4  23
TORSDOF 6
ENDMDL
