MODEL 1
REMARK VINA RESULT:    -8.073      0.000      0.000
REMARK INTER + INTRA:         -11.292
REMARK INTER:                 -10.668
REMARK INTRA:                  -0.624
REMARK UNBOUND:                -0.624
REMARK  Name = 
REMARK  7 active torsions:
REMARK  status: ('A' for Active; 'I' for Inactive)
REMARK    1  A    between atoms: C_1  and  C_2
REMARK    2  A    between atoms: C_2  and  O_3
REMARK    3  A    between atoms: C_8  and  C_9
REMARK    4  A    between atoms: C_9  and  C_10
REMARK    5  A    between atoms: C_10  and  O_11
REMARK    6  A    between atoms: O_11  and  C_12
REMARK    7  A    between atoms: C_15  and  C_16
REMARK                            x       y       z     vdW  Elec       q    Type
REMARK                         _______ _______ _______ _____ _____    ______ ____
ROOT
ATOM      1  C   UNL     1      48.854   9.522  13.032  0.00  0.00    +0.000 C 
ATOM      2  C   UNL     1      49.730   8.281  13.233  0.00  0.00    +0.000 C 
ATOM      3  C   UNL     1      49.160   7.002  12.564  0.00  0.00    +0.000 C 
ATOM      4  N   UNL     1      48.076   6.360  13.316  0.00  0.00    +0.000 N 
ATOM      5  C   UNL     1      46.782   6.461  12.831  0.00  0.00    +0.000 A 
ATOM      6  C   UNL     1      45.862   5.459  13.134  0.00  0.00    +0.000 A 
ATOM      7  C   UNL     1      44.568   5.490  12.605  0.00  0.00    +0.000 A 
ATOM      8  C   UNL     1      44.220   6.567  11.794  0.00  0.00    +0.000 A 
ATOM      9  C   UNL     1      45.185   7.527  11.535  0.00  0.00    +0.000 A 
ATOM     10  N   UNL     1      46.447   7.488  12.024  0.00  0.00    +0.000 NA
ATOM     11  C   UNL     1      48.292   6.274  14.764  0.00  0.00    +0.000 C 
ATOM     12  C   UNL     1      48.830   7.594  15.338  0.00  0.00    +0.000 C 
ATOM     13  O   UNL     1      49.976   8.085  14.634  0.00  0.00    +0.000 OA
ENDROOT
BRANCH   2  14
ATOM     14  O   UNL     1      51.005   8.533  12.623  0.00  0.00    +0.000 OA
ATOM     15  H   UNL     1      51.665   7.981  13.070  0.00  0.00    +0.000 HD
ENDBRANCH   2  14
BRANCH   7  16
ATOM     16  C   UNL     1      43.573   4.414  12.954  0.00  0.00    +0.000 C 
BRANCH  16  17
ATOM     17  C   UNL     1      43.748   3.209  12.032  0.00  0.00    +0.000 C 
BRANCH  17  18
ATOM     18  O   UNL     1      43.274   3.517  10.716  0.00  0.00    +0.000 OA
BRANCH  18  19
ATOM     19  C   UNL     1      44.186   3.324   9.721  0.00  0.00    +0.000 A 
ATOM     20  C   UNL     1      44.689   4.267   8.850  0.00  0.00    +0.000 A 
ATOM     21  N   UNL     1      45.599   4.008   7.888  0.00  0.00    +0.000 NA
ATOM     22  C   UNL     1      46.040   2.731   7.777  0.00  0.00    +0.000 A 
ATOM     23  N   UNL     1      45.604   1.729   8.584  0.00  0.00    +0.000 NA
ATOM     24  C   UNL     1      44.692   2.054   9.532  0.00  0.00    +0.000 A 
BRANCH  22  25
ATOM     25  C   UNL     1      47.081   2.413   6.695  0.00  0.00    +0.000 C 
ATOM     26  F   UNL     1      46.728   2.851   5.447  0.00  0.00    +0.000 F 
ATOM     27  F   UNL     1      48.302   2.981   6.939  0.00  0.00    +0.000 F 
ATOM     28  F   UNL     1      47.318   1.075   6.551  0.00  0.00    +0.000 F 
ENDBRANCH  22  25
ENDBRANCH  18  19
ENDBRANCH  17  18
ENDBRANCH  16  17
ENDBRANCH   7  16
TORSDOF 6
ENDMDL
MODEL 2
REMARK VINA RESULT:    -7.900      2.224      3.247
REMARK INTER + INTRA:         -11.064
REMARK INTER:                 -10.650
REMARK INTRA:                  -0.415
REMARK UNBOUND:                -0.624
REMARK  Name = 
REMARK  7 active torsions:
REMARK  status: ('A' for Active; 'I' for Inactive)
REMARK    1  A    between atoms: C_1  and  C_2
REMARK    2  A    between atoms: C_2  and  O_3
REMARK    3  A    between atoms: C_8  and  C_9
REMARK    4  A    between atoms: C_9  and  C_10
REMARK    5  A    between atoms: C_10  and  O_11
REMARK    6  A    between atoms: O_11  and  C_12
REMARK    7  A    between atoms: C_15  and  C_16
REMARK                            x       y       z     vdW  Elec       q    Type
REMARK                         _______ _______ _______ _____ _____    ______ ____
ROOT
ATOM      1  C   UNL     1      49.288   7.475  17.576  0.00  0.00    +0.000 C 
ATOM      2  C   UNL     1      49.506   6.047  18.089  0.00  0.00    +0.000 C 
ATOM      3  C   UNL     1      49.466   4.972  16.972  0.00  0.00    +0.000 C 
ATOM      4  N   UNL     1      48.115   4.608  16.533  0.00  0.00    +0.000 N 
ATOM      5  C   UNL     1      47.681   5.044  15.292  0.00  0.00    +0.000 A 
ATOM      6  C   UNL     1      46.721   4.302  14.606  0.00  0.00    +0.000 A 
ATOM      7  C   UNL     1      46.310   4.673  13.322  0.00  0.00    +0.000 A 
ATOM      8  C   UNL     1      46.866   5.822  12.765  0.00  0.00    +0.000 A 
ATOM      9  C   UNL     1      47.815   6.511  13.504  0.00  0.00    +0.000 A 
ATOM     10  N   UNL     1      48.235   6.142  14.736  0.00  0.00    +0.000 NA
ATOM     11  C   UNL     1      47.137   4.435  17.612  0.00  0.00    +0.000 C 
ATOM     12  C   UNL     1      47.234   5.561  18.652  0.00  0.00    +0.000 C 
ATOM     13  O   UNL     1      48.567   5.762  19.137  0.00  0.00    +0.000 OA
ENDROOT
BRANCH   2  14
ATOM     14  O   UNL     1      50.813   5.982  18.680  0.00  0.00    +0.000 OA
ATOM     15  H   UNL     1      50.732   5.540  19.539  0.00  0.00    +0.000 HD
ENDBRANCH   2  14
BRANCH   7  16
ATOM     16  C   UNL     1      45.258   3.876  12.596  0.00  0.00    +0.000 C 
BRANCH  16  17
ATOM     17  C   UNL     1      44.454   4.781  11.665  0.00  0.00    +0.000 C 
BRANCH  17  18
ATOM     18  O   UNL     1      43.799   4.001  10.657  0.00  0.00    +0.000 OA
BRANCH  18  19
ATOM     19  C   UNL     1      44.620   3.534   9.673  0.00  0.00    +0.000 A 
ATOM     20  C   UNL     1      44.953   2.222   9.412  0.00  0.00    +0.000 A 
ATOM     21  N   UNL     1      45.770   1.827   8.413  0.00  0.00    +0.000 NA
ATOM     22  C   UNL     1      46.295   2.793   7.621  0.00  0.00    +0.000 A 
ATOM     23  N   UNL     1      46.032   4.114   7.797  0.00  0.00    +0.000 NA
ATOM     24  C   UNL     1      45.202   4.446   8.816  0.00  0.00    +0.000 A 
BRANCH  22  25
ATOM     25  C   UNL     1      47.221   2.367   6.473  0.00  0.00    +0.000 C 
ATOM     26  F   UNL     1      47.180   1.026   6.201  0.00  0.00    +0.000 F 
ATOM     27  F   UNL     1      46.925   2.981   5.287  0.00  0.00    +0.000 F 
ATOM     28  F   UNL     1      48.538   2.643   6.713  0.00  0.00    +0.000 F 
ENDBRANCH  22  25
ENDBRANCH  18  19
ENDBRANCH  17  18
ENDBRANCH  16  17
ENDBRANCH   7  16
TORSDOF 6
ENDMDL
MODEL 3
REMARK VINA RESULT:    -7.536      1.211      2.482
REMARK INTER + INTRA:         -10.583
REMARK INTER:                  -9.991
REMARK INTRA:                  -0.591
REMARK UNBOUND:                -0.624
REMARK  Name = 
REMARK  7 active torsions:
REMARK  status: ('A' for Active; 'I' for Inactive)
REMARK    1  A    between atoms: C_1  and  C_2
REMARK    2  A    between atoms: C_2  and  O_3
REMARK    3  A    between atoms: C_8  and  C_9
REMARK    4  A    between atoms: C_9  and  C_10
REMARK    5  A    between atoms: C_10  and  O_11
REMARK    6  A    between atoms: O_11  and  C_12
REMARK    7  A    between atoms: C_15  and  C_16
REMARK                            x       y       z     vdW  Elec       q    Type
REMARK                         _______ _______ _______ _____ _____    ______ ____
ROOT
ATOM      1  C   UNL     1      51.093   7.921  14.415  0.00  0.00    +0.000 C 
ATOM      2  C   UNL     1      50.347   8.978  13.594  0.00  0.00    +0.000 C 
ATOM      3  C   UNL     1      48.803   8.849  13.668  0.00  0.00    +0.000 C 
ATOM      4  N   UNL     1      48.245   7.793  12.815  0.00  0.00    +0.000 N 
ATOM      5  C   UNL     1      47.766   6.640  13.415  0.00  0.00    +0.000 A 
ATOM      6  C   UNL     1      46.759   5.912  12.783  0.00  0.00    +0.000 A 
ATOM      7  C   UNL     1      46.202   4.782  13.392  0.00  0.00    +0.000 A 
ATOM      8  C   UNL     1      46.706   4.392  14.630  0.00  0.00    +0.000 A 
ATOM      9  C   UNL     1      47.707   5.163  15.199  0.00  0.00    +0.000 A 
ATOM     10  N   UNL     1      48.232   6.272  14.626  0.00  0.00    +0.000 NA
ATOM     11  C   UNL     1      48.823   7.712  11.470  0.00  0.00    +0.000 C 
ATOM     12  C   UNL     1      50.355   7.822  11.502  0.00  0.00    +0.000 C 
ATOM     13  O   UNL     1      50.819   8.960  12.239  0.00  0.00    +0.000 OA
ENDROOT
BRANCH   2  14
ATOM     14  O   UNL     1      50.679  10.270  14.127  0.00  0.00    +0.000 OA
ATOM     15  H   UNL     1      50.644  10.213  15.094  0.00  0.00    +0.000 HD
ENDBRANCH   2  14
BRANCH   7  16
ATOM     16  C   UNL     1      45.128   3.990  12.693  0.00  0.00    +0.000 C 
BRANCH  16  17
ATOM     17  C   UNL     1      44.318   4.893  11.766  0.00  0.00    +0.000 C 
BRANCH  17  18
ATOM     18  O   UNL     1      43.663   4.112  10.759  0.00  0.00    +0.000 OA
BRANCH  18  19
ATOM     19  C   UNL     1      44.484   3.641   9.777  0.00  0.00    +0.000 A 
ATOM     20  C   UNL     1      44.738   2.324   9.457  0.00  0.00    +0.000 A 
ATOM     21  N   UNL     1      45.560   1.926   8.463  0.00  0.00    +0.000 NA
ATOM     22  C   UNL     1      46.174   2.893   7.740  0.00  0.00    +0.000 A 
ATOM     23  N   UNL     1      45.993   4.218   7.978  0.00  0.00    +0.000 NA
ATOM     24  C   UNL     1      45.153   4.553   8.987  0.00  0.00    +0.000 A 
BRANCH  22  25
ATOM     25  C   UNL     1      47.108   2.464   6.599  0.00  0.00    +0.000 C 
ATOM     26  F   UNL     1      48.407   2.859   6.774  0.00  0.00    +0.000 F 
ATOM     27  F   UNL     1      47.166   1.108   6.433  0.00  0.00    +0.000 F 
ATOM     28  F   UNL     1      46.741   2.970   5.384  0.00  0.00    +0.000 F 
ENDBRANCH  22  25
ENDBRANCH  18  19
ENDBRANCH  17  18
ENDBRANCH  16  17
ENDBRANCH   7  16
TORSDOF 6
ENDMDL
MODEL 4
REMARK VINA RESULT:    -7.235      1.582      2.783
REMARK INTER + INTRA:         -10.185
REMARK INTER:                  -9.802
REMARK INTRA:                  -0.382
REMARK UNBOUND:                -0.624
REMARK  Name = 
REMARK  7 active torsions:
REMARK  status: ('A' for Active; 'I' for Inactive)
REMARK    1  A    between atoms: C_1  and  C_2
REMARK    2  A    between atoms: C_2  and  O_3
REMARK    3  A    between atoms: C_8  and  C_9
REMARK    4  A    between atoms: C_9  and  C_10
REMARK    5  A    between atoms: C_10  and  O_11
REMARK    6  A    between atoms: O_11  and  C_12
REMARK    7  A    between atoms: C_15  and  C_16
REMARK                            x       y       z     vdW  Elec       q    Type
REMARK                         _______ _______ _______ _____ _____    ______ ____
ROOT
ATOM      1  C   UNL     1      50.787   5.986  16.717  0.00  0.00    +0.000 C 
ATOM      2  C   UNL     1      50.459   7.482  16.681  0.00  0.00    +0.000 C 
ATOM      3  C   UNL     1      48.988   7.787  16.293  0.00  0.00    +0.000 C 
ATOM      4  N   UNL     1      48.712   7.692  14.855  0.00  0.00    +0.000 N 
ATOM      5  C   UNL     1      47.976   6.614  14.391  0.00  0.00    +0.000 A 
ATOM      6  C   UNL     1      47.223   6.754  13.227  0.00  0.00    +0.000 A 
ATOM      7  C   UNL     1      46.413   5.711  12.767  0.00  0.00    +0.000 A 
ATOM      8  C   UNL     1      46.407   4.521  13.490  0.00  0.00    +0.000 A 
ATOM      9  C   UNL     1      47.181   4.452  14.638  0.00  0.00    +0.000 A 
ATOM     10  N   UNL     1      47.946   5.468  15.102  0.00  0.00    +0.000 NA
ATOM     11  C   UNL     1      49.732   8.287  13.987  0.00  0.00    +0.000 C 
ATOM     12  C   UNL     1      51.152   7.907  14.433  0.00  0.00    +0.000 C 
ATOM     13  O   UNL     1      51.389   8.160  15.823  0.00  0.00    +0.000 OA
ENDROOT
BRANCH   2  14
ATOM     14  O   UNL     1      50.656   8.012  18.001  0.00  0.00    +0.000 OA
ATOM     15  H   UNL     1      51.423   8.606  17.974  0.00  0.00    +0.000 HD
ENDBRANCH   2  14
BRANCH   7  16
ATOM     16  C   UNL     1      45.618   5.864  11.496  0.00  0.00    +0.000 C 
BRANCH  16  17
ATOM     17  C   UNL     1      44.378   4.973  11.534  0.00  0.00    +0.000 C 
BRANCH  17  18
ATOM     18  O   UNL     1      43.882   4.756  10.208  0.00  0.00    +0.000 OA
BRANCH  18  19
ATOM     19  C   UNL     1      44.664   3.956   9.429  0.00  0.00    +0.000 A 
ATOM     20  C   UNL     1      45.426   4.332   8.343  0.00  0.00    +0.000 A 
ATOM     21  N   UNL     1      46.187   3.486   7.616  0.00  0.00    +0.000 NA
ATOM     22  C   UNL     1      46.193   2.183   7.986  0.00  0.00    +0.000 A 
ATOM     23  N   UNL     1      45.475   1.712   9.038  0.00  0.00    +0.000 NA
ATOM     24  C   UNL     1      44.733   2.611   9.729  0.00  0.00    +0.000 A 
BRANCH  22  25
ATOM     25  C   UNL     1      47.057   1.203   7.179  0.00  0.00    +0.000 C 
ATOM     26  F   UNL     1      48.399   1.465   7.251  0.00  0.00    +0.000 F 
ATOM     27  F   UNL     1      46.924  -0.095   7.589  0.00  0.00    +0.000 F 
ATOM     28  F   UNL     1      46.765   1.200   5.844  0.00  0.00    +0.000 F 
ENDBRANCH  22  25
ENDBRANCH  18  19
ENDBRANCH  17  18
ENDBRANCH  16  17
ENDBRANCH   7  16
TORSDOF 6
ENDMDL
MODEL 5
REMARK VINA RESULT:    -6.685      2.610      3.837
REMARK INTER + INTRA:          -9.458
REMARK INTER:                  -8.988
REMARK INTRA:                  -0.470
REMARK UNBOUND:                -0.624
REMARK  Name = 
REMARK  7 active torsions:
REMARK  status: ('A' for Active; 'I' for Inactive)
REMARK    1  A    between atoms: C_1  and  C_2
REMARK    2  A    between atoms: C_2  and  O_3
REMARK    3  A    between atoms: C_8  and  C_9
REMARK    4  A    between atoms: C_9  and  C_10
REMARK    5  A    between atoms: C_10  and  O_11
REMARK    6  A    between atoms: O_11  and  C_12
REMARK    7  A    between atoms: C_15  and  C_16
REMARK                            x       y       z     vdW  Elec       q    Type
REMARK                         _______ _______ _______ _____ _____    ______ ____
ROOT
ATOM      1  C   UNL     1      50.664   3.436  17.725  0.00  0.00    +0.000 C 
ATOM      2  C   UNL     1      50.094   4.665  18.442  0.00  0.00    +0.000 C 
ATOM      3  C   UNL     1      48.621   4.976  18.069  0.00  0.00    +0.000 C 
ATOM      4  N   UNL     1      48.455   5.652  16.778  0.00  0.00    +0.000 N 
ATOM      5  C   UNL     1      47.939   4.931  15.714  0.00  0.00    +0.000 A 
ATOM      6  C   UNL     1      47.247   5.604  14.708  0.00  0.00    +0.000 A 
ATOM      7  C   UNL     1      46.651   4.902  13.655  0.00  0.00    +0.000 A 
ATOM      8  C   UNL     1      46.798   3.517  13.627  0.00  0.00    +0.000 A 
ATOM      9  C   UNL     1      47.499   2.915  14.660  0.00  0.00    +0.000 A 
ATOM     10  N   UNL     1      48.055   3.587  15.695  0.00  0.00    +0.000 NA
ATOM     11  C   UNL     1      49.415   6.728  16.514  0.00  0.00    +0.000 C 
ATOM     12  C   UNL     1      50.847   6.318  16.888  0.00  0.00    +0.000 C 
ATOM     13  O   UNL     1      50.951   5.795  18.217  0.00  0.00    +0.000 OA
ENDROOT
BRANCH   2  14
ATOM     14  O   UNL     1      50.119   4.406  19.854  0.00  0.00    +0.000 OA
ATOM     15  H   UNL     1      50.588   5.138  20.285  0.00  0.00    +0.000 HD
ENDBRANCH   2  14
BRANCH   7  16
ATOM     16  C   UNL     1      45.923   5.639  12.561  0.00  0.00    +0.000 C 
BRANCH  16  17
ATOM     17  C   UNL     1      44.635   4.905  12.192  0.00  0.00    +0.000 C 
BRANCH  17  18
ATOM     18  O   UNL     1      44.234   5.245  10.859  0.00  0.00    +0.000 OA
BRANCH  18  19
ATOM     19  C   UNL     1      44.903   4.580   9.874  0.00  0.00    +0.000 A 
ATOM     20  C   UNL     1      45.717   5.122   8.901  0.00  0.00    +0.000 A 
ATOM     21  N   UNL     1      46.357   4.402   7.956  0.00  0.00    +0.000 NA
ATOM     22  C   UNL     1      46.180   3.059   7.971  0.00  0.00    +0.000 A 
ATOM     23  N   UNL     1      45.396   2.430   8.885  0.00  0.00    +0.000 NA
ATOM     24  C   UNL     1      44.783   3.207   9.810  0.00  0.00    +0.000 A 
BRANCH  22  25
ATOM     25  C   UNL     1      46.904   2.219   6.910  0.00  0.00    +0.000 C 
ATOM     26  F   UNL     1      46.754   0.869   7.081  0.00  0.00    +0.000 F 
ATOM     27  F   UNL     1      46.469   2.467   5.638  0.00  0.00    +0.000 F 
ATOM     28  F   UNL     1      48.255   2.428   6.886  0.00  0.00    +0.000 F 
ENDBRANCH  22  25
ENDBRANCH  18  19
ENDBRANCH  17  18
ENDBRANCH  16  17
ENDBRANCH   7  16
TORSDOF 6
ENDMDL
MODEL 6
REMARK VINA RESULT:    -6.114      3.211      4.663
REMARK INTER + INTRA:          -8.704
REMARK INTER:                  -8.119
REMARK INTRA:                  -0.585
REMARK UNBOUND:                -0.624
REMARK  Name = 
REMARK  7 active torsions:
REMARK  status: ('A' for Active; 'I' for Inactive)
REMARK    1  A    between atoms: C_1  and  C_2
REMARK    2  A    between atoms: C_2  and  O_3
REMARK    3  A    between atoms: C_8  and  C_9
REMARK    4  A    between atoms: C_9  and  C_10
REMARK    5  A    between atoms: C_10  and  O_11
REMARK    6  A    between atoms: O_11  and  C_12
REMARK    7  A    between atoms: C_15  and  C_16
REMARK                            x       y       z     vdW  Elec       q    Type
REMARK                         _______ _______ _______ _____ _____    ______ ____
ROOT
ATOM      1  C   UNL     1      48.861   6.260  19.714  0.00  0.00    +0.000 C 
ATOM      2  C   UNL     1      49.550   5.029  19.116  0.00  0.00    +0.000 C 
ATOM      3  C   UNL     1      50.110   5.261  17.689  0.00  0.00    +0.000 C 
ATOM      4  N   UNL     1      49.098   5.209  16.628  0.00  0.00    +0.000 N 
ATOM      5  C   UNL     1      48.717   6.392  16.017  0.00  0.00    +0.000 A 
ATOM      6  C   UNL     1      48.248   6.360  14.704  0.00  0.00    +0.000 A 
ATOM      7  C   UNL     1      47.921   7.542  14.031  0.00  0.00    +0.000 A 
ATOM      8  C   UNL     1      48.050   8.744  14.722  0.00  0.00    +0.000 A 
ATOM      9  C   UNL     1      48.522   8.701  16.024  0.00  0.00    +0.000 A 
ATOM     10  N   UNL     1      48.865   7.562  16.671  0.00  0.00    +0.000 NA
ATOM     11  C   UNL     1      48.121   4.124  16.755  0.00  0.00    +0.000 C 
ATOM     12  C   UNL     1      47.604   3.990  18.196  0.00  0.00    +0.000 C 
ATOM     13  O   UNL     1      48.657   3.906  19.163  0.00  0.00    +0.000 OA
ENDROOT
BRANCH   2  14
ATOM     14  O   UNL     1      50.670   4.698  19.952  0.00  0.00    +0.000 OA
ATOM     15  H   UNL     1      50.361   4.085  20.638  0.00  0.00    +0.000 HD
ENDBRANCH   2  14
BRANCH   7  16
ATOM     16  C   UNL     1      47.395   7.497  12.620  0.00  0.00    +0.000 C 
BRANCH  16  17
ATOM     17  C   UNL     1      45.887   7.737  12.606  0.00  0.00    +0.000 C 
BRANCH  17  18
ATOM     18  O   UNL     1      45.191   6.549  12.999  0.00  0.00    +0.000 OA
BRANCH  18  19
ATOM     19  C   UNL     1      45.082   5.601  12.025  0.00  0.00    +0.000 A 
ATOM     20  C   UNL     1      44.716   5.791  10.709  0.00  0.00    +0.000 A 
ATOM     21  N   UNL     1      44.635   4.805   9.790  0.00  0.00    +0.000 NA
ATOM     22  C   UNL     1      44.931   3.548  10.201  0.00  0.00    +0.000 A 
ATOM     23  N   UNL     1      45.298   3.257  11.475  0.00  0.00    +0.000 NA
ATOM     24  C   UNL     1      45.364   4.291  12.349  0.00  0.00    +0.000 A 
BRANCH  22  25
ATOM     25  C   UNL     1      44.853   2.411   9.172  0.00  0.00    +0.000 C 
ATOM     26  F   UNL     1      44.393   2.810   7.946  0.00  0.00    +0.000 F 
ATOM     27  F   UNL     1      46.064   1.824   8.926  0.00  0.00    +0.000 F 
ATOM     28  F   UNL     1      44.021   1.396   9.553  0.00  0.00    +0.000 F 
ENDBRANCH  22  25
ENDBRANCH  18  19
ENDBRANCH  17  18
ENDBRANCH  16  17
ENDBRANCH   7  16
TORSDOF 6
ENDMDL
MODEL 7
REMARK VINA RESULT:    -5.929      4.316      6.694
REMARK INTER + INTRA:          -8.459
REMARK INTER:                  -7.785
REMARK INTRA:                  -0.674
REMARK UNBOUND:                -0.624
REMARK  Name = 
REMARK  7 active torsions:
REMARK  status: ('A' for Active; 'I' for Inactive)
REMARK    1  A    between atoms: C_1  and  C_2
REMARK    2  A    between atoms: C_2  and  O_3
REMARK    3  A    between atoms: C_8  and  C_9
REMARK    4  A    between atoms: C_9  and  C_10
REMARK    5  A    between atoms: C_10  and  O_11
REMARK    6  A    between atoms: O_11  and  C_12
REMARK    7  A    between atoms: C_15  and  C_16
REMARK                            x       y       z     vdW  Elec       q    Type
REMARK                         _______ _______ _______ _____ _____    ______ ____
ROOT
ATOM      1  C   UNL     1      50.215   5.240  20.501  0.00  0.00    +0.000 C 
ATOM      2  C   UNL     1      48.741   4.930  20.218  0.00  0.00    +0.000 C 
ATOM      3  C   UNL     1      48.402   4.843  18.707  0.00  0.00    +0.000 C 
ATOM      4  N   UNL     1      48.254   6.144  18.046  0.00  0.00    +0.000 N 
ATOM      5  C   UNL     1      49.250   6.565  17.181  0.00  0.00    +0.000 A 
ATOM      6  C   UNL     1      48.926   7.437  16.143  0.00  0.00    +0.000 A 
ATOM      7  C   UNL     1      49.890   7.828  15.207  0.00  0.00    +0.000 A 
ATOM      8  C   UNL     1      51.187   7.344  15.365  0.00  0.00    +0.000 A 
ATOM      9  C   UNL     1      51.437   6.481  16.420  0.00  0.00    +0.000 A 
ATOM     10  N   UNL     1      50.502   6.079  17.312  0.00  0.00    +0.000 NA
ATOM     11  C   UNL     1      47.499   7.144  18.808  0.00  0.00    +0.000 C 
ATOM     12  C   UNL     1      47.924   7.175  20.284  0.00  0.00    +0.000 C 
ATOM     13  O   UNL     1      47.908   5.881  20.898  0.00  0.00    +0.000 OA
ENDROOT
BRANCH   2  14
ATOM     14  O   UNL     1      48.442   3.644  20.784  0.00  0.00    +0.000 OA
ATOM     15  H   UNL     1      47.661   3.291  20.330  0.00  0.00    +0.000 HD
ENDBRANCH   2  14
BRANCH   7  16
ATOM     16  C   UNL     1      49.537   8.787  14.101  0.00  0.00    +0.000 C 
BRANCH  16  17
ATOM     17  C   UNL     1      48.174   8.436  13.508  0.00  0.00    +0.000 C 
BRANCH  17  18
ATOM     18  O   UNL     1      48.270   7.254  12.704  0.00  0.00    +0.000 OA
BRANCH  18  19
ATOM     19  C   UNL     1      47.162   6.461  12.719  0.00  0.00    +0.000 A 
ATOM     20  C   UNL     1      46.866   5.451  13.609  0.00  0.00    +0.000 A 
ATOM     21  N   UNL     1      45.742   4.705  13.571  0.00  0.00    +0.000 NA
ATOM     22  C   UNL     1      44.852   4.974  12.585  0.00  0.00    +0.000 A 
ATOM     23  N   UNL     1      45.051   5.945  11.657  0.00  0.00    +0.000 NA
ATOM     24  C   UNL     1      46.199   6.661  11.751  0.00  0.00    +0.000 A 
BRANCH  22  25
ATOM     25  C   UNL     1      43.562   4.144  12.525  0.00  0.00    +0.000 C 
ATOM     26  F   UNL     1      42.865   4.295  11.356  0.00  0.00    +0.000 F 
ATOM     27  F   UNL     1      43.782   2.799  12.638  0.00  0.00    +0.000 F 
ATOM     28  F   UNL     1      42.673   4.458  13.514  0.00  0.00    +0.000 F 
ENDBRANCH  22  25
ENDBRANCH  18  19
ENDBRANCH  17  18
ENDBRANCH  16  17
ENDBRANCH   7  16
TORSDOF 6
ENDMDL
MODEL 8
REMARK VINA RESULT:    -5.837      3.982      6.179
REMARK INTER + INTRA:          -8.337
REMARK INTER:                  -7.586
REMARK INTRA:                  -0.751
REMARK UNBOUND:                -0.624
REMARK  Name = 
REMARK  7 active torsions:
REMARK  status: ('A' for Active; 'I' for Inactive)
REMARK    1  A    between atoms: C_1  and  C_2
REMARK    2  A    between atoms: C_2  and  O_3
REMARK    3  A    between atoms: C_8  and  C_9
REMARK    4  A    between atoms: C_9  and  C_10
REMARK    5  A    between atoms: C_10  and  O_11
REMARK    6  A    between atoms: O_11  and  C_12
REMARK    7  A    between atoms: C_15  and  C_16
REMARK                            x       y       z     vdW  Elec       q    Type
REMARK                         _______ _______ _______ _____ _____    ______ ____
ROOT
ATOM      1  C   UNL     1      47.790   5.805  19.878  0.00  0.00    +0.000 C 
ATOM      2  C   UNL     1      48.665   4.722  19.239  0.00  0.00    +0.000 C 
ATOM      3  C   UNL     1      49.717   5.278  18.244  0.00  0.00    +0.000 C 
ATOM      4  N   UNL     1      49.176   5.620  16.924  0.00  0.00    +0.000 N 
ATOM      5  C   UNL     1      49.040   6.957  16.589  0.00  0.00    +0.000 A 
ATOM      6  C   UNL     1      49.096   7.333  15.248  0.00  0.00    +0.000 A 
ATOM      7  C   UNL     1      49.033   8.680  14.877  0.00  0.00    +0.000 A 
ATOM      8  C   UNL     1      48.881   9.628  15.886  0.00  0.00    +0.000 A 
ATOM      9  C   UNL     1      48.832   9.183  17.197  0.00  0.00    +0.000 A 
ATOM     10  N   UNL     1      48.919   7.883  17.563  0.00  0.00    +0.000 NA
ATOM     11  C   UNL     1      48.233   4.645  16.368  0.00  0.00    +0.000 C 
ATOM     12  C   UNL     1      47.216   4.174  17.419  0.00  0.00    +0.000 C 
ATOM     13  O   UNL     1      47.831   3.724  18.631  0.00  0.00    +0.000 OA
ENDROOT
BRANCH   2  14
ATOM     14  O   UNL     1      49.394   4.065  20.288  0.00  0.00    +0.000 OA
ATOM     15  H   UNL     1      49.502   4.694  21.017  0.00  0.00    +0.000 HD
ENDBRANCH   2  14
BRANCH   7  16
ATOM     16  C   UNL     1      49.074   9.076  13.424  0.00  0.00    +0.000 C 
BRANCH  16  17
ATOM     17  C   UNL     1      47.733   8.782  12.755  0.00  0.00    +0.000 C 
BRANCH  17  18
ATOM     18  O   UNL     1      47.823   7.592  11.962  0.00  0.00    +0.000 OA
BRANCH  18  19
ATOM     19  C   UNL     1      46.739   6.769  12.043  0.00  0.00    +0.000 A 
ATOM     20  C   UNL     1      45.525   6.917  11.405  0.00  0.00    +0.000 A 
ATOM     21  N   UNL     1      44.491   6.057  11.524  0.00  0.00    +0.000 NA
ATOM     22  C   UNL     1      44.668   4.981  12.328  0.00  0.00    +0.000 A 
ATOM     23  N   UNL     1      45.824   4.746  13.002  0.00  0.00    +0.000 NA
ATOM     24  C   UNL     1      46.825   5.646  12.839  0.00  0.00    +0.000 A 
BRANCH  22  25
ATOM     25  C   UNL     1      43.510   3.984  12.473  0.00  0.00    +0.000 C 
ATOM     26  F   UNL     1      43.916   2.682  12.589  0.00  0.00    +0.000 F 
ATOM     27  F   UNL     1      42.735   4.217  13.575  0.00  0.00    +0.000 F 
ATOM     28  F   UNL     1      42.652   3.997  11.409  0.00  0.00    +0.000 F 
ENDBRANCH  22  25
ENDBRANCH  18  19
ENDBRANCH  17  18
ENDBRANCH  16  17
ENDBRANCH   7  16
TORSDOF 6
ENDMDL
MODEL 9
REMARK VINA RESULT:    -5.688      1.956      2.889
REMARK INTER + INTRA:          -8.141
REMARK INTER:                  -7.654
REMARK INTRA:                  -0.486
REMARK UNBOUND:                -0.624
REMARK  Name = 
REMARK  7 active torsions:
REMARK  status: ('A' for Active; 'I' for Inactive)
REMARK    1  A    between atoms: C_1  and  C_2
REMARK    2  A    between atoms: C_2  and  O_3
REMARK    3  A    between atoms: C_8  and  C_9
REMARK    4  A    between atoms: C_9  and  C_10
REMARK    5  A    between atoms: C_10  and  O_11
REMARK    6  A    between atoms: O_11  and  C_12
REMARK    7  A    between atoms: C_15  and  C_16
REMARK                            x       y       z     vdW  Elec       q    Type
REMARK                         _______ _______ _______ _____ _____    ______ ____
ROOT
ATOM      1  C   UNL     1      51.796  10.508  13.212  0.00  0.00    +0.000 C 
ATOM      2  C   UNL     1      52.082   9.032  12.916  0.00  0.00    +0.000 C 
ATOM      3  C   UNL     1      51.038   8.372  11.977  0.00  0.00    +0.000 C 
ATOM      4  N   UNL     1      49.785   7.995  12.640  0.00  0.00    +0.000 N 
ATOM      5  C   UNL     1      48.648   8.744  12.382  0.00  0.00    +0.000 A 
ATOM      6  C   UNL     1      47.396   8.141  12.491  0.00  0.00    +0.000 A 
ATOM      7  C   UNL     1      46.231   8.845  12.171  0.00  0.00    +0.000 A 
ATOM      8  C   UNL     1      46.359  10.173  11.771  0.00  0.00    +0.000 A 
ATOM      9  C   UNL     1      47.635  10.707  11.686  0.00  0.00    +0.000 A 
ATOM     10  N   UNL     1      48.767  10.023  11.969  0.00  0.00    +0.000 NA
ATOM     11  C   UNL     1      49.942   7.365  13.954  0.00  0.00    +0.000 C 
ATOM     12  C   UNL     1      50.974   8.104  14.820  0.00  0.00    +0.000 C 
ATOM     13  O   UNL     1      52.222   8.311  14.149  0.00  0.00    +0.000 OA
ENDROOT
BRANCH   2  14
ATOM     14  O   UNL     1      53.350   8.951  12.247  0.00  0.00    +0.000 OA
ATOM     15  H   UNL     1      53.189   8.671  11.332  0.00  0.00    +0.000 HD
ENDBRANCH   2  14
BRANCH   7  16
ATOM     16  C   UNL     1      44.880   8.191  12.311  0.00  0.00    +0.000 C 
BRANCH  16  17
ATOM     17  C   UNL     1      45.037   6.689  12.533  0.00  0.00    +0.000 C 
BRANCH  17  18
ATOM     18  O   UNL     1      44.048   5.970  11.786  0.00  0.00    +0.000 OA
BRANCH  18  19
ATOM     19  C   UNL     1      44.545   5.182  10.790  0.00  0.00    +0.000 A 
ATOM     20  C   UNL     1      44.250   3.858  10.543  0.00  0.00    +0.000 A 
ATOM     21  N   UNL     1      44.775   3.136   9.531  0.00  0.00    +0.000 NA
ATOM     22  C   UNL     1      45.652   3.763   8.710  0.00  0.00    +0.000 A 
ATOM     23  N   UNL     1      46.012   5.063   8.871  0.00  0.00    +0.000 NA
ATOM     24  C   UNL     1      45.447   5.735   9.905  0.00  0.00    +0.000 A 
BRANCH  22  25
ATOM     25  C   UNL     1      46.257   2.965   7.547  0.00  0.00    +0.000 C 
ATOM     26  F   UNL     1      47.576   3.249   7.312  0.00  0.00    +0.000 F 
ATOM     27  F   UNL     1      46.214   1.612   7.743  0.00  0.00    +0.000 F 
ATOM     28  F   UNL     1      45.626   3.186   6.356  0.00  0.00    +0.000 F 
ENDBRANCH  22  25
ENDBRANCH  18  19
ENDBRANCH  17  18
ENDBRANCH  16  17
ENDBRANCH   7  16
TORSDOF 6
ENDMDL
