MODEL 1
REMARK VINA RESULT:    -8.095      0.000      0.000
REMARK INTER + INTRA:         -13.240
REMARK INTER:                 -11.881
REMARK INTRA:                  -1.359
REMARK UNBOUND:                -1.359
REMARK  Name = 
REMARK  10 active torsions:
REMARK  status: ('A' for Active; 'I' for Inactive)
REMARK    1  A    between atoms: C_1  and  O_2
REMARK    2  A    between atoms: O_2  and  C_3
REMARK    3  A    between atoms: C_10  and  C_11
REMARK    4  A    between atoms: N_13  and  C_14
REMARK    5  A    between atoms: C_14  and  C_15
REMARK    6  A    between atoms: C_18  and  C_19
REMARK    7  A    between atoms: C_19  and  N_20
REMARK    8  A    between atoms: N_20  and  C_21
REMARK    9  A    between atoms: C_21  and  C_22
REMARK   10  A    between atoms: C_26  and  C_27
REMARK                            x       y       z     vdW  Elec       q    Type
REMARK                         _______ _______ _______ _____ _____    ______ ____
ROOT
ATOM      1  C   UNL     1      47.166   6.330  12.866  0.00  0.00    +0.000 A 
ATOM      2  C   UNL     1      46.286   5.490  13.559  0.00  0.00    +0.000 A 
ATOM      3  C   UNL     1      45.066   5.113  12.988  0.00  0.00    +0.000 A 
ATOM      4  C   UNL     1      44.701   5.566  11.711  0.00  0.00    +0.000 A 
ATOM      5  C   UNL     1      45.611   6.355  10.996  0.00  0.00    +0.000 A 
ATOM      6  C   UNL     1      46.832   6.728  11.564  0.00  0.00    +0.000 A 
ENDROOT
BRANCH   1   7
ATOM      7  C   UNL     1      48.436   6.815  13.512  0.00  0.00    +0.000 C 
BRANCH   7  10
ATOM      8  C   UNL     1      49.386   7.272  15.716  0.00  0.00    +0.000 C 
ATOM      9  O   UNL     1      50.384   7.771  15.198  0.00  0.00    +0.000 OA
ATOM     10  N   UNL     1      48.373   6.765  14.950  0.00  0.00    +0.000 N 
ATOM     11  H   UNL     1      47.540   6.382  15.380  0.00  0.00    +0.000 HD
BRANCH   8  19
ATOM     12  C   UNL     1      48.898   4.685  17.944  0.00  0.00    +0.000 A 
ATOM     13  N   UNL     1      48.678   3.893  19.014  0.00  0.00    +0.000 NA
ATOM     14  C   UNL     1      48.614   4.465  20.219  0.00  0.00    +0.000 A 
ATOM     15  N   UNL     1      48.748   5.758  20.498  0.00  0.00    +0.000 NA
ATOM     16  C   UNL     1      48.951   6.513  19.405  0.00  0.00    +0.000 A 
ATOM     17  S   UNL     1      49.150   8.190  19.579  0.00  0.00    +0.000 S 
ATOM     18  C   UNL     1      49.332   8.389  17.903  0.00  0.00    +0.000 A 
ATOM     19  C   UNL     1      49.247   7.203  17.180  0.00  0.00    +0.000 A 
ATOM     20  C   UNL     1      49.030   6.078  18.085  0.00  0.00    +0.000 A 
BRANCH  12  22
ATOM     21  C   UNL     1      47.839   3.264  16.422  0.00  0.00    +0.000 C 
ATOM     22  O   UNL     1      48.968   4.091  16.700  0.00  0.00    +0.000 OA
ENDBRANCH  12  22
ENDBRANCH   8  19
ENDBRANCH   7  10
ENDBRANCH   1   7
BRANCH   4  23
ATOM     23  C   UNL     1      43.342   5.231  11.134  0.00  0.00    +0.000 C 
BRANCH  23  24
ATOM     24  N   UNL     1      43.484   4.554   9.847  0.00  0.00    +0.000 NA
ATOM     25  H   UNL     1      44.082   5.119   9.242  0.00  0.00    +0.000 HD
BRANCH  24  26
ATOM     26  C   UNL     1      44.108   3.232   9.991  0.00  0.00    +0.000 C 
BRANCH  26  27
ATOM     27  C   UNL     1      45.142   2.979   8.908  0.00  0.00    +0.000 A 
ATOM     28  C   UNL     1      45.661   4.048   8.178  0.00  0.00    +0.000 A 
ATOM     29  C   UNL     1      46.636   3.797   7.219  0.00  0.00    +0.000 A 
ATOM     30  C   UNL     1      47.060   2.491   7.006  0.00  0.00    +0.000 A 
ATOM     31  C   UNL     1      46.492   1.469   7.761  0.00  0.00    +0.000 A 
ATOM     32  C   UNL     1      46.905   0.044   7.552  0.00  0.00    +0.000 C 
ATOM     33  N   UNL     1      45.546   1.698   8.706  0.00  0.00    +0.000 NA
ENDBRANCH  26  27
ENDBRANCH  24  26
ENDBRANCH  23  24
ENDBRANCH   4  23
TORSDOF 8
ENDMDL
MODEL 2
REMARK VINA RESULT:    -7.981      1.609      2.540
REMARK INTER + INTRA:         -13.073
REMARK INTER:                 -11.702
REMARK INTRA:                  -1.371
REMARK UNBOUND:                -1.359
REMARK  Name = 
REMARK  10 active torsions:
REMARK  status: ('A' for Active; 'I' for Inactive)
REMARK    1  A    between atoms: C_1  and  O_2
REMARK    2  A    between atoms: O_2  and  C_3
REMARK    3  A    between atoms: C_10  and  C_11
REMARK    4  A    between atoms: N_13  and  C_14
REMARK    5  A    between atoms: C_14  and  C_15
REMARK    6  A    between atoms: C_18  and  C_19
REMARK    7  A    between atoms: C_19  and  N_20
REMARK    8  A    between atoms: N_20  and  C_21
REMARK    9  A    between atoms: C_21  and  C_22
REMARK   10  A    between atoms: C_26  and  C_27
REMARK                            x       y       z     vdW  Elec       q    Type
REMARK                         _______ _______ _______ _____ _____    ______ ____
ROOT
ATOM      1  C   UNL     1      47.200   6.162  13.317  0.00  0.00    +0.000 A 
ATOM      2  C   UNL     1      46.290   5.212  13.796  0.00  0.00    +0.000 A 
ATOM      3  C   UNL     1      45.115   4.934  13.091  0.00  0.00    +0.000 A 
ATOM      4  C   UNL     1      44.826   5.599  11.889  0.00  0.00    +0.000 A 
ATOM      5  C   UNL     1      45.767   6.503  11.381  0.00  0.00    +0.000 A 
ATOM      6  C   UNL     1      46.944   6.777  12.083  0.00  0.00    +0.000 A 
ENDROOT
BRANCH   1   7
ATOM      7  C   UNL     1      48.419   6.533  14.118  0.00  0.00    +0.000 C 
BRANCH   7  10
ATOM      8  C   UNL     1      49.060   6.340  16.468  0.00  0.00    +0.000 C 
ATOM      9  O   UNL     1      50.162   5.900  16.146  0.00  0.00    +0.000 OA
ATOM     10  N   UNL     1      48.130   6.673  15.522  0.00  0.00    +0.000 N 
ATOM     11  H   UNL     1      47.235   7.063  15.790  0.00  0.00    +0.000 HD
BRANCH   8  19
ATOM     12  C   UNL     1      47.738   8.967  18.269  0.00  0.00    +0.000 A 
ATOM     13  N   UNL     1      47.275   9.819  19.208  0.00  0.00    +0.000 NA
ATOM     14  C   UNL     1      47.195   9.385  20.468  0.00  0.00    +0.000 A 
ATOM     15  N   UNL     1      47.524   8.179  20.921  0.00  0.00    +0.000 NA
ATOM     16  C   UNL     1      47.993   7.367  19.959  0.00  0.00    +0.000 A 
ATOM     17  S   UNL     1      48.456   5.784  20.359  0.00  0.00    +0.000 S 
ATOM     18  C   UNL     1      48.895   5.455  18.753  0.00  0.00    +0.000 A 
ATOM     19  C   UNL     1      48.703   6.525  17.884  0.00  0.00    +0.000 A 
ATOM     20  C   UNL     1      48.152   7.666  18.608  0.00  0.00    +0.000 A 
BRANCH  12  22
ATOM     21  C   UNL     1      49.039  10.099  16.693  0.00  0.00    +0.000 C 
ATOM     22  O   UNL     1      47.816   9.417  16.967  0.00  0.00    +0.000 OA
ENDBRANCH  12  22
ENDBRANCH   8  19
ENDBRANCH   7  10
ENDBRANCH   1   7
BRANCH   4  23
ATOM     23  C   UNL     1      43.511   5.364  11.175  0.00  0.00    +0.000 C 
BRANCH  23  24
ATOM     24  N   UNL     1      43.744   4.847   9.829  0.00  0.00    +0.000 NA
ATOM     25  H   UNL     1      44.533   5.348   9.416  0.00  0.00    +0.000 HD
BRANCH  24  26
ATOM     26  C   UNL     1      44.074   3.417   9.842  0.00  0.00    +0.000 C 
BRANCH  26  27
ATOM     27  C   UNL     1      45.149   3.080   8.824  0.00  0.00    +0.000 A 
ATOM     28  C   UNL     1      45.754   4.097   8.088  0.00  0.00    +0.000 A 
ATOM     29  C   UNL     1      46.763   3.769   7.190  0.00  0.00    +0.000 A 
ATOM     30  C   UNL     1      47.135   2.438   7.040  0.00  0.00    +0.000 A 
ATOM     31  C   UNL     1      46.481   1.471   7.797  0.00  0.00    +0.000 A 
ATOM     32  C   UNL     1      46.836   0.021   7.656  0.00  0.00    +0.000 C 
ATOM     33  N   UNL     1      45.500   1.775   8.684  0.00  0.00    +0.000 NA
ENDBRANCH  26  27
ENDBRANCH  24  26
ENDBRANCH  23  24
ENDBRANCH   4  23
TORSDOF 8
ENDMDL
MODEL 3
REMARK VINA RESULT:    -7.628      1.761      2.024
REMARK INTER + INTRA:         -12.554
REMARK INTER:                 -11.108
REMARK INTRA:                  -1.446
REMARK UNBOUND:                -1.359
REMARK  Name = 
REMARK  10 active torsions:
REMARK  status: ('A' for Active; 'I' for Inactive)
REMARK    1  A    between atoms: C_1  and  O_2
REMARK    2  A    between atoms: O_2  and  C_3
REMARK    3  A    between atoms: C_10  and  C_11
REMARK    4  A    between atoms: N_13  and  C_14
REMARK    5  A    between atoms: C_14  and  C_15
REMARK    6  A    between atoms: C_18  and  C_19
REMARK    7  A    between atoms: C_19  and  N_20
REMARK    8  A    between atoms: N_20  and  C_21
REMARK    9  A    between atoms: C_21  and  C_22
REMARK   10  A    between atoms: C_26  and  C_27
REMARK                            x       y       z     vdW  Elec       q    Type
REMARK                         _______ _______ _______ _____ _____    ______ ____
ROOT
ATOM      1  C   UNL     1      46.763   6.780  12.861  0.00  0.00    +0.000 A 
ATOM      2  C   UNL     1      46.932   5.425  13.170  0.00  0.00    +0.000 A 
ATOM      3  C   UNL     1      45.851   4.540  13.100  0.00  0.00    +0.000 A 
ATOM      4  C   UNL     1      44.579   4.990  12.716  0.00  0.00    +0.000 A 
ATOM      5  C   UNL     1      44.427   6.333  12.348  0.00  0.00    +0.000 A 
ATOM      6  C   UNL     1      45.508   7.217  12.413  0.00  0.00    +0.000 A 
ENDROOT
BRANCH   1   7
ATOM      7  C   UNL     1      47.898   7.755  13.025  0.00  0.00    +0.000 C 
BRANCH   7  10
ATOM      8  C   UNL     1      49.223   7.561  15.069  0.00  0.00    +0.000 C 
ATOM      9  O   UNL     1      48.503   8.386  15.630  0.00  0.00    +0.000 OA
ATOM     10  N   UNL     1      48.996   7.196  13.770  0.00  0.00    +0.000 N 
ATOM     11  H   UNL     1      49.572   6.494  13.321  0.00  0.00    +0.000 HD
BRANCH   8  19
ATOM     12  C   UNL     1      49.474   5.017  17.384  0.00  0.00    +0.000 A 
ATOM     13  N   UNL     1      49.859   4.105  18.300  0.00  0.00    +0.000 NA
ATOM     14  C   UNL     1      51.160   4.007  18.584  0.00  0.00    +0.000 A 
ATOM     15  N   UNL     1      52.150   4.718  18.055  0.00  0.00    +0.000 NA
ATOM     16  C   UNL     1      51.724   5.624  17.158  0.00  0.00    +0.000 A 
ATOM     17  S   UNL     1      52.857   6.617  16.378  0.00  0.00    +0.000 S 
ATOM     18  C   UNL     1      51.635   7.404  15.501  0.00  0.00    +0.000 A 
ATOM     19  C   UNL     1      50.353   6.937  15.776  0.00  0.00    +0.000 A 
ATOM     20  C   UNL     1      50.411   5.862  16.762  0.00  0.00    +0.000 A 
BRANCH  12  22
ATOM     21  C   UNL     1      47.619   3.943  16.456  0.00  0.00    +0.000 C 
ATOM     22  O   UNL     1      48.130   5.115  17.090  0.00  0.00    +0.000 OA
ENDBRANCH  12  22
ENDBRANCH   8  19
ENDBRANCH   7  10
ENDBRANCH   1   7
BRANCH   4  23
ATOM     23  C   UNL     1      43.392   4.050  12.729  0.00  0.00    +0.000 C 
BRANCH  23  24
ATOM     24  N   UNL     1      43.021   3.674  11.367  0.00  0.00    +0.000 NA
ATOM     25  H   UNL     1      43.232   4.453  10.742  0.00  0.00    +0.000 HD
BRANCH  24  26
ATOM     26  C   UNL     1      43.772   2.502  10.900  0.00  0.00    +0.000 C 
BRANCH  26  27
ATOM     27  C   UNL     1      44.651   2.839   9.707  0.00  0.00    +0.000 A 
ATOM     28  C   UNL     1      44.745   4.156   9.262  0.00  0.00    +0.000 A 
ATOM     29  C   UNL     1      45.586   4.447   8.194  0.00  0.00    +0.000 A 
ATOM     30  C   UNL     1      46.301   3.418   7.591  0.00  0.00    +0.000 A 
ATOM     31  C   UNL     1      46.151   2.123   8.078  0.00  0.00    +0.000 A 
ATOM     32  C   UNL     1      46.888   0.980   7.448  0.00  0.00    +0.000 C 
ATOM     33  N   UNL     1      45.341   1.824   9.125  0.00  0.00    +0.000 NA
ENDBRANCH  26  27
ENDBRANCH  24  26
ENDBRANCH  23  24
ENDBRANCH   4  23
TORSDOF 8
ENDMDL
MODEL 4
REMARK VINA RESULT:    -7.578      1.868      2.738
REMARK INTER + INTRA:         -12.481
REMARK INTER:                 -11.351
REMARK INTRA:                  -1.130
REMARK UNBOUND:                -1.359
REMARK  Name = 
REMARK  10 active torsions:
REMARK  status: ('A' for Active; 'I' for Inactive)
REMARK    1  A    between atoms: C_1  and  O_2
REMARK    2  A    between atoms: O_2  and  C_3
REMARK    3  A    between atoms: C_10  and  C_11
REMARK    4  A    between atoms: N_13  and  C_14
REMARK    5  A    between atoms: C_14  and  C_15
REMARK    6  A    between atoms: C_18  and  C_19
REMARK    7  A    between atoms: C_19  and  N_20
REMARK    8  A    between atoms: N_20  and  C_21
REMARK    9  A    between atoms: C_21  and  C_22
REMARK   10  A    between atoms: C_26  and  C_27
REMARK                            x       y       z     vdW  Elec       q    Type
REMARK                         _______ _______ _______ _____ _____    ______ ____
ROOT
ATOM      1  C   UNL     1      46.816   3.911  13.787  0.00  0.00    +0.000 A 
ATOM      2  C   UNL     1      45.929   3.211  12.960  0.00  0.00    +0.000 A 
ATOM      3  C   UNL     1      45.324   3.845  11.869  0.00  0.00    +0.000 A 
ATOM      4  C   UNL     1      45.596   5.191  11.581  0.00  0.00    +0.000 A 
ATOM      5  C   UNL     1      46.531   5.869  12.372  0.00  0.00    +0.000 A 
ATOM      6  C   UNL     1      47.139   5.235  13.459  0.00  0.00    +0.000 A 
ENDROOT
BRANCH   1   7
ATOM      7  C   UNL     1      47.396   3.264  15.015  0.00  0.00    +0.000 C 
BRANCH   7  10
ATOM      8  C   UNL     1      47.363   4.163  17.287  0.00  0.00    +0.000 C 
ATOM      9  O   UNL     1      46.577   3.284  17.638  0.00  0.00    +0.000 OA
ATOM     10  N   UNL     1      47.815   4.230  15.997  0.00  0.00    +0.000 N 
ATOM     11  H   UNL     1      48.485   4.936  15.719  0.00  0.00    +0.000 HD
BRANCH   8  19
ATOM     12  C   UNL     1      50.482   5.417  18.057  0.00  0.00    +0.000 A 
ATOM     13  N   UNL     1      51.555   6.047  18.576  0.00  0.00    +0.000 NA
ATOM     14  C   UNL     1      51.353   6.938  19.550  0.00  0.00    +0.000 A 
ATOM     15  N   UNL     1      50.187   7.290  20.082  0.00  0.00    +0.000 NA
ATOM     16  C   UNL     1      49.145   6.630  19.548  0.00  0.00    +0.000 A 
ATOM     17  S   UNL     1      47.577   6.960  20.106  0.00  0.00    +0.000 S 
ATOM     18  C   UNL     1      46.907   5.822  19.038  0.00  0.00    +0.000 A 
ATOM     19  C   UNL     1      47.846   5.173  18.242  0.00  0.00    +0.000 A 
ATOM     20  C   UNL     1      49.186   5.668  18.542  0.00  0.00    +0.000 A 
BRANCH  12  22
ATOM     21  C   UNL     1      51.003   3.198  17.544  0.00  0.00    +0.000 C 
ATOM     22  O   UNL     1      50.694   4.500  17.048  0.00  0.00    +0.000 OA
ENDBRANCH  12  22
ENDBRANCH   8  19
ENDBRANCH   7  10
ENDBRANCH   1   7
BRANCH   4  23
ATOM     23  C   UNL     1      44.871   5.899  10.455  0.00  0.00    +0.000 C 
BRANCH  23  24
ATOM     24  N   UNL     1      45.341   5.418   9.159  0.00  0.00    +0.000 NA
ATOM     25  H   UNL     1      46.314   5.120   9.252  0.00  0.00    +0.000 HD
BRANCH  24  26
ATOM     26  C   UNL     1      44.559   4.268   8.687  0.00  0.00    +0.000 C 
BRANCH  26  27
ATOM     27  C   UNL     1      45.448   3.199   8.074  0.00  0.00    +0.000 A 
ATOM     28  C   UNL     1      45.570   1.956   8.693  0.00  0.00    +0.000 A 
ATOM     29  C   UNL     1      46.357   0.980   8.093  0.00  0.00    +0.000 A 
ATOM     30  C   UNL     1      47.009   1.270   6.900  0.00  0.00    +0.000 A 
ATOM     31  C   UNL     1      46.854   2.536   6.342  0.00  0.00    +0.000 A 
ATOM     32  C   UNL     1      47.552   2.898   5.066  0.00  0.00    +0.000 C 
ATOM     33  N   UNL     1      46.083   3.496   6.910  0.00  0.00    +0.000 NA
ENDBRANCH  26  27
ENDBRANCH  24  26
ENDBRANCH  23  24
ENDBRANCH   4  23
TORSDOF 8
ENDMDL
MODEL 5
REMARK VINA RESULT:    -7.033      4.732      9.633
REMARK INTER + INTRA:         -11.682
REMARK INTER:                 -10.692
REMARK INTRA:                  -0.989
REMARK UNBOUND:                -1.359
REMARK  Name = 
REMARK  10 active torsions:
REMARK  status: ('A' for Active; 'I' for Inactive)
REMARK    1  A    between atoms: C_1  and  O_2
REMARK    2  A    between atoms: O_2  and  C_3
REMARK    3  A    between atoms: C_10  and  C_11
REMARK    4  A    between atoms: N_13  and  C_14
REMARK    5  A    between atoms: C_14  and  C_15
REMARK    6  A    between atoms: C_18  and  C_19
REMARK    7  A    between atoms: C_19  and  N_20
REMARK    8  A    between atoms: N_20  and  C_21
REMARK    9  A    between atoms: C_21  and  C_22
REMARK   10  A    between atoms: C_26  and  C_27
REMARK                            x       y       z     vdW  Elec       q    Type
REMARK                         _______ _______ _______ _____ _____    ______ ____
ROOT
ATOM      1  C   UNL     1      48.687   3.469  17.005  0.00  0.00    +0.000 A 
ATOM      2  C   UNL     1      49.283   4.692  17.333  0.00  0.00    +0.000 A 
ATOM      3  C   UNL     1      50.632   4.750  17.702  0.00  0.00    +0.000 A 
ATOM      4  C   UNL     1      51.413   3.586  17.746  0.00  0.00    +0.000 A 
ATOM      5  C   UNL     1      50.831   2.373  17.357  0.00  0.00    +0.000 A 
ATOM      6  C   UNL     1      49.485   2.316  16.984  0.00  0.00    +0.000 A 
ENDROOT
BRANCH   1   7
ATOM      7  C   UNL     1      47.216   3.387  16.700  0.00  0.00    +0.000 C 
BRANCH   7  10
ATOM      8  C   UNL     1      46.826   4.274  14.457  0.00  0.00    +0.000 C 
ATOM      9  O   UNL     1      47.251   3.234  13.956  0.00  0.00    +0.000 OA
ATOM     10  N   UNL     1      46.781   4.436  15.815  0.00  0.00    +0.000 N 
ATOM     11  H   UNL     1      46.403   5.282  16.223  0.00  0.00    +0.000 HD
BRANCH   8  19
ATOM     12  C   UNL     1      43.942   4.822  12.646  0.00  0.00    +0.000 A 
ATOM     13  N   UNL     1      42.961   5.277  11.841  0.00  0.00    +0.000 NA
ATOM     14  C   UNL     1      43.122   6.470  11.262  0.00  0.00    +0.000 A 
ATOM     15  N   UNL     1      44.163   7.286  11.390  0.00  0.00    +0.000 NA
ATOM     16  C   UNL     1      45.124   6.790  12.188  0.00  0.00    +0.000 A 
ATOM     17  S   UNL     1      46.526   7.705  12.468  0.00  0.00    +0.000 S 
ATOM     18  C   UNL     1      47.173   6.495  13.469  0.00  0.00    +0.000 A 
ATOM     19  C   UNL     1      46.350   5.382  13.612  0.00  0.00    +0.000 A 
ATOM     20  C   UNL     1      45.118   5.567  12.852  0.00  0.00    +0.000 A 
BRANCH  12  22
ATOM     21  C   UNL     1      43.531   2.549  12.302  0.00  0.00    +0.000 C 
ATOM     22  O   UNL     1      43.771   3.591  13.246  0.00  0.00    +0.000 OA
ENDBRANCH  12  22
ENDBRANCH   8  19
ENDBRANCH   7  10
ENDBRANCH   1   7
BRANCH   4  23
ATOM     23  C   UNL     1      52.847   3.638  18.232  0.00  0.00    +0.000 C 
BRANCH  23  24
ATOM     24  N   UNL     1      53.098   2.574  19.201  0.00  0.00    +0.000 NA
ATOM     25  H   UNL     1      52.477   1.790  18.998  0.00  0.00    +0.000 HD
BRANCH  24  26
ATOM     26  C   UNL     1      54.481   2.086  19.131  0.00  0.00    +0.000 C 
BRANCH  26  27
ATOM     27  C   UNL     1      54.568   0.750  18.413  0.00  0.00    +0.000 A 
ATOM     28  C   UNL     1      54.892   0.708  17.058  0.00  0.00    +0.000 A 
ATOM     29  C   UNL     1      55.005  -0.528  16.431  0.00  0.00    +0.000 A 
ATOM     30  C   UNL     1      54.783  -1.686  17.166  0.00  0.00    +0.000 A 
ATOM     31  C   UNL     1      54.451  -1.572  18.513  0.00  0.00    +0.000 A 
ATOM     32  C   UNL     1      54.185  -2.793  19.340  0.00  0.00    +0.000 C 
ATOM     33  N   UNL     1      54.345  -0.374  19.141  0.00  0.00    +0.000 NA
ENDBRANCH  26  27
ENDBRANCH  24  26
ENDBRANCH  23  24
ENDBRANCH   4  23
TORSDOF 8
ENDMDL
MODEL 6
REMARK VINA RESULT:    -6.955      3.323      8.315
REMARK INTER + INTRA:         -11.567
REMARK INTER:                  -9.883
REMARK INTRA:                  -1.683
REMARK UNBOUND:                -1.359
REMARK  Name = 
REMARK  10 active torsions:
REMARK  status: ('A' for Active; 'I' for Inactive)
REMARK    1  A    between atoms: C_1  and  O_2
REMARK    2  A    between atoms: O_2  and  C_3
REMARK    3  A    between atoms: C_10  and  C_11
REMARK    4  A    between atoms: N_13  and  C_14
REMARK    5  A    between atoms: C_14  and  C_15
REMARK    6  A    between atoms: C_18  and  C_19
REMARK    7  A    between atoms: C_19  and  N_20
REMARK    8  A    between atoms: N_20  and  C_21
REMARK    9  A    between atoms: C_21  and  C_22
REMARK   10  A    between atoms: C_26  and  C_27
REMARK                            x       y       z     vdW  Elec       q    Type
REMARK                         _______ _______ _______ _____ _____    ______ ____
ROOT
ATOM      1  C   UNL     1      48.417   7.882  13.469  0.00  0.00    +0.000 A 
ATOM      2  C   UNL     1      49.008   6.792  14.120  0.00  0.00    +0.000 A 
ATOM      3  C   UNL     1      49.153   6.788  15.511  0.00  0.00    +0.000 A 
ATOM      4  C   UNL     1      48.706   7.873  16.281  0.00  0.00    +0.000 A 
ATOM      5  C   UNL     1      48.060   8.933  15.633  0.00  0.00    +0.000 A 
ATOM      6  C   UNL     1      47.910   8.934  14.244  0.00  0.00    +0.000 A 
ENDROOT
BRANCH   1   7
ATOM      7  C   UNL     1      48.344   7.933  11.966  0.00  0.00    +0.000 C 
BRANCH   7  10
ATOM      8  C   UNL     1      46.276   6.831  11.274  0.00  0.00    +0.000 C 
ATOM      9  O   UNL     1      45.620   7.808  11.629  0.00  0.00    +0.000 OA
ATOM     10  N   UNL     1      47.637   6.807  11.414  0.00  0.00    +0.000 N 
ATOM     11  H   UNL     1      48.177   6.013  11.093  0.00  0.00    +0.000 HD
BRANCH   8  19
ATOM     12  C   UNL     1      44.382   4.260  12.577  0.00  0.00    +0.000 A 
ATOM     13  N   UNL     1      43.662   3.143  12.811  0.00  0.00    +0.000 NA
ATOM     14  C   UNL     1      43.365   2.356  11.774  0.00  0.00    +0.000 A 
ATOM     15  N   UNL     1      43.700   2.548  10.502  0.00  0.00    +0.000 NA
ATOM     16  C   UNL     1      44.428   3.662  10.314  0.00  0.00    +0.000 A 
ATOM     17  S   UNL     1      44.939   4.066   8.747  0.00  0.00    +0.000 S 
ATOM     18  C   UNL     1      45.726   5.461   9.312  0.00  0.00    +0.000 A 
ATOM     19  C   UNL     1      45.621   5.651  10.686  0.00  0.00    +0.000 A 
ATOM     20  C   UNL     1      44.833   4.577  11.283  0.00  0.00    +0.000 A 
BRANCH  12  22
ATOM     21  C   UNL     1      45.988   4.827  14.176  0.00  0.00    +0.000 C 
ATOM     22  O   UNL     1      44.685   5.073  13.650  0.00  0.00    +0.000 OA
ENDBRANCH  12  22
ENDBRANCH   8  19
ENDBRANCH   7  10
ENDBRANCH   1   7
BRANCH   4  23
ATOM     23  C   UNL     1      48.946   7.907  17.776  0.00  0.00    +0.000 C 
BRANCH  23  24
ATOM     24  N   UNL     1      47.775   7.409  18.495  0.00  0.00    +0.000 NA
ATOM     25  H   UNL     1      47.073   7.113  17.814  0.00  0.00    +0.000 HD
BRANCH  24  26
ATOM     26  C   UNL     1      48.102   6.253  19.339  0.00  0.00    +0.000 C 
BRANCH  26  27
ATOM     27  C   UNL     1      48.318   4.998  18.511  0.00  0.00    +0.000 A 
ATOM     28  C   UNL     1      47.242   4.404  17.854  0.00  0.00    +0.000 A 
ATOM     29  C   UNL     1      47.470   3.279  17.070  0.00  0.00    +0.000 A 
ATOM     30  C   UNL     1      48.759   2.770  16.970  0.00  0.00    +0.000 A 
ATOM     31  C   UNL     1      49.786   3.404  17.662  0.00  0.00    +0.000 A 
ATOM     32  C   UNL     1      51.189   2.880  17.598  0.00  0.00    +0.000 C 
ATOM     33  N   UNL     1      49.582   4.508  18.424  0.00  0.00    +0.000 NA
ENDBRANCH  26  27
ENDBRANCH  24  26
ENDBRANCH  23  24
ENDBRANCH   4  23
TORSDOF 8
ENDMDL
MODEL 7
REMARK VINA RESULT:    -6.938      2.112      2.722
REMARK INTER + INTRA:         -11.541
REMARK INTER:                 -10.417
REMARK INTRA:                  -1.124
REMARK UNBOUND:                -1.359
REMARK  Name = 
REMARK  10 active torsions:
REMARK  status: ('A' for Active; 'I' for Inactive)
REMARK    1  A    between atoms: C_1  and  O_2
REMARK    2  A    between atoms: O_2  and  C_3
REMARK    3  A    between atoms: C_10  and  C_11
REMARK    4  A    between atoms: N_13  and  C_14
REMARK    5  A    between atoms: C_14  and  C_15
REMARK    6  A    between atoms: C_18  and  C_19
REMARK    7  A    between atoms: C_19  and  N_20
REMARK    8  A    between atoms: N_20  and  C_21
REMARK    9  A    between atoms: C_21  and  C_22
REMARK   10  A    between atoms: C_26  and  C_27
REMARK                            x       y       z     vdW  Elec       q    Type
REMARK                         _______ _______ _______ _____ _____    ______ ____
ROOT
ATOM      1  C   UNL     1      46.803   6.881  13.094  0.00  0.00    +0.000 A 
ATOM      2  C   UNL     1      45.931   5.980  13.715  0.00  0.00    +0.000 A 
ATOM      3  C   UNL     1      44.815   5.485  13.032  0.00  0.00    +0.000 A 
ATOM      4  C   UNL     1      44.550   5.880  11.711  0.00  0.00    +0.000 A 
ATOM      5  C   UNL     1      45.459   6.732  11.072  0.00  0.00    +0.000 A 
ATOM      6  C   UNL     1      46.577   7.222  11.753  0.00  0.00    +0.000 A 
ENDROOT
BRANCH   1   7
ATOM      7  C   UNL     1      47.951   7.489  13.855  0.00  0.00    +0.000 C 
BRANCH   7  10
ATOM      8  C   UNL     1      48.987   6.755  15.943  0.00  0.00    +0.000 C 
ATOM      9  O   UNL     1      48.681   7.816  16.484  0.00  0.00    +0.000 OA
ATOM     10  N   UNL     1      48.669   6.513  14.634  0.00  0.00    +0.000 N 
ATOM     11  H   UNL     1      48.896   5.627  14.201  0.00  0.00    +0.000 HD
BRANCH   8  19
ATOM     12  C   UNL     1      52.225   6.441  17.088  0.00  0.00    +0.000 A 
ATOM     13  N   UNL     1      53.405   6.042  17.605  0.00  0.00    +0.000 NA
ATOM     14  C   UNL     1      53.462   4.845  18.195  0.00  0.00    +0.000 A 
ATOM     15  N   UNL     1      52.466   3.977  18.341  0.00  0.00    +0.000 NA
ATOM     16  C   UNL     1      51.313   4.406  17.800  0.00  0.00    +0.000 A 
ATOM     17  S   UNL     1      49.932   3.424  17.898  0.00  0.00    +0.000 S 
ATOM     18  C   UNL     1      49.001   4.566  17.056  0.00  0.00    +0.000 A 
ATOM     19  C   UNL     1      49.707   5.706  16.685  0.00  0.00    +0.000 A 
ATOM     20  C   UNL     1      51.090   5.612  17.142  0.00  0.00    +0.000 A 
BRANCH  12  22
ATOM     21  C   UNL     1      52.545   7.636  15.106  0.00  0.00    +0.000 C 
ATOM     22  O   UNL     1      52.168   7.679  16.482  0.00  0.00    +0.000 OA
ENDBRANCH  12  22
ENDBRANCH   8  19
ENDBRANCH   7  10
ENDBRANCH   1   7
BRANCH   4  23
ATOM     23  C   UNL     1      43.293   5.415  11.005  0.00  0.00    +0.000 C 
BRANCH  23  24
ATOM     24  N   UNL     1      43.626   4.769   9.738  0.00  0.00    +0.000 NA
ATOM     25  H   UNL     1      44.335   5.328   9.260  0.00  0.00    +0.000 HD
BRANCH  24  26
ATOM     26  C   UNL     1      44.174   3.421   9.939  0.00  0.00    +0.000 C 
BRANCH  26  27
ATOM     27  C   UNL     1      45.182   3.059   8.862  0.00  0.00    +0.000 A 
ATOM     28  C   UNL     1      45.729   4.057   8.057  0.00  0.00    +0.000 A 
ATOM     29  C   UNL     1      46.680   3.707   7.104  0.00  0.00    +0.000 A 
ATOM     30  C   UNL     1      47.050   2.374   6.971  0.00  0.00    +0.000 A 
ATOM     31  C   UNL     1      46.455   1.427   7.799  0.00  0.00    +0.000 A 
ATOM     32  C   UNL     1      46.812  -0.024   7.678  0.00  0.00    +0.000 C 
ATOM     33  N   UNL     1      45.533   1.753   8.739  0.00  0.00    +0.000 NA
ENDBRANCH  26  27
ENDBRANCH  24  26
ENDBRANCH  23  24
ENDBRANCH   4  23
TORSDOF 8
ENDMDL
MODEL 8
REMARK VINA RESULT:    -6.902      3.358      4.819
REMARK INTER + INTRA:         -11.489
REMARK INTER:                 -10.252
REMARK INTRA:                  -1.238
REMARK UNBOUND:                -1.359
REMARK  Name = 
REMARK  10 active torsions:
REMARK  status: ('A' for Active; 'I' for Inactive)
REMARK    1  A    between atoms: C_1  and  O_2
REMARK    2  A    between atoms: O_2  and  C_3
REMARK    3  A    between atoms: C_10  and  C_11
REMARK    4  A    between atoms: N_13  and  C_14
REMARK    5  A    between atoms: C_14  and  C_15
REMARK    6  A    between atoms: C_18  and  C_19
REMARK    7  A    between atoms: C_19  and  N_20
REMARK    8  A    between atoms: N_20  and  C_21
REMARK    9  A    between atoms: C_21  and  C_22
REMARK   10  A    between atoms: C_26  and  C_27
REMARK                            x       y       z     vdW  Elec       q    Type
REMARK                         _______ _______ _______ _____ _____    ______ ____
ROOT
ATOM      1  C   UNL     1      47.790   4.195  16.204  0.00  0.00    +0.000 A 
ATOM      2  C   UNL     1      47.113   3.609  15.128  0.00  0.00    +0.000 A 
ATOM      3  C   UNL     1      46.880   4.334  13.955  0.00  0.00    +0.000 A 
ATOM      4  C   UNL     1      47.322   5.660  13.832  0.00  0.00    +0.000 A 
ATOM      5  C   UNL     1      48.054   6.222  14.885  0.00  0.00    +0.000 A 
ATOM      6  C   UNL     1      48.292   5.496  16.056  0.00  0.00    +0.000 A 
ENDROOT
BRANCH   1   7
ATOM      7  C   UNL     1      47.962   3.453  17.502  0.00  0.00    +0.000 C 
BRANCH   7  10
ATOM      8  C   UNL     1      50.095   2.326  17.119  0.00  0.00    +0.000 C 
ATOM      9  O   UNL     1      49.602   1.676  16.199  0.00  0.00    +0.000 OA
ATOM     10  N   UNL     1      49.347   3.227  17.825  0.00  0.00    +0.000 N 
ATOM     11  H   UNL     1      49.764   3.782  18.563  0.00  0.00    +0.000 HD
BRANCH   8  19
ATOM     12  C   UNL     1      52.637   4.530  17.878  0.00  0.00    +0.000 A 
ATOM     13  N   UNL     1      53.800   5.146  18.175  0.00  0.00    +0.000 NA
ATOM     14  C   UNL     1      54.872   4.387  18.416  0.00  0.00    +0.000 A 
ATOM     15  N   UNL     1      54.932   3.059  18.400  0.00  0.00    +0.000 NA
ATOM     16  C   UNL     1      53.758   2.485  18.087  0.00  0.00    +0.000 A 
ATOM     17  S   UNL     1      53.650   0.792  18.026  0.00  0.00    +0.000 S 
ATOM     18  C   UNL     1      52.009   0.864  17.598  0.00  0.00    +0.000 A 
ATOM     19  C   UNL     1      51.510   2.158  17.492  0.00  0.00    +0.000 A 
ATOM     20  C   UNL     1      52.558   3.128  17.797  0.00  0.00    +0.000 A 
BRANCH  12  22
ATOM     21  C   UNL     1      51.755   6.276  16.602  0.00  0.00    +0.000 C 
ATOM     22  O   UNL     1      51.530   5.316  17.633  0.00  0.00    +0.000 OA
ENDBRANCH  12  22
ENDBRANCH   8  19
ENDBRANCH   7  10
ENDBRANCH   1   7
BRANCH   4  23
ATOM     23  C   UNL     1      46.990   6.472  12.597  0.00  0.00    +0.000 C 
BRANCH  23  24
ATOM     24  N   UNL     1      45.544   6.522  12.391  0.00  0.00    +0.000 NA
ATOM     25  H   UNL     1      45.175   7.357  12.849  0.00  0.00    +0.000 HD
BRANCH  24  26
ATOM     26  C   UNL     1      45.198   6.597  10.966  0.00  0.00    +0.000 C 
BRANCH  26  27
ATOM     27  C   UNL     1      45.120   5.218  10.334  0.00  0.00    +0.000 A 
ATOM     28  C   UNL     1      44.467   4.183  11.001  0.00  0.00    +0.000 A 
ATOM     29  C   UNL     1      44.373   2.940  10.386  0.00  0.00    +0.000 A 
ATOM     30  C   UNL     1      44.941   2.757   9.130  0.00  0.00    +0.000 A 
ATOM     31  C   UNL     1      45.589   3.830   8.526  0.00  0.00    +0.000 A 
ATOM     32  C   UNL     1      46.231   3.675   7.180  0.00  0.00    +0.000 C 
ATOM     33  N   UNL     1      45.682   5.051   9.109  0.00  0.00    +0.000 NA
ENDBRANCH  26  27
ENDBRANCH  24  26
ENDBRANCH  23  24
ENDBRANCH   4  23
TORSDOF 8
ENDMDL
MODEL 9
REMARK VINA RESULT:    -6.680      2.397      3.157
REMARK INTER + INTRA:         -11.163
REMARK INTER:                 -10.740
REMARK INTRA:                  -0.423
REMARK UNBOUND:                -1.359
REMARK  Name = 
REMARK  10 active torsions:
REMARK  status: ('A' for Active; 'I' for Inactive)
REMARK    1  A    between atoms: C_1  and  O_2
REMARK    2  A    between atoms: O_2  and  C_3
REMARK    3  A    between atoms: C_10  and  C_11
REMARK    4  A    between atoms: N_13  and  C_14
REMARK    5  A    between atoms: C_14  and  C_15
REMARK    6  A    between atoms: C_18  and  C_19
REMARK    7  A    between atoms: C_19  and  N_20
REMARK    8  A    between atoms: N_20  and  C_21
REMARK    9  A    between atoms: C_21  and  C_22
REMARK   10  A    between atoms: C_26  and  C_27
REMARK                            x       y       z     vdW  Elec       q    Type
REMARK                         _______ _______ _______ _____ _____    ______ ____
ROOT
ATOM      1  C   UNL     1      47.912   6.400  14.496  0.00  0.00    +0.000 A 
ATOM      2  C   UNL     1      47.580   6.878  13.223  0.00  0.00    +0.000 A 
ATOM      3  C   UNL     1      46.748   6.135  12.379  0.00  0.00    +0.000 A 
ATOM      4  C   UNL     1      46.228   4.899  12.792  0.00  0.00    +0.000 A 
ATOM      5  C   UNL     1      46.511   4.453  14.089  0.00  0.00    +0.000 A 
ATOM      6  C   UNL     1      47.338   5.198  14.935  0.00  0.00    +0.000 A 
ENDROOT
BRANCH   1   7
ATOM      7  C   UNL     1      48.881   7.149  15.371  0.00  0.00    +0.000 C 
BRANCH   7  10
ATOM      8  C   UNL     1      49.915   5.877  17.182  0.00  0.00    +0.000 C 
ATOM      9  O   UNL     1      49.020   6.219  17.952  0.00  0.00    +0.000 OA
ATOM     10  N   UNL     1      49.927   6.301  15.881  0.00  0.00    +0.000 N 
ATOM     11  H   UNL     1      50.649   5.993  15.242  0.00  0.00    +0.000 HD
BRANCH   8  19
ATOM     12  C   UNL     1      50.423   2.467  17.085  0.00  0.00    +0.000 A 
ATOM     13  N   UNL     1      50.861   1.197  17.211  0.00  0.00    +0.000 NA
ATOM     14  C   UNL     1      52.044   0.994  17.797  0.00  0.00    +0.000 A 
ATOM     15  N   UNL     1      52.866   1.920  18.281  0.00  0.00    +0.000 NA
ATOM     16  C   UNL     1      52.386   3.168  18.149  0.00  0.00    +0.000 A 
ATOM     17  S   UNL     1      53.310   4.477  18.709  0.00  0.00    +0.000 S 
ATOM     18  C   UNL     1      52.120   5.586  18.223  0.00  0.00    +0.000 A 
ATOM     19  C   UNL     1      51.007   4.997  17.632  0.00  0.00    +0.000 A 
ATOM     20  C   UNL     1      51.175   3.548  17.578  0.00  0.00    +0.000 A 
BRANCH  12  22
ATOM     21  C   UNL     1      48.124   2.722  17.409  0.00  0.00    +0.000 C 
ATOM     22  O   UNL     1      49.202   2.674  16.476  0.00  0.00    +0.000 OA
ENDBRANCH  12  22
ENDBRANCH   8  19
ENDBRANCH   7  10
ENDBRANCH   1   7
BRANCH   4  23
ATOM     23  C   UNL     1      45.403   4.054  11.844  0.00  0.00    +0.000 C 
BRANCH  23  24
ATOM     24  N   UNL     1      44.108   4.682  11.593  0.00  0.00    +0.000 NA
ATOM     25  H   UNL     1      44.115   5.622  11.991  0.00  0.00    +0.000 HD
BRANCH  24  26
ATOM     26  C   UNL     1      43.829   4.802  10.156  0.00  0.00    +0.000 C 
BRANCH  26  27
ATOM     27  C   UNL     1      44.632   3.801   9.343  0.00  0.00    +0.000 A 
ATOM     28  C   UNL     1      44.499   2.436   9.592  0.00  0.00    +0.000 A 
ATOM     29  C   UNL     1      45.213   1.537   8.809  0.00  0.00    +0.000 A 
ATOM     30  C   UNL     1      46.048   2.020   7.808  0.00  0.00    +0.000 A 
ATOM     31  C   UNL     1      46.144   3.396   7.621  0.00  0.00    +0.000 A 
ATOM     32  C   UNL     1      47.045   3.962   6.566  0.00  0.00    +0.000 C 
ATOM     33  N   UNL     1      45.447   4.286   8.371  0.00  0.00    +0.000 NA
ENDBRANCH  26  27
ENDBRANCH  24  26
ENDBRANCH  23  24
ENDBRANCH   4  23
TORSDOF 8
ENDMDL
