MODEL 1
REMARK VINA RESULT:    -7.997      0.000      0.000
REMARK INTER + INTRA:         -10.136
REMARK INTER:                  -9.633
REMARK INTRA:                  -0.503
REMARK UNBOUND:                -0.503
REMARK  Name = 
REMARK  4 active torsions:
REMARK  status: ('A' for Active; 'I' for Inactive)
REMARK    1  A    between atoms: C_2  and  O_3
REMARK    2  A    between atoms: C_2  and  C_4
REMARK    3  A    between atoms: C_8  and  C_9
REMARK    4  A    between atoms: C_9  and  N_10
REMARK                            x       y       z     vdW  Elec       q    Type
REMARK                         _______ _______ _______ _____ _____    ______ ____
ROOT
ATOM      1  C   UNL     1      45.406   4.306  13.006  0.00  0.00    +0.000 A 
ATOM      2  C   UNL     1      44.330   5.146  13.314  0.00  0.00    +0.000 A 
ATOM      3  C   UNL     1      43.194   5.148  12.507  0.00  0.00    +0.000 A 
ATOM      4  C   UNL     1      43.132   4.322  11.384  0.00  0.00    +0.000 A 
ATOM      5  C   UNL     1      44.201   3.476  11.058  0.00  0.00    +0.000 A 
ATOM      6  C   UNL     1      45.331   3.457  11.892  0.00  0.00    +0.000 A 
ENDROOT
BRANCH   1   8
ATOM      7  O   UNL     1      47.289   3.342  14.092  0.00  0.00    +0.000 OA
ATOM      8  C   UNL     1      46.587   4.321  13.900  0.00  0.00    +0.000 C 
BRANCH   8   9
ATOM      9  O   UNL     1      46.794   5.510  14.508  0.00  0.00    +0.000 OA
ATOM     10  H   UNL     1      46.500   6.287  13.997  0.00  0.00    +0.000 HD
ENDBRANCH   8   9
ENDBRANCH   1   8
BRANCH   5  11
ATOM     11  C   UNL     1      44.156   2.616   9.819  0.00  0.00    +0.000 C 
BRANCH  11  12
ATOM     12  N   UNL     1      45.108   3.077   8.810  0.00  0.00    +0.000 N 
ATOM     13  C   UNL     1      45.325   4.400   8.502  0.00  0.00    +0.000 A 
ATOM     14  C   UNL     1      46.369   4.464   7.610  0.00  0.00    +0.000 A 
ATOM     15  C   UNL     1      46.811   3.136   7.361  0.00  0.00    +0.000 A 
ATOM     16  C   UNL     1      47.833   2.583   6.578  0.00  0.00    +0.000 A 
ATOM     17  N   UNL     1      48.020   1.242   6.531  0.00  0.00    +0.000 NA
ATOM     18  C   UNL     1      47.199   0.448   7.248  0.00  0.00    +0.000 A 
ATOM     19  C   UNL     1      46.164   0.894   8.056  0.00  0.00    +0.000 A 
ATOM     20  C   UNL     1      45.990   2.281   8.105  0.00  0.00    +0.000 A 
ENDBRANCH  11  12
ENDBRANCH   5  11
TORSDOF 4
ENDMDL
MODEL 2
REMARK VINA RESULT:    -7.377      3.550      6.394
REMARK INTER + INTRA:          -9.389
REMARK INTER:                  -9.108
REMARK INTRA:                  -0.281
REMARK UNBOUND:                -0.503
REMARK  Name = 
REMARK  4 active torsions:
REMARK  status: ('A' for Active; 'I' for Inactive)
REMARK    1  A    between atoms: C_2  and  O_3
REMARK    2  A    between atoms: C_2  and  C_4
REMARK    3  A    between atoms: C_8  and  C_9
REMARK    4  A    between atoms: C_9  and  N_10
REMARK                            x       y       z     vdW  Elec       q    Type
REMARK                         _______ _______ _______ _____ _____    ______ ____
ROOT
ATOM      1  C   UNL     1      46.738   2.326   6.709  0.00  0.00    +0.000 A 
ATOM      2  C   UNL     1      46.764   1.074   7.332  0.00  0.00    +0.000 A 
ATOM      3  C   UNL     1      45.957   0.830   8.442  0.00  0.00    +0.000 A 
ATOM      4  C   UNL     1      45.129   1.837   8.940  0.00  0.00    +0.000 A 
ATOM      5  C   UNL     1      45.091   3.099   8.330  0.00  0.00    +0.000 A 
ATOM      6  C   UNL     1      45.885   3.329   7.195  0.00  0.00    +0.000 A 
ENDROOT
BRANCH   1   8
ATOM      7  O   UNL     1      47.329   3.338   4.640  0.00  0.00    +0.000 OA
ATOM      8  C   UNL     1      47.598   2.539   5.522  0.00  0.00    +0.000 C 
BRANCH   8   9
ATOM      9  O   UNL     1      48.688   1.742   5.491  0.00  0.00    +0.000 OA
ATOM     10  H   UNL     1      48.593   0.938   4.948  0.00  0.00    +0.000 HD
ENDBRANCH   8   9
ENDBRANCH   1   8
BRANCH   5  11
ATOM     11  C   UNL     1      44.232   4.204   8.894  0.00  0.00    +0.000 C 
BRANCH  11  12
ATOM     12  N   UNL     1      44.244   4.201  10.355  0.00  0.00    +0.000 N 
ATOM     13  C   UNL     1      43.482   3.357  11.130  0.00  0.00    +0.000 A 
ATOM     14  C   UNL     1      43.842   3.545  12.445  0.00  0.00    +0.000 A 
ATOM     15  C   UNL     1      44.860   4.537  12.479  0.00  0.00    +0.000 A 
ATOM     16  C   UNL     1      45.617   5.115  13.507  0.00  0.00    +0.000 A 
ATOM     17  N   UNL     1      46.539   6.068  13.233  0.00  0.00    +0.000 NA
ATOM     18  C   UNL     1      46.711   6.456  11.953  0.00  0.00    +0.000 A 
ATOM     19  C   UNL     1      46.019   5.943  10.866  0.00  0.00    +0.000 A 
ATOM     20  C   UNL     1      45.079   4.951  11.161  0.00  0.00    +0.000 A 
ENDBRANCH  11  12
ENDBRANCH   5  11
TORSDOF 4
ENDMDL
MODEL 3
REMARK VINA RESULT:    -7.092      3.345      5.796
REMARK INTER + INTRA:          -9.046
REMARK INTER:                  -8.488
REMARK INTRA:                  -0.558
REMARK UNBOUND:                -0.503
REMARK  Name = 
REMARK  4 active torsions:
REMARK  status: ('A' for Active; 'I' for Inactive)
REMARK    1  A    between atoms: C_2  and  O_3
REMARK    2  A    between atoms: C_2  and  C_4
REMARK    3  A    between atoms: C_8  and  C_9
REMARK    4  A    between atoms: C_9  and  N_10
REMARK                            x       y       z     vdW  Elec       q    Type
REMARK                         _______ _______ _______ _____ _____    ______ ____
ROOT
ATOM      1  C   UNL     1      46.050   3.131   8.042  0.00  0.00    +0.000 A 
ATOM      2  C   UNL     1      45.610   1.827   8.296  0.00  0.00    +0.000 A 
ATOM      3  C   UNL     1      44.648   1.595   9.277  0.00  0.00    +0.000 A 
ATOM      4  C   UNL     1      44.129   2.660  10.015  0.00  0.00    +0.000 A 
ATOM      5  C   UNL     1      44.559   3.973   9.776  0.00  0.00    +0.000 A 
ATOM      6  C   UNL     1      45.508   4.203   8.766  0.00  0.00    +0.000 A 
ENDROOT
BRANCH   1   8
ATOM      7  O   UNL     1      48.053   2.638   6.858  0.00  0.00    +0.000 OA
ATOM      8  C   UNL     1      47.061   3.338   6.978  0.00  0.00    +0.000 C 
BRANCH   8   9
ATOM      9  O   UNL     1      46.797   4.392   6.176  0.00  0.00    +0.000 OA
ATOM     10  H   UNL     1      46.258   5.094   6.587  0.00  0.00    +0.000 HD
ENDBRANCH   8   9
ENDBRANCH   1   8
BRANCH   5  11
ATOM     11  C   UNL     1      44.035   5.120  10.604  0.00  0.00    +0.000 C 
BRANCH  11  12
ATOM     12  N   UNL     1      45.107   5.780  11.346  0.00  0.00    +0.000 N 
ATOM     13  C   UNL     1      45.422   7.113  11.222  0.00  0.00    +0.000 A 
ATOM     14  C   UNL     1      46.387   7.412  12.156  0.00  0.00    +0.000 A 
ATOM     15  C   UNL     1      46.674   6.222  12.880  0.00  0.00    +0.000 A 
ATOM     16  C   UNL     1      47.532   5.917  13.945  0.00  0.00    +0.000 A 
ATOM     17  N   UNL     1      47.599   4.658  14.440  0.00  0.00    +0.000 NA
ATOM     18  C   UNL     1      46.830   3.701  13.882  0.00  0.00    +0.000 A 
ATOM     19  C   UNL     1      45.947   3.900  12.831  0.00  0.00    +0.000 A 
ATOM     20  C   UNL     1      45.878   5.207  12.339  0.00  0.00    +0.000 A 
ENDBRANCH  11  12
ENDBRANCH   5  11
TORSDOF 4
ENDMDL
MODEL 4
REMARK VINA RESULT:    -6.468      1.820      3.554
REMARK INTER + INTRA:          -8.295
REMARK INTER:                  -7.774
REMARK INTRA:                  -0.520
REMARK UNBOUND:                -0.503
REMARK  Name = 
REMARK  4 active torsions:
REMARK  status: ('A' for Active; 'I' for Inactive)
REMARK    1  A    between atoms: C_2  and  O_3
REMARK    2  A    between atoms: C_2  and  C_4
REMARK    3  A    between atoms: C_8  and  C_9
REMARK    4  A    between atoms: C_9  and  N_10
REMARK                            x       y       z     vdW  Elec       q    Type
REMARK                         _______ _______ _______ _____ _____    ______ ____
ROOT
ATOM      1  C   UNL     1      47.080   5.276  14.415  0.00  0.00    +0.000 A 
ATOM      2  C   UNL     1      47.974   6.336  14.226  0.00  0.00    +0.000 A 
ATOM      3  C   UNL     1      47.703   7.314  13.272  0.00  0.00    +0.000 A 
ATOM      4  C   UNL     1      46.547   7.232  12.494  0.00  0.00    +0.000 A 
ATOM      5  C   UNL     1      45.641   6.176  12.667  0.00  0.00    +0.000 A 
ATOM      6  C   UNL     1      45.905   5.210  13.651  0.00  0.00    +0.000 A 
ENDROOT
BRANCH   1   8
ATOM      7  O   UNL     1      47.763   3.134  15.190  0.00  0.00    +0.000 OA
ATOM      8  C   UNL     1      47.395   4.267  15.453  0.00  0.00    +0.000 C 
BRANCH   8   9
ATOM      9  O   UNL     1      47.206   4.709  16.715  0.00  0.00    +0.000 OA
ATOM     10  H   UNL     1      46.285   4.941  16.934  0.00  0.00    +0.000 HD
ENDBRANCH   8   9
ENDBRANCH   1   8
BRANCH   5  11
ATOM     11  C   UNL     1      44.415   6.060  11.796  0.00  0.00    +0.000 C 
BRANCH  11  12
ATOM     12  N   UNL     1      44.254   4.706  11.273  0.00  0.00    +0.000 N 
ATOM     13  C   UNL     1      43.445   3.750  11.843  0.00  0.00    +0.000 A 
ATOM     14  C   UNL     1      43.440   2.648  11.019  0.00  0.00    +0.000 A 
ATOM     15  C   UNL     1      44.273   2.937   9.904  0.00  0.00    +0.000 A 
ATOM     16  C   UNL     1      44.630   2.227   8.749  0.00  0.00    +0.000 A 
ATOM     17  N   UNL     1      45.471   2.770   7.836  0.00  0.00    +0.000 NA
ATOM     18  C   UNL     1      45.965   4.004   8.063  0.00  0.00    +0.000 A 
ATOM     19  C   UNL     1      45.671   4.789   9.168  0.00  0.00    +0.000 A 
ATOM     20  C   UNL     1      44.792   4.222  10.096  0.00  0.00    +0.000 A 
ENDBRANCH  11  12
ENDBRANCH   5  11
TORSDOF 4
ENDMDL
MODEL 5
REMARK VINA RESULT:    -6.325      3.596      6.127
REMARK INTER + INTRA:          -8.122
REMARK INTER:                  -7.583
REMARK INTRA:                  -0.539
REMARK UNBOUND:                -0.503
REMARK  Name = 
REMARK  4 active torsions:
REMARK  status: ('A' for Active; 'I' for Inactive)
REMARK    1  A    between atoms: C_2  and  O_3
REMARK    2  A    between atoms: C_2  and  C_4
REMARK    3  A    between atoms: C_8  and  C_9
REMARK    4  A    between atoms: C_9  and  N_10
REMARK                            x       y       z     vdW  Elec       q    Type
REMARK                         _______ _______ _______ _____ _____    ______ ____
ROOT
ATOM      1  C   UNL     1      45.668   3.274   8.312  0.00  0.00    +0.000 A 
ATOM      2  C   UNL     1      45.025   2.088   8.684  0.00  0.00    +0.000 A 
ATOM      3  C   UNL     1      44.206   2.064   9.811  0.00  0.00    +0.000 A 
ATOM      4  C   UNL     1      44.035   3.218  10.577  0.00  0.00    +0.000 A 
ATOM      5  C   UNL     1      44.672   4.414  10.221  0.00  0.00    +0.000 A 
ATOM      6  C   UNL     1      45.473   4.440   9.067  0.00  0.00    +0.000 A 
ENDROOT
BRANCH   1   8
ATOM      7  O   UNL     1      46.631   4.226   6.356  0.00  0.00    +0.000 OA
ATOM      8  C   UNL     1      46.515   3.263   7.096  0.00  0.00    +0.000 C 
BRANCH   8   9
ATOM      9  O   UNL     1      47.120   2.077   6.868  0.00  0.00    +0.000 OA
ATOM     10  H   UNL     1      46.845   1.628   6.047  0.00  0.00    +0.000 HD
ENDBRANCH   8   9
ENDBRANCH   1   8
BRANCH   5  11
ATOM     11  C   UNL     1      44.526   5.651  11.073  0.00  0.00    +0.000 C 
BRANCH  11  12
ATOM     12  N   UNL     1      45.446   5.633  12.208  0.00  0.00    +0.000 N 
ATOM     13  C   UNL     1      45.283   4.840  13.321  0.00  0.00    +0.000 A 
ATOM     14  C   UNL     1      46.395   4.989  14.117  0.00  0.00    +0.000 A 
ATOM     15  C   UNL     1      47.272   5.903  13.472  0.00  0.00    +0.000 A 
ATOM     16  C   UNL     1      48.539   6.416  13.782  0.00  0.00    +0.000 A 
ATOM     17  N   UNL     1      49.147   7.301  12.957  0.00  0.00    +0.000 NA
ATOM     18  C   UNL     1      48.507   7.687  11.834  0.00  0.00    +0.000 A 
ATOM     19  C   UNL     1      47.258   7.236  11.435  0.00  0.00    +0.000 A 
ATOM     20  C   UNL     1      46.647   6.313  12.289  0.00  0.00    +0.000 A 
ENDBRANCH  11  12
ENDBRANCH   5  11
TORSDOF 4
ENDMDL
MODEL 6
REMARK VINA RESULT:    -6.138      2.574      3.608
REMARK INTER + INTRA:          -7.897
REMARK INTER:                  -7.403
REMARK INTRA:                  -0.494
REMARK UNBOUND:                -0.503
REMARK  Name = 
REMARK  4 active torsions:
REMARK  status: ('A' for Active; 'I' for Inactive)
REMARK    1  A    between atoms: C_2  and  O_3
REMARK    2  A    between atoms: C_2  and  C_4
REMARK    3  A    between atoms: C_8  and  C_9
REMARK    4  A    between atoms: C_9  and  N_10
REMARK                            x       y       z     vdW  Elec       q    Type
REMARK                         _______ _______ _______ _____ _____    ______ ____
ROOT
ATOM      1  C   UNL     1      45.659   7.955  12.271  0.00  0.00    +0.000 A 
ATOM      2  C   UNL     1      46.523   7.220  13.091  0.00  0.00    +0.000 A 
ATOM      3  C   UNL     1      46.530   5.828  13.024  0.00  0.00    +0.000 A 
ATOM      4  C   UNL     1      45.669   5.165  12.148  0.00  0.00    +0.000 A 
ATOM      5  C   UNL     1      44.796   5.885  11.321  0.00  0.00    +0.000 A 
ATOM      6  C   UNL     1      44.814   7.288  11.373  0.00  0.00    +0.000 A 
ENDROOT
BRANCH   1   8
ATOM      7  O   UNL     1      46.707  10.088  12.166  0.00  0.00    +0.000 OA
ATOM      8  C   UNL     1      45.695   9.434  12.360  0.00  0.00    +0.000 C 
BRANCH   8   9
ATOM      9  O   UNL     1      44.512   9.986  12.707  0.00  0.00    +0.000 OA
ATOM     10  H   UNL     1      43.839   9.990  12.002  0.00  0.00    +0.000 HD
ENDBRANCH   8   9
ENDBRANCH   1   8
BRANCH   5  11
ATOM     11  C   UNL     1      43.831   5.169  10.408  0.00  0.00    +0.000 C 
BRANCH  11  12
ATOM     12  N   UNL     1      44.371   3.891   9.952  0.00  0.00    +0.000 N 
ATOM     13  C   UNL     1      43.930   2.665  10.396  0.00  0.00    +0.000 A 
ATOM     14  C   UNL     1      44.568   1.692   9.664  0.00  0.00    +0.000 A 
ATOM     15  C   UNL     1      45.430   2.340   8.737  0.00  0.00    +0.000 A 
ATOM     16  C   UNL     1      46.297   1.884   7.735  0.00  0.00    +0.000 A 
ATOM     17  N   UNL     1      47.014   2.759   6.990  0.00  0.00    +0.000 NA
ATOM     18  C   UNL     1      46.884   4.079   7.237  0.00  0.00    +0.000 A 
ATOM     19  C   UNL     1      46.052   4.631   8.199  0.00  0.00    +0.000 A 
ATOM     20  C   UNL     1      45.308   3.717   8.952  0.00  0.00    +0.000 A 
ENDBRANCH  11  12
ENDBRANCH   5  11
TORSDOF 4
ENDMDL
MODEL 7
REMARK VINA RESULT:    -6.112      4.236      6.389
REMARK INTER + INTRA:          -7.865
REMARK INTER:                  -7.328
REMARK INTRA:                  -0.537
REMARK UNBOUND:                -0.503
REMARK  Name = 
REMARK  4 active torsions:
REMARK  status: ('A' for Active; 'I' for Inactive)
REMARK    1  A    between atoms: C_2  and  O_3
REMARK    2  A    between atoms: C_2  and  C_4
REMARK    3  A    between atoms: C_8  and  C_9
REMARK    4  A    between atoms: C_9  and  N_10
REMARK                            x       y       z     vdW  Elec       q    Type
REMARK                         _______ _______ _______ _____ _____    ______ ____
ROOT
ATOM      1  C   UNL     1      44.665   4.139   9.948  0.00  0.00    +0.000 A 
ATOM      2  C   UNL     1      44.040   3.024  10.519  0.00  0.00    +0.000 A 
ATOM      3  C   UNL     1      43.664   3.047  11.861  0.00  0.00    +0.000 A 
ATOM      4  C   UNL     1      43.921   4.176  12.640  0.00  0.00    +0.000 A 
ATOM      5  C   UNL     1      44.548   5.301  12.086  0.00  0.00    +0.000 A 
ATOM      6  C   UNL     1      44.897   5.282  10.726  0.00  0.00    +0.000 A 
ENDROOT
BRANCH   1   8
ATOM      7  O   UNL     1      45.960   4.712   8.038  0.00  0.00    +0.000 OA
ATOM      8  C   UNL     1      45.031   4.081   8.514  0.00  0.00    +0.000 C 
BRANCH   8   9
ATOM      9  O   UNL     1      44.221   3.289   7.778  0.00  0.00    +0.000 OA
ATOM     10  H   UNL     1      44.633   2.464   7.461  0.00  0.00    +0.000 HD
ENDBRANCH   8   9
ENDBRANCH   1   8
BRANCH   5  11
ATOM     11  C   UNL     1      44.869   6.505  12.938  0.00  0.00    +0.000 C 
BRANCH  11  12
ATOM     12  N   UNL     1      46.286   6.851  12.865  0.00  0.00    +0.000 N 
ATOM     13  C   UNL     1      47.311   5.959  13.082  0.00  0.00    +0.000 A 
ATOM     14  C   UNL     1      48.498   6.597  12.808  0.00  0.00    +0.000 A 
ATOM     15  C   UNL     1      48.194   7.927  12.407  0.00  0.00    +0.000 A 
ATOM     16  C   UNL     1      48.969   9.016  11.990  0.00  0.00    +0.000 A 
ATOM     17  N   UNL     1      48.388  10.196  11.666  0.00  0.00    +0.000 NA
ATOM     18  C   UNL     1      47.047  10.304  11.759  0.00  0.00    +0.000 A 
ATOM     19  C   UNL     1      46.191   9.287  12.155  0.00  0.00    +0.000 A 
ATOM     20  C   UNL     1      46.804   8.071  12.474  0.00  0.00    +0.000 A 
ENDBRANCH  11  12
ENDBRANCH   5  11
TORSDOF 4
ENDMDL
MODEL 8
REMARK VINA RESULT:    -5.966      2.660      4.370
REMARK INTER + INTRA:          -7.689
REMARK INTER:                  -7.110
REMARK INTRA:                  -0.579
REMARK UNBOUND:                -0.503
REMARK  Name = 
REMARK  4 active torsions:
REMARK  status: ('A' for Active; 'I' for Inactive)
REMARK    1  A    between atoms: C_2  and  O_3
REMARK    2  A    between atoms: C_2  and  C_4
REMARK    3  A    between atoms: C_8  and  C_9
REMARK    4  A    between atoms: C_9  and  N_10
REMARK                            x       y       z     vdW  Elec       q    Type
REMARK                         _______ _______ _______ _____ _____    ______ ____
ROOT
ATOM      1  C   UNL     1      47.453   7.796  13.050  0.00  0.00    +0.000 A 
ATOM      2  C   UNL     1      48.131   6.867  13.848  0.00  0.00    +0.000 A 
ATOM      3  C   UNL     1      47.546   5.634  14.130  0.00  0.00    +0.000 A 
ATOM      4  C   UNL     1      46.280   5.328  13.628  0.00  0.00    +0.000 A 
ATOM      5  C   UNL     1      45.586   6.247  12.829  0.00  0.00    +0.000 A 
ATOM      6  C   UNL     1      46.193   7.476  12.524  0.00  0.00    +0.000 A 
ENDROOT
BRANCH   1   8
ATOM      7  O   UNL     1      49.185   9.171  12.172  0.00  0.00    +0.000 OA
ATOM      8  C   UNL     1      48.118   9.088  12.758  0.00  0.00    +0.000 C 
BRANCH   8   9
ATOM      9  O   UNL     1      47.447  10.162  13.229  0.00  0.00    +0.000 OA
ATOM     10  H   UNL     1      47.535  10.969  12.689  0.00  0.00    +0.000 HD
ENDBRANCH   8   9
ENDBRANCH   1   8
BRANCH   5  11
ATOM     11  C   UNL     1      44.198   5.938  12.324  0.00  0.00    +0.000 C 
BRANCH  11  12
ATOM     12  N   UNL     1      44.120   4.595  11.755  0.00  0.00    +0.000 N 
ATOM     13  C   UNL     1      43.446   3.548  12.340  0.00  0.00    +0.000 A 
ATOM     14  C   UNL     1      43.478   2.482  11.472  0.00  0.00    +0.000 A 
ATOM     15  C   UNL     1      44.194   2.887  10.312  0.00  0.00    +0.000 A 
ATOM     16  C   UNL     1      44.523   2.257   9.105  0.00  0.00    +0.000 A 
ATOM     17  N   UNL     1      45.240   2.908   8.158  0.00  0.00    +0.000 NA
ATOM     18  C   UNL     1      45.637   4.174   8.402  0.00  0.00    +0.000 A 
ATOM     19  C   UNL     1      45.359   4.887   9.558  0.00  0.00    +0.000 A 
ATOM     20  C   UNL     1      44.608   4.207  10.522  0.00  0.00    +0.000 A 
ENDBRANCH  11  12
ENDBRANCH   5  11
TORSDOF 4
ENDMDL
MODEL 9
REMARK VINA RESULT:    -5.842      3.877      5.459
REMARK INTER + INTRA:          -7.541
REMARK INTER:                  -6.911
REMARK INTRA:                  -0.630
REMARK UNBOUND:                -0.503
REMARK  Name = 
REMARK  4 active torsions:
REMARK  status: ('A' for Active; 'I' for Inactive)
REMARK    1  A    between atoms: C_2  and  O_3
REMARK    2  A    between atoms: C_2  and  C_4
REMARK    3  A    between atoms: C_8  and  C_9
REMARK    4  A    between atoms: C_9  and  N_10
REMARK                            x       y       z     vdW  Elec       q    Type
REMARK                         _______ _______ _______ _____ _____    ______ ____
ROOT
ATOM      1  C   UNL     1      47.666   5.047  16.419  0.00  0.00    +0.000 A 
ATOM      2  C   UNL     1      48.480   6.079  16.900  0.00  0.00    +0.000 A 
ATOM      3  C   UNL     1      49.002   7.023  16.018  0.00  0.00    +0.000 A 
ATOM      4  C   UNL     1      48.723   6.936  14.653  0.00  0.00    +0.000 A 
ATOM      5  C   UNL     1      47.911   5.908  14.153  0.00  0.00    +0.000 A 
ATOM      6  C   UNL     1      47.365   4.977  15.051  0.00  0.00    +0.000 A 
ENDROOT
BRANCH   1   8
ATOM      7  O   UNL     1      47.055   2.876  17.173  0.00  0.00    +0.000 OA
ATOM      8  C   UNL     1      47.116   4.074  17.392  0.00  0.00    +0.000 C 
BRANCH   8   9
ATOM      9  O   UNL     1      46.660   4.643  18.530  0.00  0.00    +0.000 OA
ATOM     10  H   UNL     1      47.203   5.381  18.865  0.00  0.00    +0.000 HD
ENDBRANCH   8   9
ENDBRANCH   1   8
BRANCH   5  11
ATOM     11  C   UNL     1      47.647   5.783  12.673  0.00  0.00    +0.000 C 
BRANCH  11  12
ATOM     12  N   UNL     1      46.254   6.081  12.349  0.00  0.00    +0.000 N 
ATOM     13  C   UNL     1      45.765   7.350  12.140  0.00  0.00    +0.000 A 
ATOM     14  C   UNL     1      44.455   7.242  11.735  0.00  0.00    +0.000 A 
ATOM     15  C   UNL     1      44.127   5.859  11.692  0.00  0.00    +0.000 A 
ATOM     16  C   UNL     1      42.975   5.145  11.337  0.00  0.00    +0.000 A 
ATOM     17  N   UNL     1      42.953   3.792  11.400  0.00  0.00    +0.000 NA
ATOM     18  C   UNL     1      44.059   3.144  11.818  0.00  0.00    +0.000 A 
ATOM     19  C   UNL     1      45.248   3.755  12.186  0.00  0.00    +0.000 A 
ATOM     20  C   UNL     1      45.262   5.151  12.104  0.00  0.00    +0.000 A 
ENDBRANCH  11  12
ENDBRANCH   5  11
TORSDOF 4
ENDMDL
