MODEL 1
REMARK VINA RESULT:    -7.707      0.000      0.000
REMARK INTER + INTRA:         -11.659
REMARK INTER:                 -10.636
REMARK INTRA:                  -1.022
REMARK UNBOUND:                -1.022
REMARK  Name = 
REMARK  8 active torsions:
REMARK  status: ('A' for Active; 'I' for Inactive)
REMARK    1  A    between atoms: C_1  and  O_2
REMARK    2  A    between atoms: O_2  and  C_3
REMARK    3  A    between atoms: C_7  and  N_8
REMARK    4  A    between atoms: N_8  and  C_9
REMARK    5  A    between atoms: C_9  and  C_10
REMARK    6  A    between atoms: C_15  and  C_16
REMARK    7  A    between atoms: C_20  and  C_21
REMARK    8  A    between atoms: C_21  and  O_22
REMARK                            x       y       z     vdW  Elec       q    Type
REMARK                         _______ _______ _______ _____ _____    ______ ____
ROOT
ATOM      1  C   UNL     1      44.866   4.960  11.936  0.00  0.00    +0.000 A 
ATOM      2  C   UNL     1      45.419   4.035  12.826  0.00  0.00    +0.000 A 
ATOM      3  C   UNL     1      46.622   4.325  13.453  0.00  0.00    +0.000 A 
ATOM      4  F   UNL     1      47.156   3.432  14.298  0.00  0.00    +0.000 F 
ATOM      5  C   UNL     1      47.286   5.523  13.221  0.00  0.00    +0.000 A 
ATOM      6  C   UNL     1      46.747   6.494  12.358  0.00  0.00    +0.000 A 
ATOM      7  C   UNL     1      45.523   6.187  11.730  0.00  0.00    +0.000 A 
ENDROOT
BRANCH   6   8
ATOM      8  C   UNL     1      47.415   7.799  12.142  0.00  0.00    +0.000 A 
ATOM      9  C   UNL     1      48.809   7.898  11.982  0.00  0.00    +0.000 A 
ATOM     10  C   UNL     1      49.429   9.121  11.719  0.00  0.00    +0.000 A 
ATOM     11  C   UNL     1      48.668  10.286  11.627  0.00  0.00    +0.000 A 
ATOM     12  C   UNL     1      47.284  10.239  11.815  0.00  0.00    +0.000 A 
ATOM     13  C   UNL     1      46.675   8.995  12.058  0.00  0.00    +0.000 A 
BRANCH  12  14
ATOM     14  C   UNL     1      46.418  11.466  11.665  0.00  0.00    +0.000 C 
BRANCH  14  15
ATOM     15  O   UNL     1      45.143  11.298  12.275  0.00  0.00    +0.000 OA
ATOM     16  H   UNL     1      44.550  10.950  11.588  0.00  0.00    +0.000 HD
ENDBRANCH  14  15
ENDBRANCH  12  14
ENDBRANCH   6   8
BRANCH   1  17
ATOM     17  C   UNL     1      43.575   4.657  11.221  0.00  0.00    +0.000 C 
BRANCH  17  18
ATOM     18  N   UNL     1      43.771   4.744   9.784  0.00  0.00    +0.000 N 
ATOM     19  H   UNL     1      43.933   5.692   9.447  0.00  0.00    +0.000 HD
BRANCH  18  24
ATOM     20  C   UNL     1      46.363   3.117   7.647  0.00  0.00    +0.000 A 
ATOM     21  C   UNL     1      46.141   1.808   8.047  0.00  0.00    +0.000 A 
ATOM     22  N   UNL     1      45.212   1.440   8.957  0.00  0.00    +0.000 NA
ATOM     23  C   UNL     1      44.461   2.440   9.478  0.00  0.00    +0.000 A 
ATOM     24  C   UNL     1      44.551   3.790   9.123  0.00  0.00    +0.000 A 
ATOM     25  C   UNL     1      45.550   4.110   8.196  0.00  0.00    +0.000 A 
BRANCH  20  27
ATOM     26  C   UNL     1      47.914   2.142   6.158  0.00  0.00    +0.000 C 
ATOM     27  O   UNL     1      47.346   3.321   6.721  0.00  0.00    +0.000 OA
ENDBRANCH  20  27
ENDBRANCH  18  24
ENDBRANCH  17  18
ENDBRANCH   1  17
TORSDOF 7
ENDMDL
MODEL 2
REMARK VINA RESULT:    -7.661      3.294      7.412
REMARK INTER + INTRA:         -11.595
REMARK INTER:                 -10.670
REMARK INTRA:                  -0.924
REMARK UNBOUND:                -1.022
REMARK  Name = 
REMARK  8 active torsions:
REMARK  status: ('A' for Active; 'I' for Inactive)
REMARK    1  A    between atoms: C_1  and  O_2
REMARK    2  A    between atoms: O_2  and  C_3
REMARK    3  A    between atoms: C_7  and  N_8
REMARK    4  A    between atoms: N_8  and  C_9
REMARK    5  A    between atoms: C_9  and  C_10
REMARK    6  A    between atoms: C_15  and  C_16
REMARK    7  A    between atoms: C_20  and  C_21
REMARK    8  A    between atoms: C_21  and  O_22
REMARK                            x       y       z     vdW  Elec       q    Type
REMARK                         _______ _______ _______ _____ _____    ______ ____
ROOT
ATOM      1  C   UNL     1      45.405   6.482  11.381  0.00  0.00    +0.000 A 
ATOM      2  C   UNL     1      44.058   6.472  11.752  0.00  0.00    +0.000 A 
ATOM      3  C   UNL     1      43.202   5.535  11.192  0.00  0.00    +0.000 A 
ATOM      4  F   UNL     1      41.908   5.534  11.541  0.00  0.00    +0.000 F 
ATOM      5  C   UNL     1      43.659   4.598  10.274  0.00  0.00    +0.000 A 
ATOM      6  C   UNL     1      45.014   4.553   9.900  0.00  0.00    +0.000 A 
ATOM      7  C   UNL     1      45.873   5.509  10.478  0.00  0.00    +0.000 A 
ENDROOT
BRANCH   6   8
ATOM      8  C   UNL     1      45.529   3.525   8.964  0.00  0.00    +0.000 A 
ATOM      9  C   UNL     1      45.403   2.151   9.235  0.00  0.00    +0.000 A 
ATOM     10  C   UNL     1      45.836   1.185   8.323  0.00  0.00    +0.000 A 
ATOM     11  C   UNL     1      46.425   1.572   7.121  0.00  0.00    +0.000 A 
ATOM     12  C   UNL     1      46.604   2.927   6.828  0.00  0.00    +0.000 A 
ATOM     13  C   UNL     1      46.142   3.885   7.748  0.00  0.00    +0.000 A 
BRANCH  12  14
ATOM     14  C   UNL     1      47.184   3.388   5.514  0.00  0.00    +0.000 C 
BRANCH  14  15
ATOM     15  O   UNL     1      48.271   2.571   5.094  0.00  0.00    +0.000 OA
ATOM     16  H   UNL     1      48.365   2.703   4.136  0.00  0.00    +0.000 HD
ENDBRANCH  14  15
ENDBRANCH  12  14
ENDBRANCH   6   8
BRANCH   1  17
ATOM     17  C   UNL     1      46.349   7.508  11.953  0.00  0.00    +0.000 C 
BRANCH  17  18
ATOM     18  N   UNL     1      47.587   6.869  12.364  0.00  0.00    +0.000 N 
ATOM     19  H   UNL     1      48.425   7.336  12.023  0.00  0.00    +0.000 HD
BRANCH  18  24
ATOM     20  C   UNL     1      47.386   4.719  15.410  0.00  0.00    +0.000 A 
ATOM     21  C   UNL     1      48.253   5.448  16.211  0.00  0.00    +0.000 A 
ATOM     22  N   UNL     1      48.884   6.575  15.815  0.00  0.00    +0.000 NA
ATOM     23  C   UNL     1      48.616   6.997  14.556  0.00  0.00    +0.000 A 
ATOM     24  C   UNL     1      47.726   6.383  13.669  0.00  0.00    +0.000 A 
ATOM     25  C   UNL     1      47.125   5.205  14.127  0.00  0.00    +0.000 A 
BRANCH  20  27
ATOM     26  C   UNL     1      47.262   3.287  17.282  0.00  0.00    +0.000 C 
ATOM     27  O   UNL     1      46.835   3.596  15.959  0.00  0.00    +0.000 OA
ENDBRANCH  20  27
ENDBRANCH  18  24
ENDBRANCH  17  18
ENDBRANCH   1  17
TORSDOF 7
ENDMDL
MODEL 3
REMARK VINA RESULT:    -7.605      1.629      2.153
REMARK INTER + INTRA:         -11.518
REMARK INTER:                 -10.520
REMARK INTRA:                  -0.998
REMARK UNBOUND:                -1.022
REMARK  Name = 
REMARK  8 active torsions:
REMARK  status: ('A' for Active; 'I' for Inactive)
REMARK    1  A    between atoms: C_1  and  O_2
REMARK    2  A    between atoms: O_2  and  C_3
REMARK    3  A    between atoms: C_7  and  N_8
REMARK    4  A    between atoms: N_8  and  C_9
REMARK    5  A    between atoms: C_9  and  C_10
REMARK    6  A    between atoms: C_15  and  C_16
REMARK    7  A    between atoms: C_20  and  C_21
REMARK    8  A    between atoms: C_21  and  O_22
REMARK                            x       y       z     vdW  Elec       q    Type
REMARK                         _______ _______ _______ _____ _____    ______ ____
ROOT
ATOM      1  C   UNL     1      44.928   5.020  11.566  0.00  0.00    +0.000 A 
ATOM      2  C   UNL     1      45.299   4.125  12.574  0.00  0.00    +0.000 A 
ATOM      3  C   UNL     1      46.418   4.393  13.348  0.00  0.00    +0.000 A 
ATOM      4  F   UNL     1      46.778   3.529  14.306  0.00  0.00    +0.000 F 
ATOM      5  C   UNL     1      47.175   5.541  13.148  0.00  0.00    +0.000 A 
ATOM      6  C   UNL     1      46.816   6.483  12.168  0.00  0.00    +0.000 A 
ATOM      7  C   UNL     1      45.676   6.199  11.390  0.00  0.00    +0.000 A 
ENDROOT
BRANCH   6   8
ATOM      8  C   UNL     1      47.581   7.738  11.979  0.00  0.00    +0.000 A 
ATOM      9  C   UNL     1      46.975   9.000  12.118  0.00  0.00    +0.000 A 
ATOM     10  C   UNL     1      47.712  10.181  11.997  0.00  0.00    +0.000 A 
ATOM     11  C   UNL     1      49.076  10.129  11.715  0.00  0.00    +0.000 A 
ATOM     12  C   UNL     1      49.711   8.897  11.532  0.00  0.00    +0.000 A 
ATOM     13  C   UNL     1      48.957   7.719  11.679  0.00  0.00    +0.000 A 
BRANCH  12  14
ATOM     14  C   UNL     1      51.195   8.796  11.283  0.00  0.00    +0.000 C 
BRANCH  14  15
ATOM     15  O   UNL     1      51.622   7.446  11.139  0.00  0.00    +0.000 OA
ATOM     16  H   UNL     1      52.255   7.276  11.856  0.00  0.00    +0.000 HD
ENDBRANCH  14  15
ENDBRANCH  12  14
ENDBRANCH   6   8
BRANCH   1  17
ATOM     17  C   UNL     1      43.733   4.737  10.693  0.00  0.00    +0.000 C 
BRANCH  17  18
ATOM     18  N   UNL     1      44.128   4.742   9.295  0.00  0.00    +0.000 N 
ATOM     19  H   UNL     1      44.436   5.652   8.957  0.00  0.00    +0.000 HD
BRANCH  18  24
ATOM     20  C   UNL     1      46.762   2.764   7.539  0.00  0.00    +0.000 A 
ATOM     21  C   UNL     1      46.382   1.508   7.986  0.00  0.00    +0.000 A 
ATOM     22  N   UNL     1      45.337   1.281   8.812  0.00  0.00    +0.000 NA
ATOM     23  C   UNL     1      44.631   2.373   9.194  0.00  0.00    +0.000 A 
ATOM     24  C   UNL     1      44.879   3.684   8.775  0.00  0.00    +0.000 A 
ATOM     25  C   UNL     1      45.991   3.857   7.943  0.00  0.00    +0.000 A 
BRANCH  20  27
ATOM     26  C   UNL     1      47.592   2.530   5.342  0.00  0.00    +0.000 C 
ATOM     27  O   UNL     1      47.848   2.824   6.712  0.00  0.00    +0.000 OA
ENDBRANCH  20  27
ENDBRANCH  18  24
ENDBRANCH  17  18
ENDBRANCH   1  17
TORSDOF 7
ENDMDL
MODEL 4
REMARK VINA RESULT:    -6.919      3.101      4.594
REMARK INTER + INTRA:         -10.570
REMARK INTER:                  -9.723
REMARK INTRA:                  -0.847
REMARK UNBOUND:                -1.022
REMARK  Name = 
REMARK  8 active torsions:
REMARK  status: ('A' for Active; 'I' for Inactive)
REMARK    1  A    between atoms: C_1  and  O_2
REMARK    2  A    between atoms: O_2  and  C_3
REMARK    3  A    between atoms: C_7  and  N_8
REMARK    4  A    between atoms: N_8  and  C_9
REMARK    5  A    between atoms: C_9  and  C_10
REMARK    6  A    between atoms: C_15  and  C_16
REMARK    7  A    between atoms: C_20  and  C_21
REMARK    8  A    between atoms: C_21  and  O_22
REMARK                            x       y       z     vdW  Elec       q    Type
REMARK                         _______ _______ _______ _____ _____    ______ ____
ROOT
ATOM      1  C   UNL     1      45.514   5.550  12.228  0.00  0.00    +0.000 A 
ATOM      2  C   UNL     1      46.322   6.457  11.537  0.00  0.00    +0.000 A 
ATOM      3  C   UNL     1      47.504   6.898  12.114  0.00  0.00    +0.000 A 
ATOM      4  F   UNL     1      48.272   7.775  11.454  0.00  0.00    +0.000 F 
ATOM      5  C   UNL     1      47.907   6.448  13.365  0.00  0.00    +0.000 A 
ATOM      6  C   UNL     1      47.140   5.510  14.079  0.00  0.00    +0.000 A 
ATOM      7  C   UNL     1      45.943   5.070  13.480  0.00  0.00    +0.000 A 
ENDROOT
BRANCH   6   8
ATOM      8  C   UNL     1      47.582   4.980  15.390  0.00  0.00    +0.000 A 
ATOM      9  C   UNL     1      47.125   3.742  15.878  0.00  0.00    +0.000 A 
ATOM     10  C   UNL     1      47.589   3.218  17.086  0.00  0.00    +0.000 A 
ATOM     11  C   UNL     1      48.514   3.929  17.849  0.00  0.00    +0.000 A 
ATOM     12  C   UNL     1      48.967   5.180  17.419  0.00  0.00    +0.000 A 
ATOM     13  C   UNL     1      48.505   5.682  16.190  0.00  0.00    +0.000 A 
BRANCH  12  14
ATOM     14  C   UNL     1      50.011   5.955  18.186  0.00  0.00    +0.000 C 
BRANCH  14  15
ATOM     15  O   UNL     1      49.478   6.546  19.365  0.00  0.00    +0.000 OA
ATOM     16  H   UNL     1      49.427   7.502  19.200  0.00  0.00    +0.000 HD
ENDBRANCH  14  15
ENDBRANCH  12  14
ENDBRANCH   6   8
BRANCH   1  17
ATOM     17  C   UNL     1      44.212   5.078  11.636  0.00  0.00    +0.000 C 
BRANCH  17  18
ATOM     18  N   UNL     1      44.253   5.196  10.189  0.00  0.00    +0.000 N 
ATOM     19  H   UNL     1      44.537   6.117   9.858  0.00  0.00    +0.000 HD
BRANCH  18  24
ATOM     20  C   UNL     1      46.257   3.255   7.708  0.00  0.00    +0.000 A 
ATOM     21  C   UNL     1      45.868   1.985   8.106  0.00  0.00    +0.000 A 
ATOM     22  N   UNL     1      45.007   1.737   9.118  0.00  0.00    +0.000 NA
ATOM     23  C   UNL     1      44.503   2.825   9.750  0.00  0.00    +0.000 A 
ATOM     24  C   UNL     1      44.776   4.155   9.415  0.00  0.00    +0.000 A 
ATOM     25  C   UNL     1      45.695   4.345   8.377  0.00  0.00    +0.000 A 
BRANCH  20  27
ATOM     26  C   UNL     1      47.970   2.190   6.482  0.00  0.00    +0.000 C 
ATOM     27  O   UNL     1      47.142   3.334   6.670  0.00  0.00    +0.000 OA
ENDBRANCH  20  27
ENDBRANCH  18  24
ENDBRANCH  17  18
ENDBRANCH   1  17
TORSDOF 7
ENDMDL
MODEL 5
REMARK VINA RESULT:    -6.917      4.049      7.492
REMARK INTER + INTRA:         -10.568
REMARK INTER:                  -9.792
REMARK INTRA:                  -0.776
REMARK UNBOUND:                -1.022
REMARK  Name = 
REMARK  8 active torsions:
REMARK  status: ('A' for Active; 'I' for Inactive)
REMARK    1  A    between atoms: C_1  and  O_2
REMARK    2  A    between atoms: O_2  and  C_3
REMARK    3  A    between atoms: C_7  and  N_8
REMARK    4  A    between atoms: N_8  and  C_9
REMARK    5  A    between atoms: C_9  and  C_10
REMARK    6  A    between atoms: C_15  and  C_16
REMARK    7  A    between atoms: C_20  and  C_21
REMARK    8  A    between atoms: C_21  and  O_22
REMARK                            x       y       z     vdW  Elec       q    Type
REMARK                         _______ _______ _______ _____ _____    ______ ____
ROOT
ATOM      1  C   UNL     1      47.169   7.285  13.075  0.00  0.00    +0.000 A 
ATOM      2  C   UNL     1      46.388   8.442  13.004  0.00  0.00    +0.000 A 
ATOM      3  C   UNL     1      45.283   8.471  12.166  0.00  0.00    +0.000 A 
ATOM      4  F   UNL     1      44.543   9.585  12.091  0.00  0.00    +0.000 F 
ATOM      5  C   UNL     1      44.930   7.367  11.400  0.00  0.00    +0.000 A 
ATOM      6  C   UNL     1      45.669   6.172  11.468  0.00  0.00    +0.000 A 
ATOM      7  C   UNL     1      46.787   6.156  12.325  0.00  0.00    +0.000 A 
ENDROOT
BRANCH   6   8
ATOM      8  C   UNL     1      45.274   4.968  10.699  0.00  0.00    +0.000 A 
ATOM      9  C   UNL     1      44.432   3.984  11.250  0.00  0.00    +0.000 A 
ATOM     10  C   UNL     1      44.014   2.881  10.503  0.00  0.00    +0.000 A 
ATOM     11  C   UNL     1      44.444   2.723   9.186  0.00  0.00    +0.000 A 
ATOM     12  C   UNL     1      45.311   3.658   8.612  0.00  0.00    +0.000 A 
ATOM     13  C   UNL     1      45.704   4.773   9.373  0.00  0.00    +0.000 A 
BRANCH  12  14
ATOM     14  C   UNL     1      45.753   3.555   7.173  0.00  0.00    +0.000 C 
BRANCH  14  15
ATOM     15  O   UNL     1      46.895   4.360   6.906  0.00  0.00    +0.000 OA
ATOM     16  H   UNL     1      46.981   4.978   7.652  0.00  0.00    +0.000 HD
ENDBRANCH  14  15
ENDBRANCH  12  14
ENDBRANCH   6   8
BRANCH   1  17
ATOM     17  C   UNL     1      48.390   7.238  13.956  0.00  0.00    +0.000 C 
BRANCH  17  18
ATOM     18  N   UNL     1      48.002   6.957  15.327  0.00  0.00    +0.000 N 
ATOM     19  H   UNL     1      47.104   7.357  15.592  0.00  0.00    +0.000 HD
BRANCH  18  24
ATOM     20  C   UNL     1      49.297   4.132  17.397  0.00  0.00    +0.000 A 
ATOM     21  C   UNL     1      48.382   3.171  16.995  0.00  0.00    +0.000 A 
ATOM     22  N   UNL     1      47.388   3.394  16.106  0.00  0.00    +0.000 NA
ATOM     23  C   UNL     1      47.324   4.643  15.586  0.00  0.00    +0.000 A 
ATOM     24  C   UNL     1      48.214   5.685  15.869  0.00  0.00    +0.000 A 
ATOM     25  C   UNL     1      49.203   5.400  16.817  0.00  0.00    +0.000 A 
BRANCH  20  27
ATOM     26  C   UNL     1      51.542   3.518  17.787  0.00  0.00    +0.000 C 
ATOM     27  O   UNL     1      50.237   3.747  18.310  0.00  0.00    +0.000 OA
ENDBRANCH  20  27
ENDBRANCH  18  24
ENDBRANCH  17  18
ENDBRANCH   1  17
TORSDOF 7
ENDMDL
MODEL 6
REMARK VINA RESULT:    -6.737      3.124      7.703
REMARK INTER + INTRA:         -10.319
REMARK INTER:                  -9.567
REMARK INTRA:                  -0.752
REMARK UNBOUND:                -1.022
REMARK  Name = 
REMARK  8 active torsions:
REMARK  status: ('A' for Active; 'I' for Inactive)
REMARK    1  A    between atoms: C_1  and  O_2
REMARK    2  A    between atoms: O_2  and  C_3
REMARK    3  A    between atoms: C_7  and  N_8
REMARK    4  A    between atoms: N_8  and  C_9
REMARK    5  A    between atoms: C_9  and  C_10
REMARK    6  A    between atoms: C_15  and  C_16
REMARK    7  A    between atoms: C_20  and  C_21
REMARK    8  A    between atoms: C_21  and  O_22
REMARK                            x       y       z     vdW  Elec       q    Type
REMARK                         _______ _______ _______ _____ _____    ______ ____
ROOT
ATOM      1  C   UNL     1      45.180   6.575  11.086  0.00  0.00    +0.000 A 
ATOM      2  C   UNL     1      43.892   6.395  11.598  0.00  0.00    +0.000 A 
ATOM      3  C   UNL     1      43.143   5.298  11.198  0.00  0.00    +0.000 A 
ATOM      4  F   UNL     1      41.905   5.134  11.682  0.00  0.00    +0.000 F 
ATOM      5  C   UNL     1      43.652   4.366  10.302  0.00  0.00    +0.000 A 
ATOM      6  C   UNL     1      44.956   4.491   9.790  0.00  0.00    +0.000 A 
ATOM      7  C   UNL     1      45.705   5.609  10.207  0.00  0.00    +0.000 A 
ENDROOT
BRANCH   6   8
ATOM      8  C   UNL     1      45.534   3.477   8.876  0.00  0.00    +0.000 A 
ATOM      9  C   UNL     1      45.476   2.102   9.169  0.00  0.00    +0.000 A 
ATOM     10  C   UNL     1      45.969   1.146   8.278  0.00  0.00    +0.000 A 
ATOM     11  C   UNL     1      46.550   1.543   7.075  0.00  0.00    +0.000 A 
ATOM     12  C   UNL     1      46.661   2.901   6.761  0.00  0.00    +0.000 A 
ATOM     13  C   UNL     1      46.140   3.848   7.661  0.00  0.00    +0.000 A 
BRANCH  12  14
ATOM     14  C   UNL     1      47.230   3.370   5.445  0.00  0.00    +0.000 C 
BRANCH  14  15
ATOM     15  O   UNL     1      48.346   2.587   5.037  0.00  0.00    +0.000 OA
ATOM     16  H   UNL     1      49.142   3.082   5.290  0.00  0.00    +0.000 HD
ENDBRANCH  14  15
ENDBRANCH  12  14
ENDBRANCH   6   8
BRANCH   1  17
ATOM     17  C   UNL     1      46.002   7.773  11.483  0.00  0.00    +0.000 C 
BRANCH  17  18
ATOM     18  N   UNL     1      46.006   7.915  12.928  0.00  0.00    +0.000 N 
ATOM     19  H   UNL     1      45.174   7.543  13.382  0.00  0.00    +0.000 HD
BRANCH  18  24
ATOM     20  C   UNL     1      49.021   8.356  15.085  0.00  0.00    +0.000 A 
ATOM     21  C   UNL     1      49.356   7.016  15.214  0.00  0.00    +0.000 A 
ATOM     22  N   UNL     1      48.664   6.003  14.647  0.00  0.00    +0.000 NA
ATOM     23  C   UNL     1      47.590   6.359  13.902  0.00  0.00    +0.000 A 
ATOM     24  C   UNL     1      47.177   7.672  13.653  0.00  0.00    +0.000 A 
ATOM     25  C   UNL     1      47.918   8.675  14.290  0.00  0.00    +0.000 A 
BRANCH  20  27
ATOM     26  C   UNL     1      49.140  10.238  16.504  0.00  0.00    +0.000 C 
ATOM     27  O   UNL     1      49.821   9.257  15.728  0.00  0.00    +0.000 OA
ENDBRANCH  20  27
ENDBRANCH  18  24
ENDBRANCH  17  18
ENDBRANCH   1  17
TORSDOF 7
ENDMDL
MODEL 7
REMARK VINA RESULT:    -6.638      2.669      7.303
REMARK INTER + INTRA:         -10.183
REMARK INTER:                  -9.322
REMARK INTRA:                  -0.860
REMARK UNBOUND:                -1.022
REMARK  Name = 
REMARK  8 active torsions:
REMARK  status: ('A' for Active; 'I' for Inactive)
REMARK    1  A    between atoms: C_1  and  O_2
REMARK    2  A    between atoms: O_2  and  C_3
REMARK    3  A    between atoms: C_7  and  N_8
REMARK    4  A    between atoms: N_8  and  C_9
REMARK    5  A    between atoms: C_9  and  C_10
REMARK    6  A    between atoms: C_15  and  C_16
REMARK    7  A    between atoms: C_20  and  C_21
REMARK    8  A    between atoms: C_21  and  O_22
REMARK                            x       y       z     vdW  Elec       q    Type
REMARK                         _______ _______ _______ _____ _____    ______ ____
ROOT
ATOM      1  C   UNL     1      44.502   5.966  11.237  0.00  0.00    +0.000 A 
ATOM      2  C   UNL     1      43.828   5.191  12.184  0.00  0.00    +0.000 A 
ATOM      3  C   UNL     1      43.709   3.822  11.990  0.00  0.00    +0.000 A 
ATOM      4  F   UNL     1      43.053   3.084  12.895  0.00  0.00    +0.000 F 
ATOM      5  C   UNL     1      44.257   3.203  10.874  0.00  0.00    +0.000 A 
ATOM      6  C   UNL     1      44.973   3.941   9.914  0.00  0.00    +0.000 A 
ATOM      7  C   UNL     1      45.087   5.329  10.126  0.00  0.00    +0.000 A 
ENDROOT
BRANCH   6   8
ATOM      8  C   UNL     1      45.610   3.287   8.747  0.00  0.00    +0.000 A 
ATOM      9  C   UNL     1      45.992   4.020   7.608  0.00  0.00    +0.000 A 
ATOM     10  C   UNL     1      46.645   3.411   6.534  0.00  0.00    +0.000 A 
ATOM     11  C   UNL     1      46.919   2.045   6.565  0.00  0.00    +0.000 A 
ATOM     12  C   UNL     1      46.524   1.272   7.661  0.00  0.00    +0.000 A 
ATOM     13  C   UNL     1      45.886   1.906   8.741  0.00  0.00    +0.000 A 
BRANCH  12  14
ATOM     14  C   UNL     1      46.853  -0.197   7.759  0.00  0.00    +0.000 C 
BRANCH  14  15
ATOM     15  O   UNL     1      46.486  -0.906   6.580  0.00  0.00    +0.000 OA
ATOM     16  H   UNL     1      46.625  -0.298   5.835  0.00  0.00    +0.000 HD
ENDBRANCH  14  15
ENDBRANCH  12  14
ENDBRANCH   6   8
BRANCH   1  17
ATOM     17  C   UNL     1      44.620   7.457  11.410  0.00  0.00    +0.000 C 
BRANCH  17  18
ATOM     18  N   UNL     1      45.315   7.760  12.649  0.00  0.00    +0.000 N 
ATOM     19  H   UNL     1      44.851   7.399  13.481  0.00  0.00    +0.000 HD
BRANCH  18  24
ATOM     20  C   UNL     1      48.957   8.577  12.583  0.00  0.00    +0.000 A 
ATOM     21  C   UNL     1      49.428   7.371  13.081  0.00  0.00    +0.000 A 
ATOM     22  N   UNL     1      48.636   6.333  13.429  0.00  0.00    +0.000 NA
ATOM     23  C   UNL     1      47.305   6.514  13.253  0.00  0.00    +0.000 A 
ATOM     24  C   UNL     1      46.708   7.658  12.714  0.00  0.00    +0.000 A 
ATOM     25  C   UNL     1      47.579   8.708  12.399  0.00  0.00    +0.000 A 
BRANCH  20  27
ATOM     26  C   UNL     1      50.765   9.885  13.352  0.00  0.00    +0.000 C 
ATOM     27  O   UNL     1      49.890   9.529  12.285  0.00  0.00    +0.000 OA
ENDBRANCH  20  27
ENDBRANCH  18  24
ENDBRANCH  17  18
ENDBRANCH   1  17
TORSDOF 7
ENDMDL
MODEL 8
REMARK VINA RESULT:    -6.534      4.434      7.773
REMARK INTER + INTRA:         -10.039
REMARK INTER:                  -9.354
REMARK INTRA:                  -0.685
REMARK UNBOUND:                -1.022
REMARK  Name = 
REMARK  8 active torsions:
REMARK  status: ('A' for Active; 'I' for Inactive)
REMARK    1  A    between atoms: C_1  and  O_2
REMARK    2  A    between atoms: O_2  and  C_3
REMARK    3  A    between atoms: C_7  and  N_8
REMARK    4  A    between atoms: N_8  and  C_9
REMARK    5  A    between atoms: C_9  and  C_10
REMARK    6  A    between atoms: C_15  and  C_16
REMARK    7  A    between atoms: C_20  and  C_21
REMARK    8  A    between atoms: C_21  and  O_22
REMARK                            x       y       z     vdW  Elec       q    Type
REMARK                         _______ _______ _______ _____ _____    ______ ____
ROOT
ATOM      1  C   UNL     1      47.483   7.269  13.376  0.00  0.00    +0.000 A 
ATOM      2  C   UNL     1      46.819   8.498  13.398  0.00  0.00    +0.000 A 
ATOM      3  C   UNL     1      45.726   8.700  12.568  0.00  0.00    +0.000 A 
ATOM      4  F   UNL     1      45.098   9.883  12.583  0.00  0.00    +0.000 F 
ATOM      5  C   UNL     1      45.272   7.699  11.718  0.00  0.00    +0.000 A 
ATOM      6  C   UNL     1      45.891   6.437  11.690  0.00  0.00    +0.000 A 
ATOM      7  C   UNL     1      46.998   6.245  12.541  0.00  0.00    +0.000 A 
ENDROOT
BRANCH   6   8
ATOM      8  C   UNL     1      45.385   5.341  10.830  0.00  0.00    +0.000 A 
ATOM      9  C   UNL     1      45.688   5.280   9.458  0.00  0.00    +0.000 A 
ATOM     10  C   UNL     1      45.260   4.215   8.662  0.00  0.00    +0.000 A 
ATOM     11  C   UNL     1      44.498   3.188   9.219  0.00  0.00    +0.000 A 
ATOM     12  C   UNL     1      44.143   3.228  10.570  0.00  0.00    +0.000 A 
ATOM     13  C   UNL     1      44.602   4.297  11.359  0.00  0.00    +0.000 A 
BRANCH  12  14
ATOM     14  C   UNL     1      43.371   2.109  11.223  0.00  0.00    +0.000 C 
BRANCH  14  15
ATOM     15  O   UNL     1      43.507   2.121  12.640  0.00  0.00    +0.000 OA
ATOM     16  H   UNL     1      43.975   1.305  12.882  0.00  0.00    +0.000 HD
ENDBRANCH  14  15
ENDBRANCH  12  14
ENDBRANCH   6   8
BRANCH   1  17
ATOM     17  C   UNL     1      48.690   7.034  14.248  0.00  0.00    +0.000 C 
BRANCH  17  18
ATOM     18  N   UNL     1      48.288   6.961  15.642  0.00  0.00    +0.000 N 
ATOM     19  H   UNL     1      47.544   7.609  15.891  0.00  0.00    +0.000 HD
BRANCH  18  24
ATOM     20  C   UNL     1      48.293   4.240  18.198  0.00  0.00    +0.000 A 
ATOM     21  C   UNL     1      47.668   3.265  17.436  0.00  0.00    +0.000 A 
ATOM     22  N   UNL     1      47.254   3.448  16.162  0.00  0.00    +0.000 NA
ATOM     23  C   UNL     1      47.497   4.669  15.627  0.00  0.00    +0.000 A 
ATOM     24  C   UNL     1      48.162   5.718  16.270  0.00  0.00    +0.000 A 
ATOM     25  C   UNL     1      48.540   5.476  17.596  0.00  0.00    +0.000 A 
BRANCH  20  27
ATOM     26  C   UNL     1      49.487   4.825  20.149  0.00  0.00    +0.000 C 
ATOM     27  O   UNL     1      48.643   3.897  19.473  0.00  0.00    +0.000 OA
ENDBRANCH  20  27
ENDBRANCH  18  24
ENDBRANCH  17  18
ENDBRANCH   1  17
TORSDOF 7
ENDMDL
MODEL 9
REMARK VINA RESULT:    -6.492      3.778      5.553
REMARK INTER + INTRA:          -9.982
REMARK INTER:                  -9.051
REMARK INTRA:                  -0.931
REMARK UNBOUND:                -1.022
REMARK  Name = 
REMARK  8 active torsions:
REMARK  status: ('A' for Active; 'I' for Inactive)
REMARK    1  A    between atoms: C_1  and  O_2
REMARK    2  A    between atoms: O_2  and  C_3
REMARK    3  A    between atoms: C_7  and  N_8
REMARK    4  A    between atoms: N_8  and  C_9
REMARK    5  A    between atoms: C_9  and  C_10
REMARK    6  A    between atoms: C_15  and  C_16
REMARK    7  A    between atoms: C_20  and  C_21
REMARK    8  A    between atoms: C_21  and  O_22
REMARK                            x       y       z     vdW  Elec       q    Type
REMARK                         _______ _______ _______ _____ _____    ______ ____
ROOT
ATOM      1  C   UNL     1      47.656   7.021  12.267  0.00  0.00    +0.000 A 
ATOM      2  C   UNL     1      48.822   7.641  11.808  0.00  0.00    +0.000 A 
ATOM      3  C   UNL     1      49.875   7.853  12.685  0.00  0.00    +0.000 A 
ATOM      4  F   UNL     1      50.986   8.458  12.245  0.00  0.00    +0.000 F 
ATOM      5  C   UNL     1      49.799   7.452  14.013  0.00  0.00    +0.000 A 
ATOM      6  C   UNL     1      48.658   6.795  14.507  0.00  0.00    +0.000 A 
ATOM      7  C   UNL     1      47.597   6.584  13.604  0.00  0.00    +0.000 A 
ENDROOT
BRANCH   6   8
ATOM      8  C   UNL     1      48.582   6.312  15.906  0.00  0.00    +0.000 A 
ATOM      9  C   UNL     1      48.747   7.184  16.997  0.00  0.00    +0.000 A 
ATOM     10  C   UNL     1      48.616   6.737  18.314  0.00  0.00    +0.000 A 
ATOM     11  C   UNL     1      48.335   5.397  18.574  0.00  0.00    +0.000 A 
ATOM     12  C   UNL     1      48.200   4.488  17.520  0.00  0.00    +0.000 A 
ATOM     13  C   UNL     1      48.314   4.961  16.200  0.00  0.00    +0.000 A 
BRANCH  12  14
ATOM     14  C   UNL     1      47.838   3.043  17.756  0.00  0.00    +0.000 C 
BRANCH  14  15
ATOM     15  O   UNL     1      46.431   2.834  17.733  0.00  0.00    +0.000 OA
ATOM     16  H   UNL     1      46.074   3.416  17.041  0.00  0.00    +0.000 HD
ENDBRANCH  14  15
ENDBRANCH  12  14
ENDBRANCH   6   8
BRANCH   1  17
ATOM     17  C   UNL     1      46.488   6.805  11.341  0.00  0.00    +0.000 C 
BRANCH  17  18
ATOM     18  N   UNL     1      45.293   6.505  12.111  0.00  0.00    +0.000 N 
ATOM     19  H   UNL     1      44.622   7.270  12.146  0.00  0.00    +0.000 HD
BRANCH  18  24
ATOM     20  C   UNL     1      44.225   3.158  10.848  0.00  0.00    +0.000 A 
ATOM     21  C   UNL     1      43.596   2.715  12.002  0.00  0.00    +0.000 A 
ATOM     22  N   UNL     1      43.507   3.435  13.142  0.00  0.00    +0.000 NA
ATOM     23  C   UNL     1      44.067   4.668  13.112  0.00  0.00    +0.000 A 
ATOM     24  C   UNL     1      44.684   5.251  12.000  0.00  0.00    +0.000 A 
ATOM     25  C   UNL     1      44.769   4.445  10.859  0.00  0.00    +0.000 A 
BRANCH  20  27
ATOM     26  C   UNL     1      45.168   2.616   8.753  0.00  0.00    +0.000 C 
ATOM     27  O   UNL     1      44.233   2.305   9.782  0.00  0.00    +0.000 OA
ENDBRANCH  20  27
ENDBRANCH  18  24
ENDBRANCH  17  18
ENDBRANCH   1  17
TORSDOF 7
ENDMDL
