MODEL 1
REMARK VINA RESULT:    -8.435      0.000      0.000
REMARK INTER + INTRA:         -12.467
REMARK INTER:                 -11.394
REMARK INTRA:                  -1.073
REMARK UNBOUND:                -1.073
REMARK  Name = 
REMARK  6 active torsions:
REMARK  status: ('A' for Active; 'I' for Inactive)
REMARK    1  A    between atoms: C_2  and  C_4
REMARK    2  A    between atoms: N_8  and  C_9
REMARK    3  A    between atoms: C_9  and  C_10
REMARK    4  A    between atoms: C_14  and  C_15
REMARK    5  A    between atoms: C_19  and  O_20
REMARK    6  A    between atoms: O_20  and  C_21
REMARK                            x       y       z     vdW  Elec       q    Type
REMARK                         _______ _______ _______ _____ _____    ______ ____
ROOT
ATOM      1  C   UNL     1      43.853   4.892  11.399  0.00  0.00    +0.000 C 
ATOM      2  C   UNL     1      42.530   5.203  12.093  0.00  0.00    +0.000 C 
ATOM      3  C   UNL     1      43.017   6.092  10.998  0.00  0.00    +0.000 C 
ENDROOT
BRANCH   1   8
ATOM      4  C   UNL     1      46.436   2.697   7.547  0.00  0.00    +0.000 A 
ATOM      5  C   UNL     1      45.901   1.769   8.405  0.00  0.00    +0.000 A 
ATOM      6  N   UNL     1      45.091   2.088   9.437  0.00  0.00    +0.000 NA
ATOM      7  C   UNL     1      44.831   3.394   9.637  0.00  0.00    +0.000 A 
ATOM      8  N   UNL     1      43.881   3.650  10.624  0.00  0.00    +0.000 N 
ATOM      9  N   UNL     1      45.369   4.378   8.898  0.00  0.00    +0.000 NA
ATOM     10  C   UNL     1      46.162   4.007   7.864  0.00  0.00    +0.000 A 
ATOM     11  H   UNL     1      43.754   2.778  11.125  0.00  0.00    +0.000 HD
BRANCH   4  13
ATOM     12  N   UNL     1      47.190   3.192   5.294  0.00  0.00    +0.000 N 
ATOM     13  C   UNL     1      47.238   2.345   6.367  0.00  0.00    +0.000 C 
ATOM     14  O   UNL     1      47.965   1.361   6.371  0.00  0.00    +0.000 OA
ATOM     15  H   UNL     1      47.843   3.000   4.545  0.00  0.00    +0.000 HD
ATOM     16  H   UNL     1      46.818   4.131   5.344  0.00  0.00    +0.000 HD
ENDBRANCH   4  13
ENDBRANCH   1   8
BRANCH   1  17
ATOM     17  C   UNL     1      45.140   5.171  12.170  0.00  0.00    +0.000 A 
ATOM     18  C   UNL     1      45.632   4.261  13.116  0.00  0.00    +0.000 A 
ATOM     19  C   UNL     1      46.855   4.472  13.749  0.00  0.00    +0.000 A 
ATOM     20  C   UNL     1      47.616   5.602  13.442  0.00  0.00    +0.000 A 
ATOM     21  C   UNL     1      47.164   6.553  12.512  0.00  0.00    +0.000 A 
ATOM     22  C   UNL     1      45.907   6.327  11.921  0.00  0.00    +0.000 A 
BRANCH  21  23
ATOM     23  C   UNL     1      47.997   7.700  12.101  0.00  0.00    +0.000 A 
ATOM     24  C   UNL     1      47.510   9.009  12.165  0.00  0.00    +0.000 A 
ATOM     25  N   UNL     1      48.213  10.120  11.839  0.00  0.00    +0.000 NA
ATOM     26  C   UNL     1      49.491   9.927  11.446  0.00  0.00    +0.000 A 
ATOM     27  C   UNL     1      50.104   8.683  11.372  0.00  0.00    +0.000 A 
ATOM     28  C   UNL     1      49.331   7.560  11.677  0.00  0.00    +0.000 A 
BRANCH  27  29
ATOM     29  O   UNL     1      51.410   8.679  10.980  0.00  0.00    +0.000 OA
BRANCH  29  30
ATOM     30  C   UNL     1      51.913   7.426  10.553  0.00  0.00    +0.000 C 
ATOM     31  F   UNL     1      51.976   7.421   9.199  0.00  0.00    +0.000 F 
ATOM     32  F   UNL     1      53.188   7.328  11.006  0.00  0.00    +0.000 F 
ENDBRANCH  29  30
ENDBRANCH  27  29
ENDBRANCH  21  23
ENDBRANCH   1  17
TORSDOF 6
ENDMDL
MODEL 2
REMARK VINA RESULT:    -8.394      3.519      4.823
REMARK INTER + INTRA:         -12.412
REMARK INTER:                 -11.549
REMARK INTRA:                  -0.863
REMARK UNBOUND:                -1.073
REMARK  Name = 
REMARK  6 active torsions:
REMARK  status: ('A' for Active; 'I' for Inactive)
REMARK    1  A    between atoms: C_2  and  C_4
REMARK    2  A    between atoms: N_8  and  C_9
REMARK    3  A    between atoms: C_9  and  C_10
REMARK    4  A    between atoms: C_14  and  C_15
REMARK    5  A    between atoms: C_19  and  O_20
REMARK    6  A    between atoms: O_20  and  C_21
REMARK                            x       y       z     vdW  Elec       q    Type
REMARK                         _______ _______ _______ _____ _____    ______ ____
ROOT
ATOM      1  C   UNL     1      43.935   4.895  11.391  0.00  0.00    +0.000 C 
ATOM      2  C   UNL     1      42.647   5.161  12.165  0.00  0.00    +0.000 C 
ATOM      3  C   UNL     1      43.018   6.045  11.022  0.00  0.00    +0.000 C 
ENDROOT
BRANCH   1   8
ATOM      4  C   UNL     1      46.466   2.676   7.518  0.00  0.00    +0.000 A 
ATOM      5  C   UNL     1      45.974   1.754   8.409  0.00  0.00    +0.000 A 
ATOM      6  N   UNL     1      45.185   2.078   9.456  0.00  0.00    +0.000 NA
ATOM      7  C   UNL     1      44.900   3.382   9.635  0.00  0.00    +0.000 A 
ATOM      8  N   UNL     1      43.970   3.637  10.642  0.00  0.00    +0.000 N 
ATOM      9  N   UNL     1      45.396   4.361   8.861  0.00  0.00    +0.000 NA
ATOM     10  C   UNL     1      46.170   3.986   7.815  0.00  0.00    +0.000 A 
ATOM     11  H   UNL     1      43.877   2.774  11.164  0.00  0.00    +0.000 HD
BRANCH   4  13
ATOM     12  N   UNL     1      47.238   3.196   5.277  0.00  0.00    +0.000 N 
ATOM     13  C   UNL     1      47.244   2.316   6.325  0.00  0.00    +0.000 C 
ATOM     14  O   UNL     1      47.917   1.295   6.297  0.00  0.00    +0.000 OA
ATOM     15  H   UNL     1      47.879   2.992   4.520  0.00  0.00    +0.000 HD
ATOM     16  H   UNL     1      46.918   4.152   5.357  0.00  0.00    +0.000 HD
ENDBRANCH   4  13
ENDBRANCH   1   8
BRANCH   1  17
ATOM     17  C   UNL     1      45.254   5.251  12.068  0.00  0.00    +0.000 A 
ATOM     18  C   UNL     1      46.007   6.361  11.657  0.00  0.00    +0.000 A 
ATOM     19  C   UNL     1      47.161   6.740  12.338  0.00  0.00    +0.000 A 
ATOM     20  C   UNL     1      47.585   6.015  13.453  0.00  0.00    +0.000 A 
ATOM     21  C   UNL     1      46.877   4.887  13.900  0.00  0.00    +0.000 A 
ATOM     22  C   UNL     1      45.737   4.510  13.166  0.00  0.00    +0.000 A 
BRANCH  21  23
ATOM     23  C   UNL     1      47.253   4.169  15.134  0.00  0.00    +0.000 A 
ATOM     24  C   UNL     1      46.547   4.358  16.326  0.00  0.00    +0.000 A 
ATOM     25  N   UNL     1      46.801   3.719  17.493  0.00  0.00    +0.000 NA
ATOM     26  C   UNL     1      47.806   2.817  17.476  0.00  0.00    +0.000 A 
ATOM     27  C   UNL     1      48.561   2.512  16.351  0.00  0.00    +0.000 A 
ATOM     28  C   UNL     1      48.293   3.223  15.179  0.00  0.00    +0.000 A 
BRANCH  27  29
ATOM     29  O   UNL     1      49.519   1.555  16.511  0.00  0.00    +0.000 OA
BRANCH  29  30
ATOM     30  C   UNL     1      50.582   1.898  17.382  0.00  0.00    +0.000 C 
ATOM     31  F   UNL     1      51.615   1.049  17.162  0.00  0.00    +0.000 F 
ATOM     32  F   UNL     1      51.010   3.136  17.028  0.00  0.00    +0.000 F 
ENDBRANCH  29  30
ENDBRANCH  27  29
ENDBRANCH  21  23
ENDBRANCH   1  17
TORSDOF 6
ENDMDL
MODEL 3
REMARK VINA RESULT:    -8.343      3.766      4.980
REMARK INTER + INTRA:         -12.343
REMARK INTER:                 -11.692
REMARK INTRA:                  -0.651
REMARK UNBOUND:                -1.073
REMARK  Name = 
REMARK  6 active torsions:
REMARK  status: ('A' for Active; 'I' for Inactive)
REMARK    1  A    between atoms: C_2  and  C_4
REMARK    2  A    between atoms: N_8  and  C_9
REMARK    3  A    between atoms: C_9  and  C_10
REMARK    4  A    between atoms: C_14  and  C_15
REMARK    5  A    between atoms: C_19  and  O_20
REMARK    6  A    between atoms: O_20  and  C_21
REMARK                            x       y       z     vdW  Elec       q    Type
REMARK                         _______ _______ _______ _____ _____    ______ ____
ROOT
ATOM      1  C   UNL     1      43.960   4.927  11.379  0.00  0.00    +0.000 C 
ATOM      2  C   UNL     1      42.707   5.163  12.217  0.00  0.00    +0.000 C 
ATOM      3  C   UNL     1      42.979   6.031  11.035  0.00  0.00    +0.000 C 
ENDROOT
BRANCH   1   8
ATOM      4  C   UNL     1      46.455   2.667   7.506  0.00  0.00    +0.000 A 
ATOM      5  C   UNL     1      45.999   1.757   8.427  0.00  0.00    +0.000 A 
ATOM      6  N   UNL     1      45.226   2.090   9.483  0.00  0.00    +0.000 NA
ATOM      7  C   UNL     1      44.919   3.392   9.638  0.00  0.00    +0.000 A 
ATOM      8  N   UNL     1      44.006   3.653  10.658  0.00  0.00    +0.000 N 
ATOM      9  N   UNL     1      45.380   4.362   8.832  0.00  0.00    +0.000 NA
ATOM     10  C   UNL     1      46.139   3.978   7.778  0.00  0.00    +0.000 A 
ATOM     11  H   UNL     1      43.940   2.801  11.202  0.00  0.00    +0.000 HD
BRANCH   4  13
ATOM     12  N   UNL     1      47.184   3.158   5.244  0.00  0.00    +0.000 N 
ATOM     13  C   UNL     1      47.215   2.295   6.305  0.00  0.00    +0.000 C 
ATOM     14  O   UNL     1      47.896   1.279   6.282  0.00  0.00    +0.000 OA
ATOM     15  H   UNL     1      47.813   2.946   4.479  0.00  0.00    +0.000 HD
ATOM     16  H   UNL     1      46.857   4.112   5.314  0.00  0.00    +0.000 HD
ENDBRANCH   4  13
ENDBRANCH   1   8
BRANCH   1  17
ATOM     17  C   UNL     1      45.300   5.352  11.973  0.00  0.00    +0.000 A 
ATOM     18  C   UNL     1      46.048   6.395  11.410  0.00  0.00    +0.000 A 
ATOM     19  C   UNL     1      47.222   6.844  12.009  0.00  0.00    +0.000 A 
ATOM     20  C   UNL     1      47.672   6.257  13.194  0.00  0.00    +0.000 A 
ATOM     21  C   UNL     1      46.969   5.200  13.794  0.00  0.00    +0.000 A 
ATOM     22  C   UNL     1      45.807   4.746  13.141  0.00  0.00    +0.000 A 
BRANCH  21  23
ATOM     23  C   UNL     1      47.373   4.634  15.096  0.00  0.00    +0.000 A 
ATOM     24  C   UNL     1      47.475   3.252  15.286  0.00  0.00    +0.000 A 
ATOM     25  N   UNL     1      47.867   2.649  16.433  0.00  0.00    +0.000 NA
ATOM     26  C   UNL     1      48.203   3.466  17.456  0.00  0.00    +0.000 A 
ATOM     27  C   UNL     1      48.177   4.852  17.386  0.00  0.00    +0.000 A 
ATOM     28  C   UNL     1      47.727   5.433  16.198  0.00  0.00    +0.000 A 
BRANCH  27  29
ATOM     29  O   UNL     1      48.574   5.518  18.507  0.00  0.00    +0.000 OA
BRANCH  29  30
ATOM     30  C   UNL     1      47.544   6.176  19.221  0.00  0.00    +0.000 C 
ATOM     31  F   UNL     1      47.473   7.461  18.797  0.00  0.00    +0.000 F 
ATOM     32  F   UNL     1      46.373   5.584  18.877  0.00  0.00    +0.000 F 
ENDBRANCH  29  30
ENDBRANCH  27  29
ENDBRANCH  21  23
ENDBRANCH   1  17
TORSDOF 6
ENDMDL
MODEL 4
REMARK VINA RESULT:    -7.805      3.939      7.607
REMARK INTER + INTRA:         -11.615
REMARK INTER:                 -11.663
REMARK INTRA:                   0.048
REMARK UNBOUND:                -1.073
REMARK  Name = 
REMARK  6 active torsions:
REMARK  status: ('A' for Active; 'I' for Inactive)
REMARK    1  A    between atoms: C_2  and  C_4
REMARK    2  A    between atoms: N_8  and  C_9
REMARK    3  A    between atoms: C_9  and  C_10
REMARK    4  A    between atoms: C_14  and  C_15
REMARK    5  A    between atoms: C_19  and  O_20
REMARK    6  A    between atoms: O_20  and  C_21
REMARK                            x       y       z     vdW  Elec       q    Type
REMARK                         _______ _______ _______ _____ _____    ______ ____
ROOT
ATOM      1  C   UNL     1      48.700   7.849  12.830  0.00  0.00    +0.000 C 
ATOM      2  C   UNL     1      49.790   7.232  11.959  0.00  0.00    +0.000 C 
ATOM      3  C   UNL     1      49.581   8.708  11.945  0.00  0.00    +0.000 C 
ENDROOT
BRANCH   1   8
ATOM      4  C   UNL     1      48.117   4.450  16.629  0.00  0.00    +0.000 A 
ATOM      5  C   UNL     1      49.119   5.350  16.891  0.00  0.00    +0.000 A 
ATOM      6  N   UNL     1      49.399   6.405  16.096  0.00  0.00    +0.000 NA
ATOM      7  C   UNL     1      48.664   6.548  14.977  0.00  0.00    +0.000 A 
ATOM      8  N   UNL     1      48.904   7.728  14.275  0.00  0.00    +0.000 N 
ATOM      9  N   UNL     1      47.714   5.677  14.600  0.00  0.00    +0.000 NA
ATOM     10  C   UNL     1      47.459   4.643  15.437  0.00  0.00    +0.000 A 
ATOM     11  H   UNL     1      49.751   8.121  14.666  0.00  0.00    +0.000 HD
BRANCH   4  13
ATOM     12  N   UNL     1      48.631   3.036  18.534  0.00  0.00    +0.000 N 
ATOM     13  C   UNL     1      47.747   3.358  17.541  0.00  0.00    +0.000 C 
ATOM     14  O   UNL     1      46.662   2.801  17.447  0.00  0.00    +0.000 OA
ATOM     15  H   UNL     1      48.304   2.372  19.224  0.00  0.00    +0.000 HD
ATOM     16  H   UNL     1      49.403   3.632  18.805  0.00  0.00    +0.000 HD
ENDBRANCH   4  13
ENDBRANCH   1   8
BRANCH   1  17
ATOM     17  C   UNL     1      47.251   7.660  12.390  0.00  0.00    +0.000 A 
ATOM     18  C   UNL     1      46.302   8.679  12.556  0.00  0.00    +0.000 A 
ATOM     19  C   UNL     1      45.005   8.540  12.068  0.00  0.00    +0.000 A 
ATOM     20  C   UNL     1      44.631   7.375  11.396  0.00  0.00    +0.000 A 
ATOM     21  C   UNL     1      45.537   6.318  11.214  0.00  0.00    +0.000 A 
ATOM     22  C   UNL     1      46.828   6.476  11.753  0.00  0.00    +0.000 A 
BRANCH  21  23
ATOM     23  C   UNL     1      45.191   5.121  10.421  0.00  0.00    +0.000 A 
ATOM     24  C   UNL     1      44.348   4.131  10.934  0.00  0.00    +0.000 A 
ATOM     25  N   UNL     1      43.954   3.020  10.268  0.00  0.00    +0.000 NA
ATOM     26  C   UNL     1      44.404   2.889   9.001  0.00  0.00    +0.000 A 
ATOM     27  C   UNL     1      45.219   3.816   8.364  0.00  0.00    +0.000 A 
ATOM     28  C   UNL     1      45.636   4.926   9.101  0.00  0.00    +0.000 A 
BRANCH  27  29
ATOM     29  O   UNL     1      45.556   3.532   7.074  0.00  0.00    +0.000 OA
BRANCH  29  30
ATOM     30  C   UNL     1      46.933   3.300   6.842  0.00  0.00    +0.000 C 
ATOM     31  F   UNL     1      47.313   2.203   7.542  0.00  0.00    +0.000 F 
ATOM     32  F   UNL     1      47.075   2.995   5.528  0.00  0.00    +0.000 F 
ENDBRANCH  29  30
ENDBRANCH  27  29
ENDBRANCH  21  23
ENDBRANCH   1  17
TORSDOF 6
ENDMDL
MODEL 5
REMARK VINA RESULT:    -7.661      2.155      2.481
REMARK INTER + INTRA:         -11.422
REMARK INTER:                 -10.441
REMARK INTRA:                  -0.980
REMARK UNBOUND:                -1.073
REMARK  Name = 
REMARK  6 active torsions:
REMARK  status: ('A' for Active; 'I' for Inactive)
REMARK    1  A    between atoms: C_2  and  C_4
REMARK    2  A    between atoms: N_8  and  C_9
REMARK    3  A    between atoms: C_9  and  C_10
REMARK    4  A    between atoms: C_14  and  C_15
REMARK    5  A    between atoms: C_19  and  O_20
REMARK    6  A    between atoms: O_20  and  C_21
REMARK                            x       y       z     vdW  Elec       q    Type
REMARK                         _______ _______ _______ _____ _____    ______ ____
ROOT
ATOM      1  C   UNL     1      43.824   4.907  11.336  0.00  0.00    +0.000 C 
ATOM      2  C   UNL     1      42.453   5.334  11.852  0.00  0.00    +0.000 C 
ATOM      3  C   UNL     1      43.164   6.183  10.852  0.00  0.00    +0.000 C 
ENDROOT
BRANCH   1   8
ATOM      4  C   UNL     1      46.444   2.709   7.510  0.00  0.00    +0.000 A 
ATOM      5  C   UNL     1      45.871   1.781   8.344  0.00  0.00    +0.000 A 
ATOM      6  N   UNL     1      45.047   2.104   9.364  0.00  0.00    +0.000 NA
ATOM      7  C   UNL     1      44.809   3.412   9.575  0.00  0.00    +0.000 A 
ATOM      8  N   UNL     1      43.844   3.674  10.546  0.00  0.00    +0.000 N 
ATOM      9  N   UNL     1      45.382   4.394   8.860  0.00  0.00    +0.000 NA
ATOM     10  C   UNL     1      46.189   4.020   7.838  0.00  0.00    +0.000 A 
ATOM     11  H   UNL     1      43.689   2.799  11.033  0.00  0.00    +0.000 HD
BRANCH   4  13
ATOM     12  N   UNL     1      47.191   3.175   5.249  0.00  0.00    +0.000 N 
ATOM     13  C   UNL     1      47.263   2.356   6.342  0.00  0.00    +0.000 C 
ATOM     14  O   UNL     1      48.023   1.398   6.374  0.00  0.00    +0.000 OA
ATOM     15  H   UNL     1      47.855   2.987   4.507  0.00  0.00    +0.000 HD
ATOM     16  H   UNL     1      46.788   4.102   5.275  0.00  0.00    +0.000 HD
ENDBRANCH   4  13
ENDBRANCH   1   8
BRANCH   1  17
ATOM     17  C   UNL     1      45.014   5.057  12.280  0.00  0.00    +0.000 A 
ATOM     18  C   UNL     1      45.463   3.983  13.061  0.00  0.00    +0.000 A 
ATOM     19  C   UNL     1      46.607   4.095  13.848  0.00  0.00    +0.000 A 
ATOM     20  C   UNL     1      47.329   5.289  13.867  0.00  0.00    +0.000 A 
ATOM     21  C   UNL     1      46.916   6.401  13.114  0.00  0.00    +0.000 A 
ATOM     22  C   UNL     1      45.736   6.265  12.360  0.00  0.00    +0.000 A 
BRANCH  21  23
ATOM     23  C   UNL     1      47.721   7.637  13.043  0.00  0.00    +0.000 A 
ATOM     24  C   UNL     1      48.114   8.175  11.814  0.00  0.00    +0.000 A 
ATOM     25  N   UNL     1      48.824   9.318  11.654  0.00  0.00    +0.000 NA
ATOM     26  C   UNL     1      49.147   9.986  12.782  0.00  0.00    +0.000 A 
ATOM     27  C   UNL     1      48.789   9.576  14.060  0.00  0.00    +0.000 A 
ATOM     28  C   UNL     1      48.093   8.372  14.183  0.00  0.00    +0.000 A 
BRANCH  27  29
ATOM     29  O   UNL     1      49.179  10.389  15.083  0.00  0.00    +0.000 OA
BRANCH  29  30
ATOM     30  C   UNL     1      50.578  10.530  15.248  0.00  0.00    +0.000 C 
ATOM     31  F   UNL     1      50.813  11.233  16.383  0.00  0.00    +0.000 F 
ATOM     32  F   UNL     1      51.088   9.288  15.443  0.00  0.00    +0.000 F 
ENDBRANCH  29  30
ENDBRANCH  27  29
ENDBRANCH  21  23
ENDBRANCH   1  17
TORSDOF 6
ENDMDL
MODEL 6
REMARK VINA RESULT:    -7.540      2.684      2.866
REMARK INTER + INTRA:         -11.258
REMARK INTER:                 -10.626
REMARK INTRA:                  -0.632
REMARK UNBOUND:                -1.073
REMARK  Name = 
REMARK  6 active torsions:
REMARK  status: ('A' for Active; 'I' for Inactive)
REMARK    1  A    between atoms: C_2  and  C_4
REMARK    2  A    between atoms: N_8  and  C_9
REMARK    3  A    between atoms: C_9  and  C_10
REMARK    4  A    between atoms: C_14  and  C_15
REMARK    5  A    between atoms: C_19  and  O_20
REMARK    6  A    between atoms: O_20  and  C_21
REMARK                            x       y       z     vdW  Elec       q    Type
REMARK                         _______ _______ _______ _____ _____    ______ ____
ROOT
ATOM      1  C   UNL     1      43.914   4.520  11.486  0.00  0.00    +0.000 C 
ATOM      2  C   UNL     1      42.519   4.780  12.046  0.00  0.00    +0.000 C 
ATOM      3  C   UNL     1      43.111   5.733  11.063  0.00  0.00    +0.000 C 
ENDROOT
BRANCH   1   8
ATOM      4  C   UNL     1      46.487   2.831   7.381  0.00  0.00    +0.000 A 
ATOM      5  C   UNL     1      46.130   1.807   8.223  0.00  0.00    +0.000 A 
ATOM      6  N   UNL     1      45.359   1.979   9.318  0.00  0.00    +0.000 NA
ATOM      7  C   UNL     1      44.951   3.232   9.596  0.00  0.00    +0.000 A 
ATOM      8  N   UNL     1      44.045   3.323  10.652  0.00  0.00    +0.000 N 
ATOM      9  N   UNL     1      45.312   4.305   8.874  0.00  0.00    +0.000 NA
ATOM     10  C   UNL     1      46.074   4.081   7.777  0.00  0.00    +0.000 A 
ATOM     11  H   UNL     1      44.062   2.423  11.116  0.00  0.00    +0.000 HD
BRANCH   4  13
ATOM     12  N   UNL     1      48.549   2.232   6.249  0.00  0.00    +0.000 N 
ATOM     13  C   UNL     1      47.246   2.632   6.138  0.00  0.00    +0.000 C 
ATOM     14  O   UNL     1      46.710   2.764   5.046  0.00  0.00    +0.000 OA
ATOM     15  H   UNL     1      49.013   1.979   5.385  0.00  0.00    +0.000 HD
ATOM     16  H   UNL     1      48.946   1.864   7.104  0.00  0.00    +0.000 HD
ENDBRANCH   4  13
ENDBRANCH   1   8
BRANCH   1  17
ATOM     17  C   UNL     1      45.104   4.765  12.409  0.00  0.00    +0.000 A 
ATOM     18  C   UNL     1      45.734   3.707  13.081  0.00  0.00    +0.000 A 
ATOM     19  C   UNL     1      46.878   3.920  13.846  0.00  0.00    +0.000 A 
ATOM     20  C   UNL     1      47.419   5.202  13.953  0.00  0.00    +0.000 A 
ATOM     21  C   UNL     1      46.822   6.300  13.312  0.00  0.00    +0.000 A 
ATOM     22  C   UNL     1      45.646   6.055  12.578  0.00  0.00    +0.000 A 
BRANCH  21  23
ATOM     23  C   UNL     1      47.435   7.643  13.330  0.00  0.00    +0.000 A 
ATOM     24  C   UNL     1      48.366   8.001  14.310  0.00  0.00    +0.000 A 
ATOM     25  N   UNL     1      49.000   9.195  14.384  0.00  0.00    +0.000 NA
ATOM     26  C   UNL     1      48.712  10.089  13.413  0.00  0.00    +0.000 A 
ATOM     27  C   UNL     1      47.833   9.845  12.366  0.00  0.00    +0.000 A 
ATOM     28  C   UNL     1      47.170   8.616  12.350  0.00  0.00    +0.000 A 
BRANCH  27  29
ATOM     29  O   UNL     1      47.683  10.853  11.460  0.00  0.00    +0.000 OA
BRANCH  29  30
ATOM     30  C   UNL     1      46.417  11.486  11.458  0.00  0.00    +0.000 C 
ATOM     31  F   UNL     1      45.947  11.516  10.187  0.00  0.00    +0.000 F 
ATOM     32  F   UNL     1      45.571  10.699  12.170  0.00  0.00    +0.000 F 
ENDBRANCH  29  30
ENDBRANCH  27  29
ENDBRANCH  21  23
ENDBRANCH   1  17
TORSDOF 6
ENDMDL
MODEL 7
REMARK VINA RESULT:    -7.525      4.023      8.306
REMARK INTER + INTRA:         -11.238
REMARK INTER:                 -10.256
REMARK INTRA:                  -0.982
REMARK UNBOUND:                -1.073
REMARK  Name = 
REMARK  6 active torsions:
REMARK  status: ('A' for Active; 'I' for Inactive)
REMARK    1  A    between atoms: C_2  and  C_4
REMARK    2  A    between atoms: N_8  and  C_9
REMARK    3  A    between atoms: C_9  and  C_10
REMARK    4  A    between atoms: C_14  and  C_15
REMARK    5  A    between atoms: C_19  and  O_20
REMARK    6  A    between atoms: O_20  and  C_21
REMARK                            x       y       z     vdW  Elec       q    Type
REMARK                         _______ _______ _______ _____ _____    ______ ____
ROOT
ATOM      1  C   UNL     1      49.039   7.920  12.672  0.00  0.00    +0.000 C 
ATOM      2  C   UNL     1      49.999   8.209  11.522  0.00  0.00    +0.000 C 
ATOM      3  C   UNL     1      49.616   9.305  12.457  0.00  0.00    +0.000 C 
ENDROOT
BRANCH   1   8
ATOM      4  C   UNL     1      48.662   7.037  17.713  0.00  0.00    +0.000 A 
ATOM      5  C   UNL     1      48.953   5.895  17.009  0.00  0.00    +0.000 A 
ATOM      6  N   UNL     1      49.204   5.881  15.682  0.00  0.00    +0.000 NA
ATOM      7  C   UNL     1      49.134   7.056  15.028  0.00  0.00    +0.000 A 
ATOM      8  N   UNL     1      49.541   7.001  13.696  0.00  0.00    +0.000 N 
ATOM      9  N   UNL     1      48.783   8.211  15.617  0.00  0.00    +0.000 NA
ATOM     10  C   UNL     1      48.555   8.177  16.952  0.00  0.00    +0.000 A 
ATOM     11  H   UNL     1      49.600   6.018  13.460  0.00  0.00    +0.000 HD
BRANCH   4  13
ATOM     12  N   UNL     1      47.787   8.121  19.700  0.00  0.00    +0.000 N 
ATOM     13  C   UNL     1      48.482   7.068  19.171  0.00  0.00    +0.000 C 
ATOM     14  O   UNL     1      48.890   6.154  19.874  0.00  0.00    +0.000 OA
ATOM     15  H   UNL     1      47.566   8.058  20.686  0.00  0.00    +0.000 HD
ATOM     16  H   UNL     1      47.219   8.746  19.144  0.00  0.00    +0.000 HD
ENDBRANCH   4  13
ENDBRANCH   1   8
BRANCH   1  17
ATOM     17  C   UNL     1      47.565   7.723  12.332  0.00  0.00    +0.000 A 
ATOM     18  C   UNL     1      46.625   8.739  12.556  0.00  0.00    +0.000 A 
ATOM     19  C   UNL     1      45.298   8.593  12.156  0.00  0.00    +0.000 A 
ATOM     20  C   UNL     1      44.885   7.422  11.518  0.00  0.00    +0.000 A 
ATOM     21  C   UNL     1      45.782   6.368  11.280  0.00  0.00    +0.000 A 
ATOM     22  C   UNL     1      47.105   6.534  11.731  0.00  0.00    +0.000 A 
BRANCH  21  23
ATOM     23  C   UNL     1      45.389   5.166  10.518  0.00  0.00    +0.000 A 
ATOM     24  C   UNL     1      44.642   4.143  11.112  0.00  0.00    +0.000 A 
ATOM     25  N   UNL     1      44.212   3.024  10.482  0.00  0.00    +0.000 NA
ATOM     26  C   UNL     1      44.521   2.918   9.171  0.00  0.00    +0.000 A 
ATOM     27  C   UNL     1      45.226   3.877   8.457  0.00  0.00    +0.000 A 
ATOM     28  C   UNL     1      45.687   4.996   9.154  0.00  0.00    +0.000 A 
BRANCH  27  29
ATOM     29  O   UNL     1      45.425   3.615   7.133  0.00  0.00    +0.000 OA
BRANCH  29  30
ATOM     30  C   UNL     1      46.773   3.420   6.747  0.00  0.00    +0.000 C 
ATOM     31  F   UNL     1      47.283   2.385   7.457  0.00  0.00    +0.000 F 
ATOM     32  F   UNL     1      46.768   3.039   5.445  0.00  0.00    +0.000 F 
ENDBRANCH  29  30
ENDBRANCH  27  29
ENDBRANCH  21  23
ENDBRANCH   1  17
TORSDOF 6
ENDMDL
MODEL 8
REMARK VINA RESULT:    -6.679      4.233      5.920
REMARK INTER + INTRA:         -10.095
REMARK INTER:                  -9.160
REMARK INTRA:                  -0.935
REMARK UNBOUND:                -1.073
REMARK  Name = 
REMARK  6 active torsions:
REMARK  status: ('A' for Active; 'I' for Inactive)
REMARK    1  A    between atoms: C_2  and  C_4
REMARK    2  A    between atoms: N_8  and  C_9
REMARK    3  A    between atoms: C_9  and  C_10
REMARK    4  A    between atoms: C_14  and  C_15
REMARK    5  A    between atoms: C_19  and  O_20
REMARK    6  A    between atoms: O_20  and  C_21
REMARK                            x       y       z     vdW  Elec       q    Type
REMARK                         _______ _______ _______ _____ _____    ______ ____
ROOT
ATOM      1  C   UNL     1      45.889   8.956  12.187  0.00  0.00    +0.000 C 
ATOM      2  C   UNL     1      45.525  10.434  12.290  0.00  0.00    +0.000 C 
ATOM      3  C   UNL     1      45.636   9.794  10.948  0.00  0.00    +0.000 C 
ENDROOT
BRANCH   1   8
ATOM      4  C   UNL     1      44.193   4.161  11.512  0.00  0.00    +0.000 A 
ATOM      5  C   UNL     1      44.012   4.596  12.801  0.00  0.00    +0.000 A 
ATOM      6  N   UNL     1      44.280   5.856  13.206  0.00  0.00    +0.000 NA
ATOM      7  C   UNL     1      44.777   6.707  12.290  0.00  0.00    +0.000 A 
ATOM      8  N   UNL     1      44.899   8.024  12.730  0.00  0.00    +0.000 N 
ATOM      9  N   UNL     1      45.058   6.352  11.026  0.00  0.00    +0.000 NA
ATOM     10  C   UNL     1      44.758   5.082  10.662  0.00  0.00    +0.000 A 
ATOM     11  H   UNL     1      44.778   7.997  13.735  0.00  0.00    +0.000 HD
BRANCH   4  13
ATOM     12  N   UNL     1      44.478   2.313   9.964  0.00  0.00    +0.000 N 
ATOM     13  C   UNL     1      43.812   2.820  11.046  0.00  0.00    +0.000 C 
ATOM     14  O   UNL     1      42.971   2.162  11.644  0.00  0.00    +0.000 OA
ATOM     15  H   UNL     1      44.290   1.344   9.739  0.00  0.00    +0.000 HD
ATOM     16  H   UNL     1      45.341   2.704   9.610  0.00  0.00    +0.000 HD
ENDBRANCH   4  13
ENDBRANCH   1   8
BRANCH   1  17
ATOM     17  C   UNL     1      47.335   8.562  12.473  0.00  0.00    +0.000 A 
ATOM     18  C   UNL     1      48.387   9.023  11.669  0.00  0.00    +0.000 A 
ATOM     19  C   UNL     1      49.713   8.740  11.988  0.00  0.00    +0.000 A 
ATOM     20  C   UNL     1      50.014   7.990  13.126  0.00  0.00    +0.000 A 
ATOM     21  C   UNL     1      48.999   7.492  13.959  0.00  0.00    +0.000 A 
ATOM     22  C   UNL     1      47.669   7.764  13.586  0.00  0.00    +0.000 A 
BRANCH  21  23
ATOM     23  C   UNL     1      49.300   6.784  15.219  0.00  0.00    +0.000 A 
ATOM     24  C   UNL     1      50.458   7.067  15.950  0.00  0.00    +0.000 A 
ATOM     25  N   UNL     1      50.797   6.491  17.128  0.00  0.00    +0.000 NA
ATOM     26  C   UNL     1      49.923   5.590  17.628  0.00  0.00    +0.000 A 
ATOM     27  C   UNL     1      48.725   5.245  17.018  0.00  0.00    +0.000 A 
ATOM     28  C   UNL     1      48.432   5.832  15.785  0.00  0.00    +0.000 A 
BRANCH  27  29
ATOM     29  O   UNL     1      47.953   4.336  17.680  0.00  0.00    +0.000 OA
BRANCH  29  30
ATOM     30  C   UNL     1      47.782   3.093  17.025  0.00  0.00    +0.000 C 
ATOM     31  F   UNL     1      48.911   2.360  17.181  0.00  0.00    +0.000 F 
ATOM     32  F   UNL     1      46.791   2.429  17.672  0.00  0.00    +0.000 F 
ENDBRANCH  29  30
ENDBRANCH  27  29
ENDBRANCH  21  23
ENDBRANCH   1  17
TORSDOF 6
ENDMDL
MODEL 9
REMARK VINA RESULT:    -6.602      5.630      8.399
REMARK INTER + INTRA:          -9.991
REMARK INTER:                  -9.554
REMARK INTRA:                  -0.437
REMARK UNBOUND:                -1.073
REMARK  Name = 
REMARK  6 active torsions:
REMARK  status: ('A' for Active; 'I' for Inactive)
REMARK    1  A    between atoms: C_2  and  C_4
REMARK    2  A    between atoms: N_8  and  C_9
REMARK    3  A    between atoms: C_9  and  C_10
REMARK    4  A    between atoms: C_14  and  C_15
REMARK    5  A    between atoms: C_19  and  O_20
REMARK    6  A    between atoms: O_20  and  C_21
REMARK                            x       y       z     vdW  Elec       q    Type
REMARK                         _______ _______ _______ _____ _____    ______ ____
ROOT
ATOM      1  C   UNL     1      47.996   4.537  16.921  0.00  0.00    +0.000 C 
ATOM      2  C   UNL     1      46.836   4.574  17.913  0.00  0.00    +0.000 C 
ATOM      3  C   UNL     1      47.140   3.312  17.178  0.00  0.00    +0.000 C 
ENDROOT
BRANCH   1   8
ATOM      4  C   UNL     1      52.357   1.933  17.650  0.00  0.00    +0.000 A 
ATOM      5  C   UNL     1      52.571   3.287  17.572  0.00  0.00    +0.000 A 
ATOM      6  N   UNL     1      51.574   4.194  17.486  0.00  0.00    +0.000 NA
ATOM      7  C   UNL     1      50.313   3.725  17.449  0.00  0.00    +0.000 A 
ATOM      8  N   UNL     1      49.328   4.710  17.504  0.00  0.00    +0.000 N 
ATOM      9  N   UNL     1      50.009   2.417  17.444  0.00  0.00    +0.000 NA
ATOM     10  C   UNL     1      51.041   1.546  17.546  0.00  0.00    +0.000 A 
ATOM     11  H   UNL     1      49.802   5.591  17.343  0.00  0.00    +0.000 HD
BRANCH   4  13
ATOM     12  N   UNL     1      53.087  -0.280  18.326  0.00  0.00    +0.000 N 
ATOM     13  C   UNL     1      53.433   0.951  17.840  0.00  0.00    +0.000 C 
ATOM     14  O   UNL     1      54.584   1.209  17.518  0.00  0.00    +0.000 OA
ATOM     15  H   UNL     1      53.819  -0.980  18.329  0.00  0.00    +0.000 HD
ATOM     16  H   UNL     1      52.134  -0.618  18.356  0.00  0.00    +0.000 HD
ENDBRANCH   4  13
ENDBRANCH   1   8
BRANCH   1  17
ATOM     17  C   UNL     1      47.806   5.246  15.584  0.00  0.00    +0.000 A 
ATOM     18  C   UNL     1      48.645   6.299  15.194  0.00  0.00    +0.000 A 
ATOM     19  C   UNL     1      48.531   6.881  13.933  0.00  0.00    +0.000 A 
ATOM     20  C   UNL     1      47.573   6.414  13.032  0.00  0.00    +0.000 A 
ATOM     21  C   UNL     1      46.698   5.371  13.375  0.00  0.00    +0.000 A 
ATOM     22  C   UNL     1      46.816   4.832  14.670  0.00  0.00    +0.000 A 
BRANCH  21  23
ATOM     23  C   UNL     1      45.747   4.798  12.402  0.00  0.00    +0.000 A 
ATOM     24  C   UNL     1      44.634   4.064  12.823  0.00  0.00    +0.000 A 
ATOM     25  N   UNL     1      43.696   3.531  12.004  0.00  0.00    +0.000 NA
ATOM     26  C   UNL     1      43.856   3.756  10.682  0.00  0.00    +0.000 A 
ATOM     27  C   UNL     1      44.898   4.496  10.138  0.00  0.00    +0.000 A 
ATOM     28  C   UNL     1      45.865   4.993  11.014  0.00  0.00    +0.000 A 
BRANCH  27  29
ATOM     29  O   UNL     1      44.886   4.644   8.783  0.00  0.00    +0.000 OA
BRANCH  29  30
ATOM     30  C   UNL     1      45.742   3.771   8.069  0.00  0.00    +0.000 C 
ATOM     31  F   UNL     1      45.109   3.367   6.941  0.00  0.00    +0.000 F 
ATOM     32  F   UNL     1      46.820   4.495   7.676  0.00  0.00    +0.000 F 
ENDBRANCH  29  30
ENDBRANCH  27  29
ENDBRANCH  21  23
ENDBRANCH   1  17
TORSDOF 6
ENDMDL
