MODEL 1
REMARK VINA RESULT:    -8.014      0.000      0.000
REMARK INTER + INTRA:          -9.857
REMARK INTER:                  -9.419
REMARK INTRA:                  -0.438
REMARK UNBOUND:                -0.438
REMARK  Name = 
REMARK  5 active torsions:
REMARK  status: ('A' for Active; 'I' for Inactive)
REMARK    1  A    between atoms: C_1  and  N_2
REMARK    2  A    between atoms: N_8  and  C_9
REMARK    3  A    between atoms: C_9  and  C_10
REMARK    4  A    between atoms: C_14  and  C_15
REMARK    5  A    between atoms: C_19  and  C_20
REMARK                            x       y       z     vdW  Elec       q    Type
REMARK                         _______ _______ _______ _____ _____    ______ ____
ROOT
ATOM      1  C   UNL     1      45.247   4.662  12.298  0.00  0.00    +0.000 A 
ATOM      2  C   UNL     1      43.956   5.199  12.211  0.00  0.00    +0.000 A 
ATOM      3  C   UNL     1      43.204   5.047  11.051  0.00  0.00    +0.000 A 
ATOM      4  C   UNL     1      43.744   4.370   9.956  0.00  0.00    +0.000 A 
ATOM      5  C   UNL     1      45.046   3.835   9.987  0.00  0.00    +0.000 A 
ATOM      6  C   UNL     1      45.768   3.954  11.193  0.00  0.00    +0.000 A 
ENDROOT
BRANCH   5   7
ATOM      7  C   UNL     1      45.648   3.243   8.770  0.00  0.00    +0.000 A 
ATOM      8  C   UNL     1      45.990   4.031   7.683  0.00  0.00    +0.000 A 
ATOM      9  C   UNL     1      46.561   3.398   6.607  0.00  0.00    +0.000 A 
ATOM     10  N   UNL     1      46.793   2.079   6.569  0.00  0.00    +0.000 NA
ATOM     11  C   UNL     1      46.441   1.381   7.664  0.00  0.00    +0.000 A 
ATOM     12  C   UNL     1      46.699  -0.094   7.637  0.00  0.00    +0.000 C 
ATOM     13  N   UNL     1      45.885   1.910   8.776  0.00  0.00    +0.000 NA
ENDBRANCH   5   7
BRANCH   1  14
ATOM     14  C   UNL     1      46.058   4.868  13.560  0.00  0.00    +0.000 C 
BRANCH  14  22
ATOM     15  C   UNL     1      47.820   5.504  19.432  0.00  0.00    +0.000 C 
ATOM     16  N   UNL     1      46.860   5.118  18.422  0.00  0.00    +0.000 N 
ATOM     17  C   UNL     1      47.348   4.303  17.409  0.00  0.00    +0.000 A 
ATOM     18  N   UNL     1      48.354   3.476  17.656  0.00  0.00    +0.000 NA
ATOM     19  C   UNL     1      48.720   2.724  16.627  0.00  0.00    +0.000 A 
ATOM     20  N   UNL     1      48.183   2.746  15.412  0.00  0.00    +0.000 NA
ATOM     21  C   UNL     1      47.185   3.608  15.265  0.00  0.00    +0.000 A 
ATOM     22  N   UNL     1      46.583   3.599  14.014  0.00  0.00    +0.000 N 
ATOM     23  N   UNL     1      46.748   4.418  16.227  0.00  0.00    +0.000 NA
ATOM     24  H   UNL     1      46.345   5.874  17.983  0.00  0.00    +0.000 HD
ATOM     25  H   UNL     1      47.218   3.141  13.372  0.00  0.00    +0.000 HD
ENDBRANCH  14  22
ENDBRANCH   1  14
TORSDOF 3
ENDMDL
MODEL 2
REMARK VINA RESULT:    -7.972      1.811      2.503
REMARK INTER + INTRA:          -9.808
REMARK INTER:                  -9.576
REMARK INTRA:                  -0.233
REMARK UNBOUND:                -0.438
REMARK  Name = 
REMARK  5 active torsions:
REMARK  status: ('A' for Active; 'I' for Inactive)
REMARK    1  A    between atoms: C_1  and  N_2
REMARK    2  A    between atoms: N_8  and  C_9
REMARK    3  A    between atoms: C_9  and  C_10
REMARK    4  A    between atoms: C_14  and  C_15
REMARK    5  A    between atoms: C_19  and  C_20
REMARK                            x       y       z     vdW  Elec       q    Type
REMARK                         _______ _______ _______ _____ _____    ______ ____
ROOT
ATOM      1  C   UNL     1      44.513   5.518  11.468  0.00  0.00    +0.000 A 
ATOM      2  C   UNL     1      43.446   4.797  12.022  0.00  0.00    +0.000 A 
ATOM      3  C   UNL     1      43.132   3.528  11.549  0.00  0.00    +0.000 A 
ATOM      4  C   UNL     1      43.872   2.972  10.504  0.00  0.00    +0.000 A 
ATOM      5  C   UNL     1      44.935   3.668   9.899  0.00  0.00    +0.000 A 
ATOM      6  C   UNL     1      45.270   4.931  10.432  0.00  0.00    +0.000 A 
ENDROOT
BRANCH   5   7
ATOM      7  C   UNL     1      45.616   3.118   8.704  0.00  0.00    +0.000 A 
ATOM      8  C   UNL     1      46.009   3.941   7.661  0.00  0.00    +0.000 A 
ATOM      9  C   UNL     1      46.652   3.346   6.604  0.00  0.00    +0.000 A 
ATOM     10  N   UNL     1      46.904   2.032   6.543  0.00  0.00    +0.000 NA
ATOM     11  C   UNL     1      46.498   1.299   7.595  0.00  0.00    +0.000 A 
ATOM     12  C   UNL     1      46.777  -0.172   7.542  0.00  0.00    +0.000 C 
ATOM     13  N   UNL     1      45.870   1.789   8.687  0.00  0.00    +0.000 NA
ENDBRANCH   5   7
BRANCH   1  14
ATOM     14  C   UNL     1      44.816   6.912  11.978  0.00  0.00    +0.000 C 
BRANCH  14  22
ATOM     15  C   UNL     1      47.272   3.928  16.780  0.00  0.00    +0.000 C 
ATOM     16  N   UNL     1      46.914   4.020  15.382  0.00  0.00    +0.000 N 
ATOM     17  C   UNL     1      47.308   5.186  14.737  0.00  0.00    +0.000 A 
ATOM     18  N   UNL     1      48.394   5.829  15.143  0.00  0.00    +0.000 NA
ATOM     19  C   UNL     1      48.693   6.912  14.439  0.00  0.00    +0.000 A 
ATOM     20  N   UNL     1      48.008   7.388  13.406  0.00  0.00    +0.000 NA
ATOM     21  C   UNL     1      46.937   6.676  13.078  0.00  0.00    +0.000 A 
ATOM     22  N   UNL     1      46.245   7.135  11.966  0.00  0.00    +0.000 N 
ATOM     23  N   UNL     1      46.540   5.582  13.725  0.00  0.00    +0.000 NA
ATOM     24  H   UNL     1      45.937   3.865  15.159  0.00  0.00    +0.000 HD
ATOM     25  H   UNL     1      46.530   8.093  11.803  0.00  0.00    +0.000 HD
ENDBRANCH  14  22
ENDBRANCH   1  14
TORSDOF 3
ENDMDL
MODEL 3
REMARK VINA RESULT:    -7.499      2.358      4.093
REMARK INTER + INTRA:          -9.252
REMARK INTER:                  -8.702
REMARK INTRA:                  -0.551
REMARK UNBOUND:                -0.438
REMARK  Name = 
REMARK  5 active torsions:
REMARK  status: ('A' for Active; 'I' for Inactive)
REMARK    1  A    between atoms: C_1  and  N_2
REMARK    2  A    between atoms: N_8  and  C_9
REMARK    3  A    between atoms: C_9  and  C_10
REMARK    4  A    between atoms: C_14  and  C_15
REMARK    5  A    between atoms: C_19  and  C_20
REMARK                            x       y       z     vdW  Elec       q    Type
REMARK                         _______ _______ _______ _____ _____    ______ ____
ROOT
ATOM      1  C   UNL     1      48.076   6.657  13.883  0.00  0.00    +0.000 A 
ATOM      2  C   UNL     1      48.503   7.518  12.863  0.00  0.00    +0.000 A 
ATOM      3  C   UNL     1      47.864   7.520  11.628  0.00  0.00    +0.000 A 
ATOM      4  C   UNL     1      46.801   6.646  11.393  0.00  0.00    +0.000 A 
ATOM      5  C   UNL     1      46.354   5.745  12.378  0.00  0.00    +0.000 A 
ATOM      6  C   UNL     1      46.981   5.800  13.641  0.00  0.00    +0.000 A 
ENDROOT
BRANCH   5   7
ATOM      7  C   UNL     1      45.318   4.734  12.063  0.00  0.00    +0.000 A 
ATOM      8  C   UNL     1      44.313   4.431  12.967  0.00  0.00    +0.000 A 
ATOM      9  C   UNL     1      43.385   3.497  12.580  0.00  0.00    +0.000 A 
ATOM     10  N   UNL     1      43.416   2.880  11.392  0.00  0.00    +0.000 NA
ATOM     11  C   UNL     1      44.416   3.231  10.564  0.00  0.00    +0.000 A 
ATOM     12  C   UNL     1      44.460   2.551   9.230  0.00  0.00    +0.000 C 
ATOM     13  N   UNL     1      45.371   4.146  10.845  0.00  0.00    +0.000 NA
ENDBRANCH   5   7
BRANCH   1  14
ATOM     14  C   UNL     1      48.808   6.651  15.209  0.00  0.00    +0.000 C 
BRANCH  14  22
ATOM     15  C   UNL     1      51.369   1.501  17.425  0.00  0.00    +0.000 C 
ATOM     16  N   UNL     1      51.111   2.923  17.478  0.00  0.00    +0.000 N 
ATOM     17  C   UNL     1      49.779   3.297  17.355  0.00  0.00    +0.000 A 
ATOM     18  N   UNL     1      48.824   2.478  17.773  0.00  0.00    +0.000 NA
ATOM     19  C   UNL     1      47.591   2.946  17.635  0.00  0.00    +0.000 A 
ATOM     20  N   UNL     1      47.255   4.123  17.120  0.00  0.00    +0.000 NA
ATOM     21  C   UNL     1      48.280   4.869  16.730  0.00  0.00    +0.000 A 
ATOM     22  N   UNL     1      47.941   6.123  16.241  0.00  0.00    +0.000 N 
ATOM     23  N   UNL     1      49.554   4.490  16.810  0.00  0.00    +0.000 NA
ATOM     24  H   UNL     1      51.648   3.499  16.838  0.00  0.00    +0.000 HD
ATOM     25  H   UNL     1      46.956   6.104  16.007  0.00  0.00    +0.000 HD
ENDBRANCH  14  22
ENDBRANCH   1  14
TORSDOF 3
ENDMDL
MODEL 4
REMARK VINA RESULT:    -7.375      3.179      4.076
REMARK INTER + INTRA:          -9.106
REMARK INTER:                  -8.546
REMARK INTRA:                  -0.560
REMARK UNBOUND:                -0.438
REMARK  Name = 
REMARK  5 active torsions:
REMARK  status: ('A' for Active; 'I' for Inactive)
REMARK    1  A    between atoms: C_1  and  N_2
REMARK    2  A    between atoms: N_8  and  C_9
REMARK    3  A    between atoms: C_9  and  C_10
REMARK    4  A    between atoms: C_14  and  C_15
REMARK    5  A    between atoms: C_19  and  C_20
REMARK                            x       y       z     vdW  Elec       q    Type
REMARK                         _______ _______ _______ _____ _____    ______ ____
ROOT
ATOM      1  C   UNL     1      44.524   5.325  11.676  0.00  0.00    +0.000 A 
ATOM      2  C   UNL     1      43.482   4.576  12.238  0.00  0.00    +0.000 A 
ATOM      3  C   UNL     1      43.174   3.313  11.743  0.00  0.00    +0.000 A 
ATOM      4  C   UNL     1      43.895   2.793  10.667  0.00  0.00    +0.000 A 
ATOM      5  C   UNL     1      44.933   3.520  10.052  0.00  0.00    +0.000 A 
ATOM      6  C   UNL     1      45.263   4.774  10.607  0.00  0.00    +0.000 A 
ENDROOT
BRANCH   5   7
ATOM      7  C   UNL     1      45.591   3.008   8.828  0.00  0.00    +0.000 A 
ATOM      8  C   UNL     1      45.946   3.862   7.795  0.00  0.00    +0.000 A 
ATOM      9  C   UNL     1      46.570   3.301   6.708  0.00  0.00    +0.000 A 
ATOM     10  N   UNL     1      46.839   1.992   6.610  0.00  0.00    +0.000 NA
ATOM     11  C   UNL     1      46.471   1.229   7.654  0.00  0.00    +0.000 A 
ATOM     12  C   UNL     1      46.769  -0.236   7.559  0.00  0.00    +0.000 C 
ATOM     13  N   UNL     1      45.863   1.684   8.772  0.00  0.00    +0.000 NA
ENDBRANCH   5   7
BRANCH   1  14
ATOM     14  C   UNL     1      44.819   6.712  12.211  0.00  0.00    +0.000 C 
BRANCH  14  22
ATOM     15  C   UNL     1      49.738  10.245  11.066  0.00  0.00    +0.000 C 
ATOM     16  N   UNL     1      48.439  10.018  11.660  0.00  0.00    +0.000 N 
ATOM     17  C   UNL     1      48.312   8.848  12.398  0.00  0.00    +0.000 A 
ATOM     18  N   UNL     1      49.370   8.335  13.009  0.00  0.00    +0.000 NA
ATOM     19  C   UNL     1      49.129   7.234  13.707  0.00  0.00    +0.000 A 
ATOM     20  N   UNL     1      47.955   6.626  13.826  0.00  0.00    +0.000 NA
ATOM     21  C   UNL     1      46.958   7.214  13.177  0.00  0.00    +0.000 A 
ATOM     22  N   UNL     1      45.717   6.616  13.341  0.00  0.00    +0.000 N 
ATOM     23  N   UNL     1      47.094   8.313  12.437  0.00  0.00    +0.000 NA
ATOM     24  H   UNL     1      47.645  10.070  11.032  0.00  0.00    +0.000 HD
ATOM     25  H   UNL     1      45.873   5.677  13.688  0.00  0.00    +0.000 HD
ENDBRANCH  14  22
ENDBRANCH   1  14
TORSDOF 3
ENDMDL
MODEL 5
REMARK VINA RESULT:    -7.328      3.612      7.829
REMARK INTER + INTRA:          -9.051
REMARK INTER:                  -8.406
REMARK INTRA:                  -0.645
REMARK UNBOUND:                -0.438
REMARK  Name = 
REMARK  5 active torsions:
REMARK  status: ('A' for Active; 'I' for Inactive)
REMARK    1  A    between atoms: C_1  and  N_2
REMARK    2  A    between atoms: N_8  and  C_9
REMARK    3  A    between atoms: C_9  and  C_10
REMARK    4  A    between atoms: C_14  and  C_15
REMARK    5  A    between atoms: C_19  and  C_20
REMARK                            x       y       z     vdW  Elec       q    Type
REMARK                         _______ _______ _______ _____ _____    ______ ____
ROOT
ATOM      1  C   UNL     1      45.226   4.813  11.884  0.00  0.00    +0.000 A 
ATOM      2  C   UNL     1      45.585   3.967  12.942  0.00  0.00    +0.000 A 
ATOM      3  C   UNL     1      46.623   4.313  13.800  0.00  0.00    +0.000 A 
ATOM      4  C   UNL     1      47.327   5.502  13.597  0.00  0.00    +0.000 A 
ATOM      5  C   UNL     1      47.019   6.371  12.533  0.00  0.00    +0.000 A 
ATOM      6  C   UNL     1      45.926   6.026  11.710  0.00  0.00    +0.000 A 
ENDROOT
BRANCH   5   7
ATOM      7  C   UNL     1      47.864   7.554  12.256  0.00  0.00    +0.000 A 
ATOM      8  C   UNL     1      49.232   7.430  12.065  0.00  0.00    +0.000 A 
ATOM      9  C   UNL     1      49.931   8.580  11.793  0.00  0.00    +0.000 A 
ATOM     10  N   UNL     1      49.357   9.787  11.710  0.00  0.00    +0.000 NA
ATOM     11  C   UNL     1      48.026   9.827  11.899  0.00  0.00    +0.000 A 
ATOM     12  C   UNL     1      47.370  11.171  11.805  0.00  0.00    +0.000 C 
ATOM     13  N   UNL     1      47.246   8.754  12.161  0.00  0.00    +0.000 NA
ENDBRANCH   5   7
BRANCH   1  14
ATOM     14  C   UNL     1      44.112   4.400  10.944  0.00  0.00    +0.000 C 
BRANCH  14  22
ATOM     15  C   UNL     1      46.955  -0.028   7.734  0.00  0.00    +0.000 C 
ATOM     16  N   UNL     1      45.772   0.703   8.128  0.00  0.00    +0.000 N 
ATOM     17  C   UNL     1      45.866   2.087   8.050  0.00  0.00    +0.000 A 
ATOM     18  N   UNL     1      46.668   2.643   7.153  0.00  0.00    +0.000 NA
ATOM     19  C   UNL     1      46.659   3.969   7.147  0.00  0.00    +0.000 A 
ATOM     20  N   UNL     1      45.944   4.750   7.948  0.00  0.00    +0.000 NA
ATOM     21  C   UNL     1      45.175   4.099   8.812  0.00  0.00    +0.000 A 
ATOM     22  N   UNL     1      44.383   4.907   9.616  0.00  0.00    +0.000 N 
ATOM     23  N   UNL     1      45.119   2.773   8.911  0.00  0.00    +0.000 NA
ATOM     24  H   UNL     1      45.388   0.475   9.039  0.00  0.00    +0.000 HD
ATOM     25  H   UNL     1      44.768   5.843   9.583  0.00  0.00    +0.000 HD
ENDBRANCH  14  22
ENDBRANCH   1  14
TORSDOF 3
ENDMDL
MODEL 6
REMARK VINA RESULT:    -7.099      3.659      7.683
REMARK INTER + INTRA:          -8.782
REMARK INTER:                  -8.137
REMARK INTRA:                  -0.645
REMARK UNBOUND:                -0.438
REMARK  Name = 
REMARK  5 active torsions:
REMARK  status: ('A' for Active; 'I' for Inactive)
REMARK    1  A    between atoms: C_1  and  N_2
REMARK    2  A    between atoms: N_8  and  C_9
REMARK    3  A    between atoms: C_9  and  C_10
REMARK    4  A    between atoms: C_14  and  C_15
REMARK    5  A    between atoms: C_19  and  C_20
REMARK                            x       y       z     vdW  Elec       q    Type
REMARK                         _______ _______ _______ _____ _____    ______ ____
ROOT
ATOM      1  C   UNL     1      45.294   4.068  12.719  0.00  0.00    +0.000 A 
ATOM      2  C   UNL     1      46.401   3.683  13.486  0.00  0.00    +0.000 A 
ATOM      3  C   UNL     1      47.295   4.635  13.963  0.00  0.00    +0.000 A 
ATOM      4  C   UNL     1      47.100   5.985  13.661  0.00  0.00    +0.000 A 
ATOM      5  C   UNL     1      46.017   6.416  12.871  0.00  0.00    +0.000 A 
ATOM      6  C   UNL     1      45.094   5.438  12.446  0.00  0.00    +0.000 A 
ENDROOT
BRANCH   5   7
ATOM      7  C   UNL     1      45.907   7.832  12.449  0.00  0.00    +0.000 A 
ATOM      8  C   UNL     1      46.931   8.734  12.692  0.00  0.00    +0.000 A 
ATOM      9  C   UNL     1      46.749  10.020  12.247  0.00  0.00    +0.000 A 
ATOM     10  N   UNL     1      45.645  10.425  11.605  0.00  0.00    +0.000 NA
ATOM     11  C   UNL     1      44.699   9.492  11.400  0.00  0.00    +0.000 A 
ATOM     12  C   UNL     1      43.461   9.931  10.679  0.00  0.00    +0.000 C 
ATOM     13  N   UNL     1      44.786   8.200  11.787  0.00  0.00    +0.000 NA
ENDBRANCH   5   7
BRANCH   1  14
ATOM     14  C   UNL     1      44.353   3.008  12.184  0.00  0.00    +0.000 C 
BRANCH  14  22
ATOM     15  C   UNL     1      47.468   1.104   7.218  0.00  0.00    +0.000 C 
ATOM     16  N   UNL     1      46.397   0.973   8.180  0.00  0.00    +0.000 N 
ATOM     17  C   UNL     1      45.640   2.118   8.395  0.00  0.00    +0.000 A 
ATOM     18  N   UNL     1      45.492   3.004   7.421  0.00  0.00    +0.000 NA
ATOM     19  C   UNL     1      44.727   4.042   7.725  0.00  0.00    +0.000 A 
ATOM     20  N   UNL     1      44.130   4.259   8.892  0.00  0.00    +0.000 NA
ATOM     21  C   UNL     1      44.340   3.317   9.803  0.00  0.00    +0.000 A 
ATOM     22  N   UNL     1      43.676   3.508  11.007  0.00  0.00    +0.000 N 
ATOM     23  N   UNL     1      45.101   2.243   9.606  0.00  0.00    +0.000 NA
ATOM     24  H   UNL     1      46.655   0.604   9.089  0.00  0.00    +0.000 HD
ATOM     25  H   UNL     1      43.396   4.480  11.051  0.00  0.00    +0.000 HD
ENDBRANCH  14  22
ENDBRANCH   1  14
TORSDOF 3
ENDMDL
MODEL 7
REMARK VINA RESULT:    -6.822      2.414      4.245
REMARK INTER + INTRA:          -8.456
REMARK INTER:                  -7.902
REMARK INTRA:                  -0.554
REMARK UNBOUND:                -0.438
REMARK  Name = 
REMARK  5 active torsions:
REMARK  status: ('A' for Active; 'I' for Inactive)
REMARK    1  A    between atoms: C_1  and  N_2
REMARK    2  A    between atoms: N_8  and  C_9
REMARK    3  A    between atoms: C_9  and  C_10
REMARK    4  A    between atoms: C_14  and  C_15
REMARK    5  A    between atoms: C_19  and  C_20
REMARK                            x       y       z     vdW  Elec       q    Type
REMARK                         _______ _______ _______ _____ _____    ______ ____
ROOT
ATOM      1  C   UNL     1      47.428   5.101  15.257  0.00  0.00    +0.000 A 
ATOM      2  C   UNL     1      48.283   6.071  14.717  0.00  0.00    +0.000 A 
ATOM      3  C   UNL     1      48.121   6.503  13.405  0.00  0.00    +0.000 A 
ATOM      4  C   UNL     1      47.111   5.954  12.612  0.00  0.00    +0.000 A 
ATOM      5  C   UNL     1      46.246   4.958  13.102  0.00  0.00    +0.000 A 
ATOM      6  C   UNL     1      46.394   4.577  14.452  0.00  0.00    +0.000 A 
ENDROOT
BRANCH   5   7
ATOM      7  C   UNL     1      45.274   4.294  12.204  0.00  0.00    +0.000 A 
ATOM      8  C   UNL     1      44.231   3.535  12.711  0.00  0.00    +0.000 A 
ATOM      9  C   UNL     1      43.368   2.973  11.804  0.00  0.00    +0.000 A 
ATOM     10  N   UNL     1      43.494   3.125  10.479  0.00  0.00    +0.000 NA
ATOM     11  C   UNL     1      44.525   3.881  10.062  0.00  0.00    +0.000 A 
ATOM     12  C   UNL     1      44.675   4.063   8.583  0.00  0.00    +0.000 C 
ATOM     13  N   UNL     1      45.422   4.485  10.872  0.00  0.00    +0.000 NA
ENDBRANCH   5   7
BRANCH   1  14
ATOM     14  C   UNL     1      47.645   4.623  16.678  0.00  0.00    +0.000 C 
BRANCH  14  22
ATOM     15  C   UNL     1      53.275   4.016  19.114  0.00  0.00    +0.000 C 
ATOM     16  N   UNL     1      51.832   3.997  19.213  0.00  0.00    +0.000 N 
ATOM     17  C   UNL     1      51.174   3.248  18.247  0.00  0.00    +0.000 A 
ATOM     18  N   UNL     1      51.771   2.194  17.709  0.00  0.00    +0.000 NA
ATOM     19  C   UNL     1      51.041   1.535  16.819  0.00  0.00    +0.000 A 
ATOM     20  N   UNL     1      49.809   1.846  16.434  0.00  0.00    +0.000 NA
ATOM     21  C   UNL     1      49.299   2.917  17.028  0.00  0.00    +0.000 A 
ATOM     22  N   UNL     1      47.991   3.219  16.672  0.00  0.00    +0.000 N 
ATOM     23  N   UNL     1      49.949   3.657  17.923  0.00  0.00    +0.000 NA
ATOM     24  H   UNL     1      51.375   4.901  19.260  0.00  0.00    +0.000 HD
ATOM     25  H   UNL     1      47.789   2.729  15.809  0.00  0.00    +0.000 HD
ENDBRANCH  14  22
ENDBRANCH   1  14
TORSDOF 3
ENDMDL
MODEL 8
REMARK VINA RESULT:    -6.685      2.952      8.118
REMARK INTER + INTRA:          -8.295
REMARK INTER:                  -7.656
REMARK INTRA:                  -0.638
REMARK UNBOUND:                -0.438
REMARK  Name = 
REMARK  5 active torsions:
REMARK  status: ('A' for Active; 'I' for Inactive)
REMARK    1  A    between atoms: C_1  and  N_2
REMARK    2  A    between atoms: N_8  and  C_9
REMARK    3  A    between atoms: C_9  and  C_10
REMARK    4  A    between atoms: C_14  and  C_15
REMARK    5  A    between atoms: C_19  and  C_20
REMARK                            x       y       z     vdW  Elec       q    Type
REMARK                         _______ _______ _______ _____ _____    ______ ____
ROOT
ATOM      1  C   UNL     1      47.715   7.341  12.879  0.00  0.00    +0.000 A 
ATOM      2  C   UNL     1      48.610   8.406  12.709  0.00  0.00    +0.000 A 
ATOM      3  C   UNL     1      49.637   8.617  13.623  0.00  0.00    +0.000 A 
ATOM      4  C   UNL     1      49.768   7.775  14.729  0.00  0.00    +0.000 A 
ATOM      5  C   UNL     1      48.878   6.709  14.955  0.00  0.00    +0.000 A 
ATOM      6  C   UNL     1      47.879   6.481  13.986  0.00  0.00    +0.000 A 
ENDROOT
BRANCH   5   7
ATOM      7  C   UNL     1      48.952   5.915  16.204  0.00  0.00    +0.000 A 
ATOM      8  C   UNL     1      49.729   6.332  17.273  0.00  0.00    +0.000 A 
ATOM      9  C   UNL     1      49.720   5.543  18.396  0.00  0.00    +0.000 A 
ATOM     10  N   UNL     1      49.009   4.412  18.494  0.00  0.00    +0.000 NA
ATOM     11  C   UNL     1      48.274   4.076  17.419  0.00  0.00    +0.000 A 
ATOM     12  C   UNL     1      47.471   2.815  17.516  0.00  0.00    +0.000 C 
ATOM     13  N   UNL     1      48.206   4.788  16.272  0.00  0.00    +0.000 NA
ENDBRANCH   5   7
BRANCH   1  14
ATOM     14  C   UNL     1      46.586   7.151  11.888  0.00  0.00    +0.000 C 
BRANCH  14  22
ATOM     15  C   UNL     1      44.438   2.010   9.250  0.00  0.00    +0.000 C 
ATOM     16  N   UNL     1      45.197   2.701  10.269  0.00  0.00    +0.000 N 
ATOM     17  C   UNL     1      44.534   3.739  10.912  0.00  0.00    +0.000 A 
ATOM     18  N   UNL     1      43.216   3.699  11.042  0.00  0.00    +0.000 NA
ATOM     19  C   UNL     1      42.691   4.725  11.697  0.00  0.00    +0.000 A 
ATOM     20  N   UNL     1      43.359   5.756  12.201  0.00  0.00    +0.000 NA
ATOM     21  C   UNL     1      44.673   5.705  12.018  0.00  0.00    +0.000 A 
ATOM     22  N   UNL     1      45.385   6.750  12.589  0.00  0.00    +0.000 N 
ATOM     23  N   UNL     1      45.299   4.729  11.364  0.00  0.00    +0.000 NA
ATOM     24  H   UNL     1      46.107   3.049   9.989  0.00  0.00    +0.000 HD
ATOM     25  H   UNL     1      44.730   7.498  12.782  0.00  0.00    +0.000 HD
ENDBRANCH  14  22
ENDBRANCH   1  14
TORSDOF 3
ENDMDL
MODEL 9
REMARK VINA RESULT:    -6.438      3.844      5.586
REMARK INTER + INTRA:          -8.005
REMARK INTER:                  -7.497
REMARK INTRA:                  -0.508
REMARK UNBOUND:                -0.438
REMARK  Name = 
REMARK  5 active torsions:
REMARK  status: ('A' for Active; 'I' for Inactive)
REMARK    1  A    between atoms: C_1  and  N_2
REMARK    2  A    between atoms: N_8  and  C_9
REMARK    3  A    between atoms: C_9  and  C_10
REMARK    4  A    between atoms: C_14  and  C_15
REMARK    5  A    between atoms: C_19  and  C_20
REMARK                            x       y       z     vdW  Elec       q    Type
REMARK                         _______ _______ _______ _____ _____    ______ ____
ROOT
ATOM      1  C   UNL     1      46.132   5.195  13.150  0.00  0.00    +0.000 A 
ATOM      2  C   UNL     1      44.944   4.661  12.633  0.00  0.00    +0.000 A 
ATOM      3  C   UNL     1      44.086   5.452  11.877  0.00  0.00    +0.000 A 
ATOM      4  C   UNL     1      44.399   6.792  11.645  0.00  0.00    +0.000 A 
ATOM      5  C   UNL     1      45.567   7.380  12.166  0.00  0.00    +0.000 A 
ATOM      6  C   UNL     1      46.449   6.544  12.883  0.00  0.00    +0.000 A 
ENDROOT
BRANCH   5   7
ATOM      7  C   UNL     1      45.810   8.834  12.024  0.00  0.00    +0.000 A 
ATOM      8  C   UNL     1      44.770   9.712  11.760  0.00  0.00    +0.000 A 
ATOM      9  C   UNL     1      45.087  11.044  11.666  0.00  0.00    +0.000 A 
ATOM     10  N   UNL     1      46.332  11.515  11.812  0.00  0.00    +0.000 NA
ATOM     11  C   UNL     1      47.286  10.605  12.073  0.00  0.00    +0.000 A 
ATOM     12  C   UNL     1      48.683  11.119  12.244  0.00  0.00    +0.000 C 
ATOM     13  N   UNL     1      47.077   9.275  12.197  0.00  0.00    +0.000 NA
ENDBRANCH   5   7
BRANCH   1  14
ATOM     14  C   UNL     1      47.035   4.322  13.998  0.00  0.00    +0.000 C 
BRANCH  14  22
ATOM     15  C   UNL     1      51.685   4.124  18.039  0.00  0.00    +0.000 C 
ATOM     16  N   UNL     1      50.650   4.831  17.318  0.00  0.00    +0.000 N 
ATOM     17  C   UNL     1      49.389   4.249  17.353  0.00  0.00    +0.000 A 
ATOM     18  N   UNL     1      49.027   3.522  18.400  0.00  0.00    +0.000 NA
ATOM     19  C   UNL     1      47.794   3.039  18.342  0.00  0.00    +0.000 A 
ATOM     20  N   UNL     1      46.932   3.214  17.347  0.00  0.00    +0.000 NA
ATOM     21  C   UNL     1      47.387   3.954  16.345  0.00  0.00    +0.000 A 
ATOM     22  N   UNL     1      46.475   4.188  15.325  0.00  0.00    +0.000 N 
ATOM     23  N   UNL     1      48.612   4.475  16.296  0.00  0.00    +0.000 NA
ATOM     24  H   UNL     1      50.854   5.056  16.350  0.00  0.00    +0.000 HD
ATOM     25  H   UNL     1      45.736   3.501  15.413  0.00  0.00    +0.000 HD
ENDBRANCH  14  22
ENDBRANCH   1  14
TORSDOF 3
ENDMDL
