MODEL 1
REMARK VINA RESULT:    -5.572      0.000      0.000
REMARK INTER + INTRA:          -6.943
REMARK INTER:                  -6.712
REMARK INTRA:                  -0.231
REMARK UNBOUND:                -0.231
REMARK  Name = 
REMARK  4 active torsions:
REMARK  status: ('A' for Active; 'I' for Inactive)
REMARK    1  A    between atoms: N_1  and  C_2
REMARK    2  A    between atoms: C_2  and  C_3
REMARK    3  A    between atoms: C_6  and  C_7
REMARK    4  A    between atoms: C_8  and  C_9
REMARK                            x       y       z     vdW  Elec       q    Type
REMARK                         _______ _______ _______ _____ _____    ______ ____
ROOT
ATOM      1  C   UNL     1      48.268   4.636  18.187  0.00  0.00    +0.000 A 
ATOM      2  C   UNL     1      47.525   3.536  17.769  0.00  0.00    +0.000 A 
ATOM      3  N   UNL     1      47.092   3.370  16.492  0.00  0.00    +0.000 NA
ATOM      4  C   UNL     1      47.435   4.352  15.626  0.00  0.00    +0.000 A 
ATOM      5  C   UNL     1      48.193   5.444  16.041  0.00  0.00    +0.000 A 
ATOM      6  N   UNL     1      48.624   5.614  17.316  0.00  0.00    +0.000 NA
ENDROOT
BRANCH   4   7
ATOM      7  C   UNL     1      46.987   4.248  14.232  0.00  0.00    +0.000 C 
ATOM      8  C   UNL     1      45.833   4.741  13.752  0.00  0.00    +0.000 C 
BRANCH   8   9
ATOM      9  C   UNL     1      45.417   4.607  12.347  0.00  0.00    +0.000 A 
ATOM     10  C   UNL     1      45.743   5.568  11.379  0.00  0.00    +0.000 A 
ATOM     11  C   UNL     1      45.345   5.412  10.051  0.00  0.00    +0.000 A 
ATOM     12  C   UNL     1      44.633   4.280   9.667  0.00  0.00    +0.000 A 
ATOM     13  C   UNL     1      44.323   3.302  10.611  0.00  0.00    +0.000 A 
ATOM     14  C   UNL     1      44.718   3.464  11.943  0.00  0.00    +0.000 A 
ENDBRANCH   8   9
ENDBRANCH   4   7
BRANCH   1  15
ATOM     15  C   UNL     1      48.670   4.799  19.632  0.00  0.00    +0.000 C 
BRANCH  15  16
ATOM     16  N   UNL     1      48.376   3.621  20.450  0.00  0.00    +0.000 NA
ATOM     17  H   UNL     1      47.377   3.609  20.653  0.00  0.00    +0.000 HD
ATOM     18  H   UNL     1      48.837   3.737  21.354  0.00  0.00    +0.000 HD
ENDBRANCH  15  16
ENDBRANCH   1  15
TORSDOF 4
ENDMDL
MODEL 2
REMARK VINA RESULT:    -5.473      2.889      7.347
REMARK INTER + INTRA:          -6.824
REMARK INTER:                  -6.566
REMARK INTRA:                  -0.257
REMARK UNBOUND:                -0.231
REMARK  Name = 
REMARK  4 active torsions:
REMARK  status: ('A' for Active; 'I' for Inactive)
REMARK    1  A    between atoms: N_1  and  C_2
REMARK    2  A    between atoms: C_2  and  C_3
REMARK    3  A    between atoms: C_6  and  C_7
REMARK    4  A    between atoms: C_8  and  C_9
REMARK                            x       y       z     vdW  Elec       q    Type
REMARK                         _______ _______ _______ _____ _____    ______ ____
ROOT
ATOM      1  C   UNL     1      44.906   4.329  10.860  0.00  0.00    +0.000 A 
ATOM      2  C   UNL     1      44.988   3.307  11.801  0.00  0.00    +0.000 A 
ATOM      3  N   UNL     1      45.655   3.430  12.979  0.00  0.00    +0.000 NA
ATOM      4  C   UNL     1      46.244   4.628  13.195  0.00  0.00    +0.000 A 
ATOM      5  C   UNL     1      46.147   5.657  12.260  0.00  0.00    +0.000 A 
ATOM      6  N   UNL     1      45.484   5.537  11.084  0.00  0.00    +0.000 NA
ENDROOT
BRANCH   4   7
ATOM      7  C   UNL     1      46.996   4.828  14.440  0.00  0.00    +0.000 C 
ATOM      8  C   UNL     1      47.133   3.913  15.415  0.00  0.00    +0.000 C 
BRANCH   8   9
ATOM      9  C   UNL     1      47.890   4.157  16.653  0.00  0.00    +0.000 A 
ATOM     10  C   UNL     1      48.585   5.354  16.878  0.00  0.00    +0.000 A 
ATOM     11  C   UNL     1      49.287   5.563  18.066  0.00  0.00    +0.000 A 
ATOM     12  C   UNL     1      49.285   4.586  19.056  0.00  0.00    +0.000 A 
ATOM     13  C   UNL     1      48.579   3.400  18.860  0.00  0.00    +0.000 A 
ATOM     14  C   UNL     1      47.881   3.190  17.667  0.00  0.00    +0.000 A 
ENDBRANCH   8   9
ENDBRANCH   4   7
BRANCH   1  15
ATOM     15  C   UNL     1      44.204   4.117   9.541  0.00  0.00    +0.000 C 
BRANCH  15  16
ATOM     16  N   UNL     1      44.994   4.554   8.388  0.00  0.00    +0.000 NA
ATOM     17  H   UNL     1      45.174   3.744   7.796  0.00  0.00    +0.000 HD
ATOM     18  H   UNL     1      45.909   4.856   8.724  0.00  0.00    +0.000 HD
ENDBRANCH  15  16
ENDBRANCH   1  15
TORSDOF 4
ENDMDL
MODEL 3
REMARK VINA RESULT:    -5.049      4.543      6.857
REMARK INTER + INTRA:          -6.313
REMARK INTER:                  -6.068
REMARK INTRA:                  -0.246
REMARK UNBOUND:                -0.231
REMARK  Name = 
REMARK  4 active torsions:
REMARK  status: ('A' for Active; 'I' for Inactive)
REMARK    1  A    between atoms: N_1  and  C_2
REMARK    2  A    between atoms: C_2  and  C_3
REMARK    3  A    between atoms: C_6  and  C_7
REMARK    4  A    between atoms: C_8  and  C_9
REMARK                            x       y       z     vdW  Elec       q    Type
REMARK                         _______ _______ _______ _____ _____    ______ ____
ROOT
ATOM      1  C   UNL     1      44.455   3.975  12.381  0.00  0.00    +0.000 A 
ATOM      2  C   UNL     1      44.409   4.666  11.173  0.00  0.00    +0.000 A 
ATOM      3  N   UNL     1      45.243   5.695  10.871  0.00  0.00    +0.000 NA
ATOM      4  C   UNL     1      46.144   6.018  11.827  0.00  0.00    +0.000 A 
ATOM      5  C   UNL     1      46.201   5.315  13.028  0.00  0.00    +0.000 A 
ATOM      6  N   UNL     1      45.369   4.288  13.334  0.00  0.00    +0.000 NA
ENDROOT
BRANCH   4   7
ATOM      7  C   UNL     1      47.067   7.131  11.576  0.00  0.00    +0.000 C 
ATOM      8  C   UNL     1      48.372   7.141  11.897  0.00  0.00    +0.000 C 
BRANCH   8   9
ATOM      9  C   UNL     1      49.261   8.284  11.635  0.00  0.00    +0.000 A 
ATOM     10  C   UNL     1      50.631   8.120  11.381  0.00  0.00    +0.000 A 
ATOM     11  C   UNL     1      51.450   9.220  11.126  0.00  0.00    +0.000 A 
ATOM     12  C   UNL     1      50.906  10.501  11.101  0.00  0.00    +0.000 A 
ATOM     13  C   UNL     1      49.542  10.680  11.327  0.00  0.00    +0.000 A 
ATOM     14  C   UNL     1      48.724   9.576  11.588  0.00  0.00    +0.000 A 
ENDBRANCH   8   9
ENDBRANCH   4   7
BRANCH   1  15
ATOM     15  C   UNL     1      43.464   2.879  12.688  0.00  0.00    +0.000 C 
BRANCH  15  16
ATOM     16  N   UNL     1      43.057   2.119  11.505  0.00  0.00    +0.000 NA
ATOM     17  H   UNL     1      42.972   2.765  10.720  0.00  0.00    +0.000 HD
ATOM     18  H   UNL     1      42.116   1.759  11.665  0.00  0.00    +0.000 HD
ENDBRANCH  15  16
ENDBRANCH   1  15
TORSDOF 4
ENDMDL
MODEL 4
REMARK VINA RESULT:    -4.832      5.907      8.083
REMARK INTER + INTRA:          -6.051
REMARK INTER:                  -5.802
REMARK INTRA:                  -0.249
REMARK UNBOUND:                -0.231
REMARK  Name = 
REMARK  4 active torsions:
REMARK  status: ('A' for Active; 'I' for Inactive)
REMARK    1  A    between atoms: N_1  and  C_2
REMARK    2  A    between atoms: C_2  and  C_3
REMARK    3  A    between atoms: C_6  and  C_7
REMARK    4  A    between atoms: C_8  and  C_9
REMARK                            x       y       z     vdW  Elec       q    Type
REMARK                         _______ _______ _______ _____ _____    ______ ____
ROOT
ATOM      1  C   UNL     1      46.524   1.911   7.576  0.00  0.00    +0.000 A 
ATOM      2  C   UNL     1      46.977   3.131   7.081  0.00  0.00    +0.000 A 
ATOM      3  N   UNL     1      46.703   4.323   7.674  0.00  0.00    +0.000 NA
ATOM      4  C   UNL     1      45.953   4.259   8.798  0.00  0.00    +0.000 A 
ATOM      5  C   UNL     1      45.515   3.035   9.302  0.00  0.00    +0.000 A 
ATOM      6  N   UNL     1      45.785   1.845   8.712  0.00  0.00    +0.000 NA
ENDROOT
BRANCH   4   7
ATOM      7  C   UNL     1      45.603   5.509   9.483  0.00  0.00    +0.000 C 
ATOM      8  C   UNL     1      45.971   5.834  10.734  0.00  0.00    +0.000 C 
BRANCH   8   9
ATOM      9  C   UNL     1      45.591   7.097  11.387  0.00  0.00    +0.000 A 
ATOM     10  C   UNL     1      46.384   7.692  12.378  0.00  0.00    +0.000 A 
ATOM     11  C   UNL     1      46.005   8.895  12.974  0.00  0.00    +0.000 A 
ATOM     12  C   UNL     1      44.835   9.532  12.572  0.00  0.00    +0.000 A 
ATOM     13  C   UNL     1      44.047   8.968  11.569  0.00  0.00    +0.000 A 
ATOM     14  C   UNL     1      44.427   7.759  10.978  0.00  0.00    +0.000 A 
ENDBRANCH   8   9
ENDBRANCH   4   7
BRANCH   1  15
ATOM     15  C   UNL     1      46.808   0.623   6.843  0.00  0.00    +0.000 C 
BRANCH  15  16
ATOM     16  N   UNL     1      46.860  -0.545   7.725  0.00  0.00    +0.000 NA
ATOM     17  H   UNL     1      47.713  -0.493   8.280  0.00  0.00    +0.000 HD
ATOM     18  H   UNL     1      46.961  -1.379   7.145  0.00  0.00    +0.000 HD
ENDBRANCH  15  16
ENDBRANCH   1  15
TORSDOF 4
ENDMDL
MODEL 5
REMARK VINA RESULT:    -4.616      4.771      6.868
REMARK INTER + INTRA:          -5.791
REMARK INTER:                  -5.552
REMARK INTRA:                  -0.239
REMARK UNBOUND:                -0.231
REMARK  Name = 
REMARK  4 active torsions:
REMARK  status: ('A' for Active; 'I' for Inactive)
REMARK    1  A    between atoms: N_1  and  C_2
REMARK    2  A    between atoms: C_2  and  C_3
REMARK    3  A    between atoms: C_6  and  C_7
REMARK    4  A    between atoms: C_8  and  C_9
REMARK                            x       y       z     vdW  Elec       q    Type
REMARK                         _______ _______ _______ _____ _____    ______ ____
ROOT
ATOM      1  C   UNL     1      44.408   5.501  13.023  0.00  0.00    +0.000 A 
ATOM      2  C   UNL     1      45.447   4.666  13.427  0.00  0.00    +0.000 A 
ATOM      3  N   UNL     1      46.752   5.041  13.411  0.00  0.00    +0.000 NA
ATOM      4  C   UNL     1      46.995   6.299  12.976  0.00  0.00    +0.000 A 
ATOM      5  C   UNL     1      45.954   7.139  12.588  0.00  0.00    +0.000 A 
ATOM      6  N   UNL     1      44.650   6.768  12.601  0.00  0.00    +0.000 NA
ENDROOT
BRANCH   4   7
ATOM      7  C   UNL     1      48.385   6.766  12.915  0.00  0.00    +0.000 C 
ATOM      8  C   UNL     1      48.945   7.392  11.866  0.00  0.00    +0.000 C 
BRANCH   8   9
ATOM      9  C   UNL     1      50.348   7.837  11.843  0.00  0.00    +0.000 A 
ATOM     10  C   UNL     1      50.948   8.466  12.943  0.00  0.00    +0.000 A 
ATOM     11  C   UNL     1      52.283   8.869  12.898  0.00  0.00    +0.000 A 
ATOM     12  C   UNL     1      53.044   8.629  11.759  0.00  0.00    +0.000 A 
ATOM     13  C   UNL     1      52.471   7.981  10.665  0.00  0.00    +0.000 A 
ATOM     14  C   UNL     1      51.131   7.583  10.710  0.00  0.00    +0.000 A 
ENDBRANCH   8   9
ENDBRANCH   4   7
BRANCH   1  15
ATOM     15  C   UNL     1      42.981   5.012  13.004  0.00  0.00    +0.000 C 
BRANCH  15  16
ATOM     16  N   UNL     1      42.266   5.357  11.774  0.00  0.00    +0.000 NA
ATOM     17  H   UNL     1      41.869   4.505  11.381  0.00  0.00    +0.000 HD
ATOM     18  H   UNL     1      42.950   5.680  11.088  0.00  0.00    +0.000 HD
ENDBRANCH  15  16
ENDBRANCH   1  15
TORSDOF 4
ENDMDL
MODEL 6
REMARK VINA RESULT:    -4.493      3.610      7.163
REMARK INTER + INTRA:          -5.643
REMARK INTER:                  -5.391
REMARK INTRA:                  -0.252
REMARK UNBOUND:                -0.231
REMARK  Name = 
REMARK  4 active torsions:
REMARK  status: ('A' for Active; 'I' for Inactive)
REMARK    1  A    between atoms: N_1  and  C_2
REMARK    2  A    between atoms: C_2  and  C_3
REMARK    3  A    between atoms: C_6  and  C_7
REMARK    4  A    between atoms: C_8  and  C_9
REMARK                            x       y       z     vdW  Elec       q    Type
REMARK                         _______ _______ _______ _____ _____    ______ ____
ROOT
ATOM      1  C   UNL     1      44.765   3.974  11.325  0.00  0.00    +0.000 A 
ATOM      2  C   UNL     1      45.314   3.760  12.587  0.00  0.00    +0.000 A 
ATOM      3  N   UNL     1      46.116   4.660  13.212  0.00  0.00    +0.000 NA
ATOM      4  C   UNL     1      46.356   5.804  12.531  0.00  0.00    +0.000 A 
ATOM      5  C   UNL     1      45.793   6.024  11.275  0.00  0.00    +0.000 A 
ATOM      6  N   UNL     1      44.993   5.128  10.647  0.00  0.00    +0.000 NA
ENDROOT
BRANCH   4   7
ATOM      7  C   UNL     1      47.229   6.815  13.138  0.00  0.00    +0.000 C 
ATOM      8  C   UNL     1      48.263   6.553  13.956  0.00  0.00    +0.000 C 
BRANCH   8   9
ATOM      9  C   UNL     1      49.110   7.599  14.552  0.00  0.00    +0.000 A 
ATOM     10  C   UNL     1      50.357   7.312  15.125  0.00  0.00    +0.000 A 
ATOM     11  C   UNL     1      51.144   8.325  15.674  0.00  0.00    +0.000 A 
ATOM     12  C   UNL     1      50.703   9.644  15.639  0.00  0.00    +0.000 A 
ATOM     13  C   UNL     1      49.477   9.951  15.051  0.00  0.00    +0.000 A 
ATOM     14  C   UNL     1      48.688   8.933  14.506  0.00  0.00    +0.000 A 
ENDBRANCH   8   9
ENDBRANCH   4   7
BRANCH   1  15
ATOM     15  C   UNL     1      43.929   2.914  10.652  0.00  0.00    +0.000 C 
BRANCH  15  16
ATOM     16  N   UNL     1      43.048   2.198  11.576  0.00  0.00    +0.000 NA
ATOM     17  H   UNL     1      43.123   2.632  12.495  0.00  0.00    +0.000 HD
ATOM     18  H   UNL     1      43.410   1.250  11.692  0.00  0.00    +0.000 HD
ENDBRANCH  15  16
ENDBRANCH   1  15
TORSDOF 4
ENDMDL
MODEL 7
REMARK VINA RESULT:    -4.415      1.459      2.387
REMARK INTER + INTRA:          -5.549
REMARK INTER:                  -5.307
REMARK INTRA:                  -0.242
REMARK UNBOUND:                -0.231
REMARK  Name = 
REMARK  4 active torsions:
REMARK  status: ('A' for Active; 'I' for Inactive)
REMARK    1  A    between atoms: N_1  and  C_2
REMARK    2  A    between atoms: C_2  and  C_3
REMARK    3  A    between atoms: C_6  and  C_7
REMARK    4  A    between atoms: C_8  and  C_9
REMARK                            x       y       z     vdW  Elec       q    Type
REMARK                         _______ _______ _______ _____ _____    ______ ____
ROOT
ATOM      1  C   UNL     1      49.285   6.056  17.303  0.00  0.00    +0.000 A 
ATOM      2  C   UNL     1      49.302   6.608  16.025  0.00  0.00    +0.000 A 
ATOM      3  N   UNL     1      48.505   6.171  15.015  0.00  0.00    +0.000 NA
ATOM      4  C   UNL     1      47.673   5.151  15.325  0.00  0.00    +0.000 A 
ATOM      5  C   UNL     1      47.645   4.611  16.609  0.00  0.00    +0.000 A 
ATOM      6  N   UNL     1      48.440   5.043  17.619  0.00  0.00    +0.000 NA
ENDROOT
BRANCH   4   7
ATOM      7  C   UNL     1      46.795   4.616  14.277  0.00  0.00    +0.000 C 
ATOM      8  C   UNL     1      46.361   5.304  13.207  0.00  0.00    +0.000 C 
BRANCH   8   9
ATOM      9  C   UNL     1      45.473   4.731  12.183  0.00  0.00    +0.000 A 
ATOM     10  C   UNL     1      44.564   3.704  12.475  0.00  0.00    +0.000 A 
ATOM     11  C   UNL     1      43.726   3.186  11.486  0.00  0.00    +0.000 A 
ATOM     12  C   UNL     1      43.771   3.703  10.196  0.00  0.00    +0.000 A 
ATOM     13  C   UNL     1      44.651   4.742   9.894  0.00  0.00    +0.000 A 
ATOM     14  C   UNL     1      45.494   5.255  10.884  0.00  0.00    +0.000 A 
ENDBRANCH   8   9
ENDBRANCH   4   7
BRANCH   1  15
ATOM     15  C   UNL     1      50.235   6.540  18.371  0.00  0.00    +0.000 C 
BRANCH  15  16
ATOM     16  N   UNL     1      50.019   7.939  18.746  0.00  0.00    +0.000 NA
ATOM     17  H   UNL     1      50.617   8.156  19.542  0.00  0.00    +0.000 HD
ATOM     18  H   UNL     1      49.062   8.034  19.089  0.00  0.00    +0.000 HD
ENDBRANCH  15  16
ENDBRANCH   1  15
TORSDOF 4
ENDMDL
MODEL 8
REMARK VINA RESULT:    -4.372      4.096      5.149
REMARK INTER + INTRA:          -5.497
REMARK INTER:                  -5.256
REMARK INTRA:                  -0.241
REMARK UNBOUND:                -0.231
REMARK  Name = 
REMARK  4 active torsions:
REMARK  status: ('A' for Active; 'I' for Inactive)
REMARK    1  A    between atoms: N_1  and  C_2
REMARK    2  A    between atoms: C_2  and  C_3
REMARK    3  A    between atoms: C_6  and  C_7
REMARK    4  A    between atoms: C_8  and  C_9
REMARK                            x       y       z     vdW  Elec       q    Type
REMARK                         _______ _______ _______ _____ _____    ______ ____
ROOT
ATOM      1  C   UNL     1      51.113   8.430  13.076  0.00  0.00    +0.000 A 
ATOM      2  C   UNL     1      50.614   8.671  11.799  0.00  0.00    +0.000 A 
ATOM      3  N   UNL     1      49.392   8.246  11.384  0.00  0.00    +0.000 NA
ATOM      4  C   UNL     1      48.667   7.565  12.300  0.00  0.00    +0.000 A 
ATOM      5  C   UNL     1      49.160   7.339  13.584  0.00  0.00    +0.000 A 
ATOM      6  N   UNL     1      50.380   7.759  14.001  0.00  0.00    +0.000 NA
ENDROOT
BRANCH   4   7
ATOM      7  C   UNL     1      47.343   7.060  11.916  0.00  0.00    +0.000 C 
ATOM      8  C   UNL     1      46.673   6.085  12.553  0.00  0.00    +0.000 C 
BRANCH   8   9
ATOM      9  C   UNL     1      45.349   5.602  12.129  0.00  0.00    +0.000 A 
ATOM     10  C   UNL     1      45.097   5.174  10.817  0.00  0.00    +0.000 A 
ATOM     11  C   UNL     1      43.835   4.711  10.444  0.00  0.00    +0.000 A 
ATOM     12  C   UNL     1      42.811   4.650  11.384  0.00  0.00    +0.000 A 
ATOM     13  C   UNL     1      43.051   5.047  12.699  0.00  0.00    +0.000 A 
ATOM     14  C   UNL     1      44.315   5.516  13.069  0.00  0.00    +0.000 A 
ENDBRANCH   8   9
ENDBRANCH   4   7
BRANCH   1  15
ATOM     15  C   UNL     1      52.502   8.873  13.464  0.00  0.00    +0.000 C 
BRANCH  15  16
ATOM     16  N   UNL     1      53.341   7.779  13.959  0.00  0.00    +0.000 NA
ATOM     17  H   UNL     1      53.463   7.896  14.964  0.00  0.00    +0.000 HD
ATOM     18  H   UNL     1      54.273   7.885  13.557  0.00  0.00    +0.000 HD
ENDBRANCH  15  16
ENDBRANCH   1  15
TORSDOF 4
ENDMDL
MODEL 9
REMARK VINA RESULT:    -4.252      3.552      7.343
REMARK INTER + INTRA:          -5.353
REMARK INTER:                  -5.110
REMARK INTRA:                  -0.243
REMARK UNBOUND:                -0.231
REMARK  Name = 
REMARK  4 active torsions:
REMARK  status: ('A' for Active; 'I' for Inactive)
REMARK    1  A    between atoms: N_1  and  C_2
REMARK    2  A    between atoms: C_2  and  C_3
REMARK    3  A    between atoms: C_6  and  C_7
REMARK    4  A    between atoms: C_8  and  C_9
REMARK                            x       y       z     vdW  Elec       q    Type
REMARK                         _______ _______ _______ _____ _____    ______ ____
ROOT
ATOM      1  C   UNL     1      44.337   5.460  12.156  0.00  0.00    +0.000 A 
ATOM      2  C   UNL     1      44.797   4.403  12.937  0.00  0.00    +0.000 A 
ATOM      3  N   UNL     1      45.917   4.475  13.703  0.00  0.00    +0.000 NA
ATOM      4  C   UNL     1      46.574   5.657  13.670  0.00  0.00    +0.000 A 
ATOM      5  C   UNL     1      46.103   6.720  12.901  0.00  0.00    +0.000 A 
ATOM      6  N   UNL     1      44.987   6.651  12.134  0.00  0.00    +0.000 NA
ENDROOT
BRANCH   4   7
ATOM      7  C   UNL     1      47.802   5.802  14.460  0.00  0.00    +0.000 C 
ATOM      8  C   UNL     1      48.592   6.888  14.467  0.00  0.00    +0.000 C 
BRANCH   8   9
ATOM      9  C   UNL     1      49.823   6.989  15.269  0.00  0.00    +0.000 A 
ATOM     10  C   UNL     1      49.987   6.289  16.473  0.00  0.00    +0.000 A 
ATOM     11  C   UNL     1      51.168   6.394  17.209  0.00  0.00    +0.000 A 
ATOM     12  C   UNL     1      52.211   7.186  16.739  0.00  0.00    +0.000 A 
ATOM     13  C   UNL     1      52.075   7.869  15.531  0.00  0.00    +0.000 A 
ATOM     14  C   UNL     1      50.888   7.766  14.799  0.00  0.00    +0.000 A 
ENDBRANCH   8   9
ENDBRANCH   4   7
BRANCH   1  15
ATOM     15  C   UNL     1      43.120   5.305  11.277  0.00  0.00    +0.000 C 
BRANCH  15  16
ATOM     16  N   UNL     1      43.449   5.077   9.869  0.00  0.00    +0.000 NA
ATOM     17  H   UNL     1      44.245   4.443   9.822  0.00  0.00    +0.000 HD
ATOM     18  H   UNL     1      43.777   5.958   9.471  0.00  0.00    +0.000 HD
ENDBRANCH  15  16
ENDBRANCH   1  15
TORSDOF 4
ENDMDL
