MODEL 1
REMARK VINA RESULT:    -7.956      0.000      0.000
REMARK INTER + INTRA:         -10.452
REMARK INTER:                  -9.816
REMARK INTRA:                  -0.636
REMARK UNBOUND:                -0.636
REMARK  Name = 
REMARK  4 active torsions:
REMARK  status: ('A' for Active; 'I' for Inactive)
REMARK    1  A    between atoms: C_4  and  C_5
REMARK    2  A    between atoms: C_5  and  N_6
REMARK    3  A    between atoms: C_11  and  C_12
REMARK    4  A    between atoms: C_18  and  C_19
REMARK                            x       y       z     vdW  Elec       q    Type
REMARK                         _______ _______ _______ _____ _____    ______ ____
ROOT
ATOM      1  F   UNL     1      42.835   2.457  11.693  0.00  0.00    +0.000 F 
ATOM      2  C   UNL     1      43.715   3.197  11.001  0.00  0.00    +0.000 A 
ATOM      3  C   UNL     1      43.942   4.511  11.384  0.00  0.00    +0.000 A 
ATOM      4  C   UNL     1      44.842   5.299  10.658  0.00  0.00    +0.000 A 
ATOM      5  C   UNL     1      45.534   4.719   9.574  0.00  0.00    +0.000 A 
ATOM      6  C   UNL     1      45.310   3.385   9.161  0.00  0.00    +0.000 A 
ATOM      7  C   UNL     1      44.374   2.644   9.905  0.00  0.00    +0.000 A 
ATOM      8  F   UNL     1      44.076   1.380   9.564  0.00  0.00    +0.000 F 
ENDROOT
BRANCH   6   9
ATOM      9  C   UNL     1      46.020   2.813   7.986  0.00  0.00    +0.000 A 
ATOM     10  C   UNL     1      46.236   3.554   6.815  0.00  0.00    +0.000 A 
ATOM     11  C   UNL     1      46.931   2.983   5.756  0.00  0.00    +0.000 A 
ATOM     12  N   UNL     1      47.409   1.725   5.764  0.00  0.00    +0.000 NA
ATOM     13  C   UNL     1      47.192   1.012   6.885  0.00  0.00    +0.000 A 
ATOM     14  C   UNL     1      46.523   1.503   7.998  0.00  0.00    +0.000 A 
ENDBRANCH   6   9
BRANCH   4  15
ATOM     15  C   UNL     1      45.075   6.744  11.048  0.00  0.00    +0.000 C 
BRANCH  15  16
ATOM     16  N   UNL     1      45.305   6.825  12.471  0.00  0.00    +0.000 N 
ATOM     17  C   UNL     1      46.637   6.898  12.845  0.00  0.00    +0.000 A 
ATOM     18  N   UNL     1      46.942   6.328  14.015  0.00  0.00    +0.000 NA
ATOM     19  C   UNL     1      48.217   6.426  14.435  0.00  0.00    +0.000 A 
ATOM     20  C   UNL     1      49.201   7.063  13.724  0.00  0.00    +0.000 A 
ATOM     21  C   UNL     1      48.814   7.613  12.517  0.00  0.00    +0.000 A 
ATOM     22  N   UNL     1      47.531   7.522  12.069  0.00  0.00    +0.000 NA
ATOM     23  H   UNL     1      44.886   6.092  13.031  0.00  0.00    +0.000 HD
BRANCH  21  24
ATOM     24  C   UNL     1      49.833   8.347  11.660  0.00  0.00    +0.000 C 
ATOM     25  F   UNL     1      50.905   8.806  12.376  0.00  0.00    +0.000 F 
ATOM     26  F   UNL     1      50.365   7.566  10.677  0.00  0.00    +0.000 F 
ATOM     27  F   UNL     1      49.319   9.444  11.036  0.00  0.00    +0.000 F 
ENDBRANCH  21  24
ENDBRANCH  15  16
ENDBRANCH   4  15
TORSDOF 4
ENDMDL
MODEL 2
REMARK VINA RESULT:    -7.756      2.404      2.840
REMARK INTER + INTRA:         -10.205
REMARK INTER:                  -9.737
REMARK INTRA:                  -0.468
REMARK UNBOUND:                -0.636
REMARK  Name = 
REMARK  4 active torsions:
REMARK  status: ('A' for Active; 'I' for Inactive)
REMARK    1  A    between atoms: C_4  and  C_5
REMARK    2  A    between atoms: C_5  and  N_6
REMARK    3  A    between atoms: C_11  and  C_12
REMARK    4  A    between atoms: C_18  and  C_19
REMARK                            x       y       z     vdW  Elec       q    Type
REMARK                         _______ _______ _______ _____ _____    ______ ____
ROOT
ATOM      1  F   UNL     1      42.810   2.101  11.654  0.00  0.00    +0.000 F 
ATOM      2  C   UNL     1      43.661   2.916  11.014  0.00  0.00    +0.000 A 
ATOM      3  C   UNL     1      43.812   4.222  11.461  0.00  0.00    +0.000 A 
ATOM      4  C   UNL     1      44.681   5.088  10.789  0.00  0.00    +0.000 A 
ATOM      5  C   UNL     1      45.421   4.596   9.694  0.00  0.00    +0.000 A 
ATOM      6  C   UNL     1      45.275   3.273   9.216  0.00  0.00    +0.000 A 
ATOM      7  C   UNL     1      44.367   2.450   9.908  0.00  0.00    +0.000 A 
ATOM      8  F   UNL     1      44.142   1.190   9.504  0.00  0.00    +0.000 F 
ENDROOT
BRANCH   6   9
ATOM      9  C   UNL     1      46.034   2.793   8.030  0.00  0.00    +0.000 A 
ATOM     10  C   UNL     1      46.258   3.609   6.911  0.00  0.00    +0.000 A 
ATOM     11  C   UNL     1      46.998   3.123   5.841  0.00  0.00    +0.000 A 
ATOM     12  N   UNL     1      47.516   1.882   5.789  0.00  0.00    +0.000 NA
ATOM     13  C   UNL     1      47.292   1.097   6.859  0.00  0.00    +0.000 A 
ATOM     14  C   UNL     1      46.577   1.500   7.980  0.00  0.00    +0.000 A 
ENDBRANCH   6   9
BRANCH   4  15
ATOM     15  C   UNL     1      44.831   6.524  11.248  0.00  0.00    +0.000 C 
BRANCH  15  16
ATOM     16  N   UNL     1      46.213   6.923  11.128  0.00  0.00    +0.000 N 
ATOM     17  C   UNL     1      46.974   6.751  12.273  0.00  0.00    +0.000 A 
ATOM     18  N   UNL     1      47.954   7.641  12.456  0.00  0.00    +0.000 NA
ATOM     19  C   UNL     1      48.746   7.473  13.531  0.00  0.00    +0.000 A 
ATOM     20  C   UNL     1      48.588   6.457  14.437  0.00  0.00    +0.000 A 
ATOM     21  C   UNL     1      47.544   5.586  14.191  0.00  0.00    +0.000 A 
ATOM     22  N   UNL     1      46.726   5.739  13.113  0.00  0.00    +0.000 NA
ATOM     23  H   UNL     1      46.375   7.871  10.811  0.00  0.00    +0.000 HD
BRANCH  21  24
ATOM     24  C   UNL     1      47.292   4.422  15.135  0.00  0.00    +0.000 C 
ATOM     25  F   UNL     1      46.028   4.419  15.658  0.00  0.00    +0.000 F 
ATOM     26  F   UNL     1      47.436   3.206  14.533  0.00  0.00    +0.000 F 
ATOM     27  F   UNL     1      48.128   4.412  16.212  0.00  0.00    +0.000 F 
ENDBRANCH  21  24
ENDBRANCH  15  16
ENDBRANCH   4  15
TORSDOF 4
ENDMDL
MODEL 3
REMARK VINA RESULT:    -7.153      3.695      5.845
REMARK INTER + INTRA:          -9.461
REMARK INTER:                  -8.494
REMARK INTRA:                  -0.967
REMARK UNBOUND:                -0.636
REMARK  Name = 
REMARK  4 active torsions:
REMARK  status: ('A' for Active; 'I' for Inactive)
REMARK    1  A    between atoms: C_4  and  C_5
REMARK    2  A    between atoms: C_5  and  N_6
REMARK    3  A    between atoms: C_11  and  C_12
REMARK    4  A    between atoms: C_18  and  C_19
REMARK                            x       y       z     vdW  Elec       q    Type
REMARK                         _______ _______ _______ _____ _____    ______ ____
ROOT
ATOM      1  F   UNL     1      45.616   9.970  12.513  0.00  0.00    +0.000 F 
ATOM      2  C   UNL     1      46.107   8.724  12.582  0.00  0.00    +0.000 A 
ATOM      3  C   UNL     1      47.403   8.533  13.039  0.00  0.00    +0.000 A 
ATOM      4  C   UNL     1      47.934   7.239  13.097  0.00  0.00    +0.000 A 
ATOM      5  C   UNL     1      47.117   6.150  12.728  0.00  0.00    +0.000 A 
ATOM      6  C   UNL     1      45.797   6.324  12.250  0.00  0.00    +0.000 A 
ATOM      7  C   UNL     1      45.320   7.646  12.183  0.00  0.00    +0.000 A 
ATOM      8  F   UNL     1      44.090   7.906  11.711  0.00  0.00    +0.000 F 
ENDROOT
BRANCH   6   9
ATOM      9  C   UNL     1      44.972   5.162  11.824  0.00  0.00    +0.000 A 
ATOM     10  C   UNL     1      44.921   4.736  10.488  0.00  0.00    +0.000 A 
ATOM     11  C   UNL     1      44.158   3.627  10.146  0.00  0.00    +0.000 A 
ATOM     12  N   UNL     1      43.426   2.920  11.027  0.00  0.00    +0.000 NA
ATOM     13  C   UNL     1      43.468   3.335  12.307  0.00  0.00    +0.000 A 
ATOM     14  C   UNL     1      44.214   4.423  12.745  0.00  0.00    +0.000 A 
ENDBRANCH   6   9
BRANCH   4  15
ATOM     15  C   UNL     1      49.358   7.021  13.565  0.00  0.00    +0.000 C 
BRANCH  15  16
ATOM     16  N   UNL     1      49.539   7.645  14.855  0.00  0.00    +0.000 N 
ATOM     17  C   UNL     1      49.029   6.930  15.927  0.00  0.00    +0.000 A 
ATOM     18  N   UNL     1      48.571   7.663  16.946  0.00  0.00    +0.000 NA
ATOM     19  C   UNL     1      48.117   7.002  18.027  0.00  0.00    +0.000 A 
ATOM     20  C   UNL     1      48.094   5.635  18.123  0.00  0.00    +0.000 A 
ATOM     21  C   UNL     1      48.568   4.944  17.024  0.00  0.00    +0.000 A 
ATOM     22  N   UNL     1      49.028   5.592  15.917  0.00  0.00    +0.000 NA
ATOM     23  H   UNL     1      49.188   8.591  14.943  0.00  0.00    +0.000 HD
BRANCH  21  24
ATOM     24  C   UNL     1      48.590   3.424  17.038  0.00  0.00    +0.000 C 
ATOM     25  F   UNL     1      47.979   2.889  18.139  0.00  0.00    +0.000 F 
ATOM     26  F   UNL     1      47.950   2.872  15.967  0.00  0.00    +0.000 F 
ATOM     27  F   UNL     1      49.849   2.905  17.036  0.00  0.00    +0.000 F 
ENDBRANCH  21  24
ENDBRANCH  15  16
ENDBRANCH   4  15
TORSDOF 4
ENDMDL
MODEL 4
REMARK VINA RESULT:    -6.839      2.571      7.148
REMARK INTER + INTRA:          -9.074
REMARK INTER:                  -8.279
REMARK INTRA:                  -0.795
REMARK UNBOUND:                -0.636
REMARK  Name = 
REMARK  4 active torsions:
REMARK  status: ('A' for Active; 'I' for Inactive)
REMARK    1  A    between atoms: C_4  and  C_5
REMARK    2  A    between atoms: C_5  and  N_6
REMARK    3  A    between atoms: C_11  and  C_12
REMARK    4  A    between atoms: C_18  and  C_19
REMARK                            x       y       z     vdW  Elec       q    Type
REMARK                         _______ _______ _______ _____ _____    ______ ____
ROOT
ATOM      1  F   UNL     1      49.689   7.305  15.968  0.00  0.00    +0.000 F 
ATOM      2  C   UNL     1      49.296   7.462  14.695  0.00  0.00    +0.000 A 
ATOM      3  C   UNL     1      47.962   7.259  14.370  0.00  0.00    +0.000 A 
ATOM      4  C   UNL     1      47.544   7.399  13.042  0.00  0.00    +0.000 A 
ATOM      5  C   UNL     1      48.487   7.789  12.068  0.00  0.00    +0.000 A 
ATOM      6  C   UNL     1      49.852   7.991  12.377  0.00  0.00    +0.000 A 
ATOM      7  C   UNL     1      50.228   7.810  13.720  0.00  0.00    +0.000 A 
ATOM      8  F   UNL     1      51.509   7.949  14.096  0.00  0.00    +0.000 F 
ENDROOT
BRANCH   6   9
ATOM      9  C   UNL     1      50.834   8.358  11.322  0.00  0.00    +0.000 A 
ATOM     10  C   UNL     1      51.136   9.695  11.021  0.00  0.00    +0.000 A 
ATOM     11  C   UNL     1      52.083   9.986  10.047  0.00  0.00    +0.000 A 
ATOM     12  N   UNL     1      52.738   9.050   9.335  0.00  0.00    +0.000 NA
ATOM     13  C   UNL     1      52.441   7.769   9.618  0.00  0.00    +0.000 A 
ATOM     14  C   UNL     1      51.520   7.382  10.584  0.00  0.00    +0.000 A 
ENDBRANCH   6   9
BRANCH   4  15
ATOM     15  C   UNL     1      46.097   7.150  12.670  0.00  0.00    +0.000 C 
BRANCH  15  16
ATOM     16  N   UNL     1      45.650   5.921  13.283  0.00  0.00    +0.000 N 
ATOM     17  C   UNL     1      45.029   5.030  12.423  0.00  0.00    +0.000 A 
ATOM     18  N   UNL     1      44.068   4.276  12.964  0.00  0.00    +0.000 NA
ATOM     19  C   UNL     1      43.479   3.362  12.171  0.00  0.00    +0.000 A 
ATOM     20  C   UNL     1      43.807   3.182  10.852  0.00  0.00    +0.000 A 
ATOM     21  C   UNL     1      44.797   4.009  10.357  0.00  0.00    +0.000 A 
ATOM     22  N   UNL     1      45.403   4.945  11.140  0.00  0.00    +0.000 NA
ATOM     23  H   UNL     1      45.041   6.021  14.086  0.00  0.00    +0.000 HD
BRANCH  21  24
ATOM     24  C   UNL     1      45.235   3.881   8.907  0.00  0.00    +0.000 C 
ATOM     25  F   UNL     1      46.157   4.823   8.540  0.00  0.00    +0.000 F 
ATOM     26  F   UNL     1      45.818   2.680   8.631  0.00  0.00    +0.000 F 
ATOM     27  F   UNL     1      44.208   4.017   8.022  0.00  0.00    +0.000 F 
ENDBRANCH  21  24
ENDBRANCH  15  16
ENDBRANCH   4  15
TORSDOF 4
ENDMDL
MODEL 5
REMARK VINA RESULT:    -6.831      2.543      8.214
REMARK INTER + INTRA:          -9.064
REMARK INTER:                  -8.278
REMARK INTRA:                  -0.786
REMARK UNBOUND:                -0.636
REMARK  Name = 
REMARK  4 active torsions:
REMARK  status: ('A' for Active; 'I' for Inactive)
REMARK    1  A    between atoms: C_4  and  C_5
REMARK    2  A    between atoms: C_5  and  N_6
REMARK    3  A    between atoms: C_11  and  C_12
REMARK    4  A    between atoms: C_18  and  C_19
REMARK                            x       y       z     vdW  Elec       q    Type
REMARK                         _______ _______ _______ _____ _____    ______ ____
ROOT
ATOM      1  F   UNL     1      50.201   8.128  11.093  0.00  0.00    +0.000 F 
ATOM      2  C   UNL     1      49.453   7.804  12.158  0.00  0.00    +0.000 A 
ATOM      3  C   UNL     1      48.104   7.532  11.980  0.00  0.00    +0.000 A 
ATOM      4  C   UNL     1      47.308   7.214  13.086  0.00  0.00    +0.000 A 
ATOM      5  C   UNL     1      47.912   7.133  14.359  0.00  0.00    +0.000 A 
ATOM      6  C   UNL     1      49.282   7.416  14.564  0.00  0.00    +0.000 A 
ATOM      7  C   UNL     1      50.032   7.760  13.425  0.00  0.00    +0.000 A 
ATOM      8  F   UNL     1      51.333   8.075  13.532  0.00  0.00    +0.000 F 
ENDROOT
BRANCH   6   9
ATOM      9  C   UNL     1      49.884   7.368  15.923  0.00  0.00    +0.000 A 
ATOM     10  C   UNL     1      50.307   8.528  16.591  0.00  0.00    +0.000 A 
ATOM     11  C   UNL     1      50.836   8.433  17.871  0.00  0.00    +0.000 A 
ATOM     12  N   UNL     1      50.997   7.270  18.532  0.00  0.00    +0.000 NA
ATOM     13  C   UNL     1      50.600   6.158  17.887  0.00  0.00    +0.000 A 
ATOM     14  C   UNL     1      50.046   6.157  16.613  0.00  0.00    +0.000 A 
ENDBRANCH   6   9
BRANCH   4  15
ATOM     15  C   UNL     1      45.829   6.945  12.907  0.00  0.00    +0.000 C 
BRANCH  15  16
ATOM     16  N   UNL     1      45.515   5.632  13.421  0.00  0.00    +0.000 N 
ATOM     17  C   UNL     1      44.966   4.758  12.497  0.00  0.00    +0.000 A 
ATOM     18  N   UNL     1      44.094   3.871  12.985  0.00  0.00    +0.000 NA
ATOM     19  C   UNL     1      43.580   2.973  12.125  0.00  0.00    +0.000 A 
ATOM     20  C   UNL     1      43.897   2.935  10.792  0.00  0.00    +0.000 A 
ATOM     21  C   UNL     1      44.792   3.893  10.356  0.00  0.00    +0.000 A 
ATOM     22  N   UNL     1      45.321   4.816  11.207  0.00  0.00    +0.000 NA
ATOM     23  H   UNL     1      44.916   5.606  14.237  0.00  0.00    +0.000 HD
BRANCH  21  24
ATOM     24  C   UNL     1      45.211   3.927   8.895  0.00  0.00    +0.000 C 
ATOM     25  F   UNL     1      45.890   2.805   8.505  0.00  0.00    +0.000 F 
ATOM     26  F   UNL     1      44.153   4.024   8.039  0.00  0.00    +0.000 F 
ATOM     27  F   UNL     1      46.036   4.970   8.597  0.00  0.00    +0.000 F 
ENDBRANCH  21  24
ENDBRANCH  15  16
ENDBRANCH   4  15
TORSDOF 4
ENDMDL
MODEL 6
REMARK VINA RESULT:    -6.665      3.937      6.364
REMARK INTER + INTRA:          -8.859
REMARK INTER:                  -8.027
REMARK INTRA:                  -0.832
REMARK UNBOUND:                -0.636
REMARK  Name = 
REMARK  4 active torsions:
REMARK  status: ('A' for Active; 'I' for Inactive)
REMARK    1  A    between atoms: C_4  and  C_5
REMARK    2  A    between atoms: C_5  and  N_6
REMARK    3  A    between atoms: C_11  and  C_12
REMARK    4  A    between atoms: C_18  and  C_19
REMARK                            x       y       z     vdW  Elec       q    Type
REMARK                         _______ _______ _______ _____ _____    ______ ____
ROOT
ATOM      1  F   UNL     1      49.063   8.059  11.175  0.00  0.00    +0.000 F 
ATOM      2  C   UNL     1      48.364   7.348  12.071  0.00  0.00    +0.000 A 
ATOM      3  C   UNL     1      48.788   7.321  13.392  0.00  0.00    +0.000 A 
ATOM      4  C   UNL     1      48.080   6.566  14.333  0.00  0.00    +0.000 A 
ATOM      5  C   UNL     1      46.917   5.881  13.921  0.00  0.00    +0.000 A 
ATOM      6  C   UNL     1      46.474   5.886  12.577  0.00  0.00    +0.000 A 
ATOM      7  C   UNL     1      47.237   6.637  11.665  0.00  0.00    +0.000 A 
ATOM      8  F   UNL     1      46.907   6.672  10.364  0.00  0.00    +0.000 F 
ENDROOT
BRANCH   6   9
ATOM      9  C   UNL     1      45.271   5.118  12.160  0.00  0.00    +0.000 A 
ATOM     10  C   UNL     1      45.369   3.868  11.529  0.00  0.00    +0.000 A 
ATOM     11  C   UNL     1      44.214   3.177  11.185  0.00  0.00    +0.000 A 
ATOM     12  N   UNL     1      42.969   3.642  11.401  0.00  0.00    +0.000 NA
ATOM     13  C   UNL     1      42.877   4.845  11.997  0.00  0.00    +0.000 A 
ATOM     14  C   UNL     1      43.974   5.601  12.391  0.00  0.00    +0.000 A 
ENDBRANCH   6   9
BRANCH   4  15
ATOM     15  C   UNL     1      48.550   6.505  15.771  0.00  0.00    +0.000 C 
BRANCH  15  16
ATOM     16  N   UNL     1      48.007   5.326  16.403  0.00  0.00    +0.000 N 
ATOM     17  C   UNL     1      48.936   4.347  16.715  0.00  0.00    +0.000 A 
ATOM     18  N   UNL     1      48.494   3.088  16.656  0.00  0.00    +0.000 NA
ATOM     19  C   UNL     1      49.355   2.114  17.003  0.00  0.00    +0.000 A 
ATOM     20  C   UNL     1      50.647   2.351  17.395  0.00  0.00    +0.000 A 
ATOM     21  C   UNL     1      51.038   3.675  17.416  0.00  0.00    +0.000 A 
ATOM     22  N   UNL     1      50.185   4.678  17.064  0.00  0.00    +0.000 NA
ATOM     23  H   UNL     1      47.253   4.864  15.908  0.00  0.00    +0.000 HD
BRANCH  21  24
ATOM     24  C   UNL     1      52.450   4.040  17.845  0.00  0.00    +0.000 C 
ATOM     25  F   UNL     1      52.500   4.633  19.077  0.00  0.00    +0.000 F 
ATOM     26  F   UNL     1      53.277   2.959  17.933  0.00  0.00    +0.000 F 
ATOM     27  F   UNL     1      53.060   4.915  16.998  0.00  0.00    +0.000 F 
ENDBRANCH  21  24
ENDBRANCH  15  16
ENDBRANCH   4  15
TORSDOF 4
ENDMDL
MODEL 7
REMARK VINA RESULT:    -6.662      4.161      6.553
REMARK INTER + INTRA:          -8.856
REMARK INTER:                  -8.109
REMARK INTRA:                  -0.747
REMARK UNBOUND:                -0.636
REMARK  Name = 
REMARK  4 active torsions:
REMARK  status: ('A' for Active; 'I' for Inactive)
REMARK    1  A    between atoms: C_4  and  C_5
REMARK    2  A    between atoms: C_5  and  N_6
REMARK    3  A    between atoms: C_11  and  C_12
REMARK    4  A    between atoms: C_18  and  C_19
REMARK                            x       y       z     vdW  Elec       q    Type
REMARK                         _______ _______ _______ _____ _____    ______ ____
ROOT
ATOM      1  F   UNL     1      44.826   3.797  11.005  0.00  0.00    +0.000 F 
ATOM      2  C   UNL     1      45.601   4.474  11.864  0.00  0.00    +0.000 A 
ATOM      3  C   UNL     1      45.984   3.868  13.052  0.00  0.00    +0.000 A 
ATOM      4  C   UNL     1      46.775   4.572  13.966  0.00  0.00    +0.000 A 
ATOM      5  C   UNL     1      47.204   5.875  13.635  0.00  0.00    +0.000 A 
ATOM      6  C   UNL     1      46.816   6.515  12.434  0.00  0.00    +0.000 A 
ATOM      7  C   UNL     1      45.997   5.775  11.562  0.00  0.00    +0.000 A 
ATOM      8  F   UNL     1      45.555   6.316  10.415  0.00  0.00    +0.000 F 
ENDROOT
BRANCH   6   9
ATOM      9  C   UNL     1      47.245   7.906  12.129  0.00  0.00    +0.000 A 
ATOM     10  C   UNL     1      46.359   8.991  12.208  0.00  0.00    +0.000 A 
ATOM     11  C   UNL     1      46.815  10.275  11.941  0.00  0.00    +0.000 A 
ATOM     12  N   UNL     1      48.081  10.562  11.583  0.00  0.00    +0.000 NA
ATOM     13  C   UNL     1      48.928   9.519  11.498  0.00  0.00    +0.000 A 
ATOM     14  C   UNL     1      48.566   8.204  11.761  0.00  0.00    +0.000 A 
ENDBRANCH   6   9
BRANCH   4  15
ATOM     15  C   UNL     1      47.174   3.932  15.280  0.00  0.00    +0.000 C 
BRANCH  15  16
ATOM     16  N   UNL     1      47.109   4.919  16.333  0.00  0.00    +0.000 N 
ATOM     17  C   UNL     1      48.039   4.756  17.346  0.00  0.00    +0.000 A 
ATOM     18  N   UNL     1      47.645   5.143  18.562  0.00  0.00    +0.000 NA
ATOM     19  C   UNL     1      48.541   5.049  19.561  0.00  0.00    +0.000 A 
ATOM     20  C   UNL     1      49.814   4.570  19.392  0.00  0.00    +0.000 A 
ATOM     21  C   UNL     1      50.145   4.173  18.111  0.00  0.00    +0.000 A 
ATOM     22  N   UNL     1      49.252   4.255  17.085  0.00  0.00    +0.000 NA
ATOM     23  H   UNL     1      46.207   5.030  16.780  0.00  0.00    +0.000 HD
BRANCH  21  24
ATOM     24  C   UNL     1      51.537   3.634  17.822  0.00  0.00    +0.000 C 
ATOM     25  F   UNL     1      52.248   3.351  18.955  0.00  0.00    +0.000 F 
ATOM     26  F   UNL     1      51.522   2.473  17.107  0.00  0.00    +0.000 F 
ATOM     27  F   UNL     1      52.314   4.504  17.117  0.00  0.00    +0.000 F 
ENDBRANCH  21  24
ENDBRANCH  15  16
ENDBRANCH   4  15
TORSDOF 4
ENDMDL
MODEL 8
REMARK VINA RESULT:    -6.631      3.918      8.661
REMARK INTER + INTRA:          -8.817
REMARK INTER:                  -8.183
REMARK INTRA:                  -0.634
REMARK UNBOUND:                -0.636
REMARK  Name = 
REMARK  4 active torsions:
REMARK  status: ('A' for Active; 'I' for Inactive)
REMARK    1  A    between atoms: C_4  and  C_5
REMARK    2  A    between atoms: C_5  and  N_6
REMARK    3  A    between atoms: C_11  and  C_12
REMARK    4  A    between atoms: C_18  and  C_19
REMARK                            x       y       z     vdW  Elec       q    Type
REMARK                         _______ _______ _______ _____ _____    ______ ____
ROOT
ATOM      1  F   UNL     1      47.722   2.513  18.057  0.00  0.00    +0.000 F 
ATOM      2  C   UNL     1      47.945   3.603  17.309  0.00  0.00    +0.000 A 
ATOM      3  C   UNL     1      47.307   3.724  16.082  0.00  0.00    +0.000 A 
ATOM      4  C   UNL     1      47.548   4.847  15.283  0.00  0.00    +0.000 A 
ATOM      5  C   UNL     1      48.405   5.857  15.768  0.00  0.00    +0.000 A 
ATOM      6  C   UNL     1      49.073   5.749  17.010  0.00  0.00    +0.000 A 
ATOM      7  C   UNL     1      48.820   4.588  17.763  0.00  0.00    +0.000 A 
ATOM      8  F   UNL     1      49.436   4.387  18.939  0.00  0.00    +0.000 F 
ENDROOT
BRANCH   6   9
ATOM      9  C   UNL     1      50.008   6.808  17.478  0.00  0.00    +0.000 A 
ATOM     10  C   UNL     1      49.615   7.792  18.398  0.00  0.00    +0.000 A 
ATOM     11  C   UNL     1      50.533   8.742  18.826  0.00  0.00    +0.000 A 
ATOM     12  N   UNL     1      51.807   8.801  18.394  0.00  0.00    +0.000 NA
ATOM     13  C   UNL     1      52.179   7.863  17.504  0.00  0.00    +0.000 A 
ATOM     14  C   UNL     1      51.336   6.866  17.031  0.00  0.00    +0.000 A 
ENDBRANCH   6   9
BRANCH   4  15
ATOM     15  C   UNL     1      46.881   4.975  13.929  0.00  0.00    +0.000 C 
BRANCH  15  16
ATOM     16  N   UNL     1      45.478   4.657  14.055  0.00  0.00    +0.000 N 
ATOM     17  C   UNL     1      44.743   4.781  12.887  0.00  0.00    +0.000 A 
ATOM     18  N   UNL     1      43.469   5.153  13.041  0.00  0.00    +0.000 NA
ATOM     19  C   UNL     1      42.711   5.232  11.932  0.00  0.00    +0.000 A 
ATOM     20  C   UNL     1      43.182   4.965  10.673  0.00  0.00    +0.000 A 
ATOM     21  C   UNL     1      44.513   4.602  10.590  0.00  0.00    +0.000 A 
ATOM     22  N   UNL     1      45.301   4.520  11.698  0.00  0.00    +0.000 NA
ATOM     23  H   UNL     1      44.971   5.161  14.772  0.00  0.00    +0.000 HD
BRANCH  21  24
ATOM     24  C   UNL     1      45.125   4.279   9.237  0.00  0.00    +0.000 C 
ATOM     25  F   UNL     1      46.110   5.155   8.871  0.00  0.00    +0.000 F 
ATOM     26  F   UNL     1      45.708   3.046   9.196  0.00  0.00    +0.000 F 
ATOM     27  F   UNL     1      44.221   4.305   8.218  0.00  0.00    +0.000 F 
ENDBRANCH  21  24
ENDBRANCH  15  16
ENDBRANCH   4  15
TORSDOF 4
ENDMDL
MODEL 9
REMARK VINA RESULT:    -6.613      2.896      8.596
REMARK INTER + INTRA:          -8.795
REMARK INTER:                  -8.100
REMARK INTRA:                  -0.695
REMARK UNBOUND:                -0.636
REMARK  Name = 
REMARK  4 active torsions:
REMARK  status: ('A' for Active; 'I' for Inactive)
REMARK    1  A    between atoms: C_4  and  C_5
REMARK    2  A    between atoms: C_5  and  N_6
REMARK    3  A    between atoms: C_11  and  C_12
REMARK    4  A    between atoms: C_18  and  C_19
REMARK                            x       y       z     vdW  Elec       q    Type
REMARK                         _______ _______ _______ _____ _____    ______ ____
ROOT
ATOM      1  F   UNL     1      51.647   8.582  13.720  0.00  0.00    +0.000 F 
ATOM      2  C   UNL     1      50.565   7.921  14.158  0.00  0.00    +0.000 A 
ATOM      3  C   UNL     1      49.444   7.846  13.343  0.00  0.00    +0.000 A 
ATOM      4  C   UNL     1      48.302   7.177  13.796  0.00  0.00    +0.000 A 
ATOM      5  C   UNL     1      48.334   6.553  15.061  0.00  0.00    +0.000 A 
ATOM      6  C   UNL     1      49.463   6.626  15.911  0.00  0.00    +0.000 A 
ATOM      7  C   UNL     1      50.575   7.335  15.421  0.00  0.00    +0.000 A 
ATOM      8  F   UNL     1      51.677   7.482  16.174  0.00  0.00    +0.000 F 
ENDROOT
BRANCH   6   9
ATOM      9  C   UNL     1      49.455   5.998  17.259  0.00  0.00    +0.000 A 
ATOM     10  C   UNL     1      49.336   6.758  18.433  0.00  0.00    +0.000 A 
ATOM     11  C   UNL     1      49.305   6.120  19.666  0.00  0.00    +0.000 A 
ATOM     12  N   UNL     1      49.402   4.787  19.824  0.00  0.00    +0.000 NA
ATOM     13  C   UNL     1      49.526   4.060  18.699  0.00  0.00    +0.000 A 
ATOM     14  C   UNL     1      49.551   4.607  17.422  0.00  0.00    +0.000 A 
ENDBRANCH   6   9
BRANCH   4  15
ATOM     15  C   UNL     1      47.062   7.115  12.929  0.00  0.00    +0.000 C 
BRANCH  15  16
ATOM     16  N   UNL     1      46.070   6.284  13.571  0.00  0.00    +0.000 N 
ATOM     17  C   UNL     1      45.153   5.699  12.713  0.00  0.00    +0.000 A 
ATOM     18  N   UNL     1      43.927   5.516  13.213  0.00  0.00    +0.000 NA
ATOM     19  C   UNL     1      43.025   4.901  12.425  0.00  0.00    +0.000 A 
ATOM     20  C   UNL     1      43.299   4.474  11.152  0.00  0.00    +0.000 A 
ATOM     21  C   UNL     1      44.582   4.713  10.697  0.00  0.00    +0.000 A 
ATOM     22  N   UNL     1      45.510   5.337  11.475  0.00  0.00    +0.000 NA
ATOM     23  H   UNL     1      45.536   6.722  14.312  0.00  0.00    +0.000 HD
BRANCH  21  24
ATOM     24  C   UNL     1      44.983   4.269   9.300  0.00  0.00    +0.000 C 
ATOM     25  F   UNL     1      43.972   4.391   8.387  0.00  0.00    +0.000 F 
ATOM     26  F   UNL     1      46.019   4.993   8.788  0.00  0.00    +0.000 F 
ATOM     27  F   UNL     1      45.368   2.963   9.241  0.00  0.00    +0.000 F 
ENDBRANCH  21  24
ENDBRANCH  15  16
ENDBRANCH   4  15
TORSDOF 4
ENDMDL
