MODEL 1
REMARK VINA RESULT:    -6.669      0.000      0.000
REMARK INTER + INTRA:          -8.638
REMARK INTER:                  -8.423
REMARK INTRA:                  -0.215
REMARK UNBOUND:                -0.215
REMARK  Name = 
REMARK  5 active torsions:
REMARK  status: ('A' for Active; 'I' for Inactive)
REMARK    1  A    between atoms: N_1  and  C_2
REMARK    2  A    between atoms: C_2  and  C_3
REMARK    3  A    between atoms: C_3  and  C_4
REMARK    4  A    between atoms: C_4  and  N_5
REMARK    5  A    between atoms: C_11  and  C_12
REMARK                            x       y       z     vdW  Elec       q    Type
REMARK                         _______ _______ _______ _____ _____    ______ ____
ROOT
ATOM      1  N   UNL     1      45.485   3.518   8.866  0.00  0.00    +0.000 NA
ATOM      2  C   UNL     1      44.368   2.849   9.554  0.00  0.00    +0.000 C 
ATOM      3  C   UNL     1      44.550   2.941  11.078  0.00  0.00    +0.000 C 
ATOM      4  C   UNL     1      44.878   4.339  11.536  0.00  0.00    +0.000 A 
ATOM      5  N   UNL     1      44.768   4.609  12.860  0.00  0.00    +0.000 NA
ATOM      6  C   UNL     1      45.122   5.857  13.273  0.00  0.00    +0.000 A 
ATOM      7  C   UNL     1      45.575   6.862  12.427  0.00  0.00    +0.000 A 
ATOM      8  C   UNL     1      45.674   6.561  11.073  0.00  0.00    +0.000 A 
ATOM      9  C   UNL     1      45.339   5.279  10.617  0.00  0.00    +0.000 A 
ATOM     10  C   UNL     1      45.437   4.961   9.154  0.00  0.00    +0.000 C 
ENDROOT
BRANCH   7  11
ATOM     11  C   UNL     1      45.918   8.184  13.004  0.00  0.00    +0.000 C 
ATOM     12  N   UNL     1      45.043   9.223  12.831  0.00  0.00    +0.000 N 
ATOM     13  O   UNL     1      46.959   8.356  13.625  0.00  0.00    +0.000 OA
ATOM     14  H   UNL     1      44.176   9.189  12.320  0.00  0.00    +0.000 HD
ATOM     15  H   UNL     1      45.313  10.114  13.235  0.00  0.00    +0.000 HD
ENDBRANCH   7  11
BRANCH   1  16
ATOM     16  C   UNL     1      45.474   3.256   7.416  0.00  0.00    +0.000 C 
BRANCH  16  17
ATOM     17  C   UNL     1      46.890   3.278   6.816  0.00  0.00    +0.000 C 
BRANCH  17  18
ATOM     18  C   UNL     1      47.593   1.931   6.927  0.00  0.00    +0.000 C 
BRANCH  18  19
ATOM     19  N   UNL     1      48.538   1.792   5.823  0.00  0.00    +0.000 NA
ATOM     20  H   UNL     1      49.381   2.327   6.020  0.00  0.00    +0.000 HD
ATOM     21  H   UNL     1      48.137   2.191   4.974  0.00  0.00    +0.000 HD
ENDBRANCH  18  19
ENDBRANCH  17  18
ENDBRANCH  16  17
ENDBRANCH   1  16
TORSDOF 5
ENDMDL
MODEL 2
REMARK VINA RESULT:    -6.663      2.916      6.369
REMARK INTER + INTRA:          -8.631
REMARK INTER:                  -8.321
REMARK INTRA:                  -0.310
REMARK UNBOUND:                -0.215
REMARK  Name = 
REMARK  5 active torsions:
REMARK  status: ('A' for Active; 'I' for Inactive)
REMARK    1  A    between atoms: N_1  and  C_2
REMARK    2  A    between atoms: C_2  and  C_3
REMARK    3  A    between atoms: C_3  and  C_4
REMARK    4  A    between atoms: C_4  and  N_5
REMARK    5  A    between atoms: C_11  and  C_12
REMARK                            x       y       z     vdW  Elec       q    Type
REMARK                         _______ _______ _______ _____ _____    ______ ____
ROOT
ATOM      1  N   UNL     1      43.640   4.930  10.615  0.00  0.00    +0.000 NA
ATOM      2  C   UNL     1      43.876   3.805  11.536  0.00  0.00    +0.000 C 
ATOM      3  C   UNL     1      43.985   2.488  10.751  0.00  0.00    +0.000 C 
ATOM      4  C   UNL     1      44.918   2.595   9.572  0.00  0.00    +0.000 A 
ATOM      5  N   UNL     1      45.328   1.443   8.987  0.00  0.00    +0.000 NA
ATOM      6  C   UNL     1      46.124   1.552   7.889  0.00  0.00    +0.000 A 
ATOM      7  C   UNL     1      46.546   2.758   7.343  0.00  0.00    +0.000 A 
ATOM      8  C   UNL     1      46.117   3.925   7.965  0.00  0.00    +0.000 A 
ATOM      9  C   UNL     1      45.277   3.850   9.085  0.00  0.00    +0.000 A 
ATOM     10  C   UNL     1      44.824   5.111   9.760  0.00  0.00    +0.000 C 
ENDROOT
BRANCH   7  11
ATOM     11  C   UNL     1      47.423   2.737   6.148  0.00  0.00    +0.000 C 
ATOM     12  N   UNL     1      48.759   2.491   6.318  0.00  0.00    +0.000 N 
ATOM     13  O   UNL     1      46.974   2.932   5.026  0.00  0.00    +0.000 OA
ATOM     14  H   UNL     1      49.227   2.342   7.197  0.00  0.00    +0.000 HD
ATOM     15  H   UNL     1      49.329   2.489   5.479  0.00  0.00    +0.000 HD
ENDBRANCH   7  11
BRANCH   1  16
ATOM     16  C   UNL     1      43.299   6.169  11.337  0.00  0.00    +0.000 C 
BRANCH  16  17
ATOM     17  C   UNL     1      44.554   6.943  11.775  0.00  0.00    +0.000 C 
BRANCH  17  18
ATOM     18  C   UNL     1      44.505   8.413  11.377  0.00  0.00    +0.000 C 
BRANCH  18  19
ATOM     19  N   UNL     1      43.181   8.718  10.841  0.00  0.00    +0.000 NA
ATOM     20  H   UNL     1      43.222   9.569  10.284  0.00  0.00    +0.000 HD
ATOM     21  H   UNL     1      42.534   8.906  11.607  0.00  0.00    +0.000 HD
ENDBRANCH  18  19
ENDBRANCH  17  18
ENDBRANCH  16  17
ENDBRANCH   1  16
TORSDOF 5
ENDMDL
MODEL 3
REMARK VINA RESULT:    -6.289      3.745      6.574
REMARK INTER + INTRA:          -8.158
REMARK INTER:                  -7.847
REMARK INTRA:                  -0.311
REMARK UNBOUND:                -0.215
REMARK  Name = 
REMARK  5 active torsions:
REMARK  status: ('A' for Active; 'I' for Inactive)
REMARK    1  A    between atoms: N_1  and  C_2
REMARK    2  A    between atoms: C_2  and  C_3
REMARK    3  A    between atoms: C_3  and  C_4
REMARK    4  A    between atoms: C_4  and  N_5
REMARK    5  A    between atoms: C_11  and  C_12
REMARK                            x       y       z     vdW  Elec       q    Type
REMARK                         _______ _______ _______ _____ _____    ______ ____
ROOT
ATOM      1  N   UNL     1      48.040   5.117  15.128  0.00  0.00    +0.000 NA
ATOM      2  C   UNL     1      48.203   6.555  14.850  0.00  0.00    +0.000 C 
ATOM      3  C   UNL     1      48.208   6.807  13.334  0.00  0.00    +0.000 C 
ATOM      4  C   UNL     1      47.070   6.114  12.630  0.00  0.00    +0.000 A 
ATOM      5  N   UNL     1      46.791   6.495  11.359  0.00  0.00    +0.000 NA
ATOM      6  C   UNL     1      45.799   5.824  10.712  0.00  0.00    +0.000 A 
ATOM      7  C   UNL     1      45.057   4.791  11.271  0.00  0.00    +0.000 A 
ATOM      8  C   UNL     1      45.359   4.423  12.578  0.00  0.00    +0.000 A 
ATOM      9  C   UNL     1      46.390   5.078  13.266  0.00  0.00    +0.000 A 
ATOM     10  C   UNL     1      46.706   4.686  14.680  0.00  0.00    +0.000 C 
ENDROOT
BRANCH   7  11
ATOM     11  C   UNL     1      43.995   4.149  10.460  0.00  0.00    +0.000 C 
ATOM     12  N   UNL     1      43.965   4.385   9.112  0.00  0.00    +0.000 N 
ATOM     13  O   UNL     1      43.156   3.419  10.974  0.00  0.00    +0.000 OA
ATOM     14  H   UNL     1      44.592   4.985   8.601  0.00  0.00    +0.000 HD
ATOM     15  H   UNL     1      43.221   3.934   8.590  0.00  0.00    +0.000 HD
ENDBRANCH   7  11
BRANCH   1  16
ATOM     16  C   UNL     1      48.261   4.803  16.550  0.00  0.00    +0.000 C 
BRANCH  16  17
ATOM     17  C   UNL     1      47.851   3.360  16.891  0.00  0.00    +0.000 C 
BRANCH  17  18
ATOM     18  C   UNL     1      49.050   2.463  17.174  0.00  0.00    +0.000 C 
BRANCH  18  19
ATOM     19  N   UNL     1      49.441   1.785  15.941  0.00  0.00    +0.000 NA
ATOM     20  H   UNL     1      50.438   1.914  15.777  0.00  0.00    +0.000 HD
ATOM     21  H   UNL     1      48.962   2.210  15.147  0.00  0.00    +0.000 HD
ENDBRANCH  18  19
ENDBRANCH  17  18
ENDBRANCH  16  17
ENDBRANCH   1  16
TORSDOF 5
ENDMDL
MODEL 4
REMARK VINA RESULT:    -5.831      3.754      5.838
REMARK INTER + INTRA:          -7.580
REMARK INTER:                  -7.132
REMARK INTRA:                  -0.448
REMARK UNBOUND:                -0.215
REMARK  Name = 
REMARK  5 active torsions:
REMARK  status: ('A' for Active; 'I' for Inactive)
REMARK    1  A    between atoms: N_1  and  C_2
REMARK    2  A    between atoms: C_2  and  C_3
REMARK    3  A    between atoms: C_3  and  C_4
REMARK    4  A    between atoms: C_4  and  N_5
REMARK    5  A    between atoms: C_11  and  C_12
REMARK                            x       y       z     vdW  Elec       q    Type
REMARK                         _______ _______ _______ _____ _____    ______ ____
ROOT
ATOM      1  N   UNL     1      45.470   5.574  11.933  0.00  0.00    +0.000 NA
ATOM      2  C   UNL     1      46.701   6.306  11.588  0.00  0.00    +0.000 C 
ATOM      3  C   UNL     1      47.344   6.894  12.854  0.00  0.00    +0.000 C 
ATOM      4  C   UNL     1      47.457   5.882  13.966  0.00  0.00    +0.000 A 
ATOM      5  N   UNL     1      48.265   6.184  15.012  0.00  0.00    +0.000 NA
ATOM      6  C   UNL     1      48.315   5.291  16.037  0.00  0.00    +0.000 A 
ATOM      7  C   UNL     1      47.604   4.098  16.073  0.00  0.00    +0.000 A 
ATOM      8  C   UNL     1      46.787   3.809  14.986  0.00  0.00    +0.000 A 
ATOM      9  C   UNL     1      46.694   4.717  13.923  0.00  0.00    +0.000 A 
ATOM     10  C   UNL     1      45.819   4.397  12.746  0.00  0.00    +0.000 C 
ENDROOT
BRANCH   7  11
ATOM     11  C   UNL     1      47.757   3.207  17.248  0.00  0.00    +0.000 C 
ATOM     12  N   UNL     1      48.998   3.071  17.813  0.00  0.00    +0.000 N 
ATOM     13  O   UNL     1      46.802   2.599  17.714  0.00  0.00    +0.000 OA
ATOM     14  H   UNL     1      49.846   3.508  17.491  0.00  0.00    +0.000 HD
ATOM     15  H   UNL     1      49.065   2.449  18.611  0.00  0.00    +0.000 HD
ENDBRANCH   7  11
BRANCH   1  16
ATOM     16  C   UNL     1      44.701   5.194  10.735  0.00  0.00    +0.000 C 
BRANCH  16  17
ATOM     17  C   UNL     1      43.341   4.573  11.097  0.00  0.00    +0.000 C 
BRANCH  17  18
ATOM     18  C   UNL     1      42.428   5.550  11.828  0.00  0.00    +0.000 C 
BRANCH  18  19
ATOM     19  N   UNL     1      42.604   5.384  13.268  0.00  0.00    +0.000 NA
ATOM     20  H   UNL     1      43.532   5.014  13.462  0.00  0.00    +0.000 HD
ATOM     21  H   UNL     1      41.940   4.695  13.619  0.00  0.00    +0.000 HD
ENDBRANCH  18  19
ENDBRANCH  17  18
ENDBRANCH  16  17
ENDBRANCH   1  16
TORSDOF 5
ENDMDL
MODEL 5
REMARK VINA RESULT:    -5.829      2.937      4.163
REMARK INTER + INTRA:          -7.577
REMARK INTER:                  -7.223
REMARK INTRA:                  -0.355
REMARK UNBOUND:                -0.215
REMARK  Name = 
REMARK  5 active torsions:
REMARK  status: ('A' for Active; 'I' for Inactive)
REMARK    1  A    between atoms: N_1  and  C_2
REMARK    2  A    between atoms: C_2  and  C_3
REMARK    3  A    between atoms: C_3  and  C_4
REMARK    4  A    between atoms: C_4  and  N_5
REMARK    5  A    between atoms: C_11  and  C_12
REMARK                            x       y       z     vdW  Elec       q    Type
REMARK                         _______ _______ _______ _____ _____    ______ ____
ROOT
ATOM      1  N   UNL     1      44.719   5.000  10.969  0.00  0.00    +0.000 NA
ATOM      2  C   UNL     1      45.859   5.740  10.400  0.00  0.00    +0.000 C 
ATOM      3  C   UNL     1      46.505   6.630  11.474  0.00  0.00    +0.000 C 
ATOM      4  C   UNL     1      46.764   5.887  12.759  0.00  0.00    +0.000 A 
ATOM      5  N   UNL     1      47.590   6.466  13.665  0.00  0.00    +0.000 NA
ATOM      6  C   UNL     1      47.772   5.815  14.847  0.00  0.00    +0.000 A 
ATOM      7  C   UNL     1      47.177   4.603  15.173  0.00  0.00    +0.000 A 
ATOM      8  C   UNL     1      46.339   4.027  14.225  0.00  0.00    +0.000 A 
ATOM      9  C   UNL     1      46.111   4.682  13.006  0.00  0.00    +0.000 A 
ATOM     10  C   UNL     1      45.214   4.052  11.981  0.00  0.00    +0.000 C 
ENDROOT
BRANCH   7  11
ATOM     11  C   UNL     1      47.469   3.993  16.493  0.00  0.00    +0.000 C 
ATOM     12  N   UNL     1      48.701   4.197  17.052  0.00  0.00    +0.000 N 
ATOM     13  O   UNL     1      46.632   3.321  17.081  0.00  0.00    +0.000 OA
ATOM     14  H   UNL     1      49.462   4.712  16.640  0.00  0.00    +0.000 HD
ATOM     15  H   UNL     1      48.867   3.760  17.953  0.00  0.00    +0.000 HD
ENDBRANCH   7  11
BRANCH   1  16
ATOM     16  C   UNL     1      43.932   4.317   9.928  0.00  0.00    +0.000 C 
BRANCH  16  17
ATOM     17  C   UNL     1      44.744   4.105   8.639  0.00  0.00    +0.000 C 
BRANCH  17  18
ATOM     18  C   UNL     1      45.248   2.675   8.493  0.00  0.00    +0.000 C 
BRANCH  18  19
ATOM     19  N   UNL     1      44.594   1.833   9.491  0.00  0.00    +0.000 NA
ATOM     20  H   UNL     1      44.156   1.034   9.037  0.00  0.00    +0.000 HD
ATOM     21  H   UNL     1      43.843   2.354   9.943  0.00  0.00    +0.000 HD
ENDBRANCH  18  19
ENDBRANCH  17  18
ENDBRANCH  16  17
ENDBRANCH   1  16
TORSDOF 5
ENDMDL
MODEL 6
REMARK VINA RESULT:    -5.526      2.830      3.816
REMARK INTER + INTRA:          -7.195
REMARK INTER:                  -6.713
REMARK INTRA:                  -0.482
REMARK UNBOUND:                -0.215
REMARK  Name = 
REMARK  5 active torsions:
REMARK  status: ('A' for Active; 'I' for Inactive)
REMARK    1  A    between atoms: N_1  and  C_2
REMARK    2  A    between atoms: C_2  and  C_3
REMARK    3  A    between atoms: C_3  and  C_4
REMARK    4  A    between atoms: C_4  and  N_5
REMARK    5  A    between atoms: C_11  and  C_12
REMARK                            x       y       z     vdW  Elec       q    Type
REMARK                         _______ _______ _______ _____ _____    ______ ____
ROOT
ATOM      1  N   UNL     1      45.151   4.845  11.290  0.00  0.00    +0.000 NA
ATOM      2  C   UNL     1      44.717   4.812  12.697  0.00  0.00    +0.000 C 
ATOM      3  C   UNL     1      45.937   4.738  13.630  0.00  0.00    +0.000 C 
ATOM      4  C   UNL     1      46.992   5.755  13.279  0.00  0.00    +0.000 A 
ATOM      5  N   UNL     1      47.966   5.992  14.193  0.00  0.00    +0.000 NA
ATOM      6  C   UNL     1      48.947   6.869  13.844  0.00  0.00    +0.000 A 
ATOM      7  C   UNL     1      49.004   7.536  12.626  0.00  0.00    +0.000 A 
ATOM      8  C   UNL     1      47.991   7.280  11.709  0.00  0.00    +0.000 A 
ATOM      9  C   UNL     1      46.978   6.365  12.027  0.00  0.00    +0.000 A 
ATOM     10  C   UNL     1      45.880   6.099  11.039  0.00  0.00    +0.000 C 
ENDROOT
BRANCH   7  11
ATOM     11  C   UNL     1      50.123   8.476  12.376  0.00  0.00    +0.000 C 
ATOM     12  N   UNL     1      51.406   8.031  12.550  0.00  0.00    +0.000 N 
ATOM     13  O   UNL     1      49.917   9.629  12.019  0.00  0.00    +0.000 OA
ATOM     14  H   UNL     1      51.678   7.113  12.861  0.00  0.00    +0.000 HD
ATOM     15  H   UNL     1      52.146   8.703  12.374  0.00  0.00    +0.000 HD
ENDBRANCH   7  11
BRANCH   1  16
ATOM     16  C   UNL     1      44.019   4.682  10.361  0.00  0.00    +0.000 C 
BRANCH  16  17
ATOM     17  C   UNL     1      44.482   4.244   8.962  0.00  0.00    +0.000 C 
BRANCH  17  18
ATOM     18  C   UNL     1      44.530   2.728   8.809  0.00  0.00    +0.000 C 
BRANCH  18  19
ATOM     19  N   UNL     1      44.546   2.115  10.134  0.00  0.00    +0.000 NA
ATOM     20  H   UNL     1      43.635   2.222  10.576  0.00  0.00    +0.000 HD
ATOM     21  H   UNL     1      45.214   2.601  10.731  0.00  0.00    +0.000 HD
ENDBRANCH  18  19
ENDBRANCH  17  18
ENDBRANCH  16  17
ENDBRANCH   1  16
TORSDOF 5
ENDMDL
MODEL 7
REMARK VINA RESULT:    -5.399      3.999      7.590
REMARK INTER + INTRA:          -7.034
REMARK INTER:                  -6.694
REMARK INTRA:                  -0.339
REMARK UNBOUND:                -0.215
REMARK  Name = 
REMARK  5 active torsions:
REMARK  status: ('A' for Active; 'I' for Inactive)
REMARK    1  A    between atoms: N_1  and  C_2
REMARK    2  A    between atoms: C_2  and  C_3
REMARK    3  A    between atoms: C_3  and  C_4
REMARK    4  A    between atoms: C_4  and  N_5
REMARK    5  A    between atoms: C_11  and  C_12
REMARK                            x       y       z     vdW  Elec       q    Type
REMARK                         _______ _______ _______ _____ _____    ______ ____
ROOT
ATOM      1  N   UNL     1      48.553   5.302  15.739  0.00  0.00    +0.000 NA
ATOM      2  C   UNL     1      48.348   6.720  15.396  0.00  0.00    +0.000 C 
ATOM      3  C   UNL     1      48.122   6.875  13.884  0.00  0.00    +0.000 C 
ATOM      4  C   UNL     1      47.100   5.904  13.351  0.00  0.00    +0.000 A 
ATOM      5  N   UNL     1      46.597   6.135  12.113  0.00  0.00    +0.000 NA
ATOM      6  C   UNL     1      45.719   5.221  11.618  0.00  0.00    +0.000 A 
ATOM      7  C   UNL     1      45.303   4.084  12.300  0.00  0.00    +0.000 A 
ATOM      8  C   UNL     1      45.828   3.873  13.569  0.00  0.00    +0.000 A 
ATOM      9  C   UNL     1      46.753   4.782  14.101  0.00  0.00    +0.000 A 
ATOM     10  C   UNL     1      47.311   4.557  15.477  0.00  0.00    +0.000 C 
ENDROOT
BRANCH   7  11
ATOM     11  C   UNL     1      44.330   3.173  11.650  0.00  0.00    +0.000 C 
ATOM     12  N   UNL     1      43.700   2.230  12.417  0.00  0.00    +0.000 N 
ATOM     13  O   UNL     1      44.085   3.254  10.453  0.00  0.00    +0.000 OA
ATOM     14  H   UNL     1      43.848   2.069  13.399  0.00  0.00    +0.000 HD
ATOM     15  H   UNL     1      43.045   1.621  11.937  0.00  0.00    +0.000 HD
ENDBRANCH   7  11
BRANCH   1  16
ATOM     16  C   UNL     1      49.001   5.132  17.132  0.00  0.00    +0.000 C 
BRANCH  16  17
ATOM     17  C   UNL     1      48.666   6.359  17.997  0.00  0.00    +0.000 C 
BRANCH  17  18
ATOM     18  C   UNL     1      47.714   6.027  19.140  0.00  0.00    +0.000 C 
BRANCH  18  19
ATOM     19  N   UNL     1      46.538   5.350  18.601  0.00  0.00    +0.000 NA
ATOM     20  H   UNL     1      45.785   5.366  19.286  0.00  0.00    +0.000 HD
ATOM     21  H   UNL     1      46.753   4.367  18.432  0.00  0.00    +0.000 HD
ENDBRANCH  18  19
ENDBRANCH  17  18
ENDBRANCH  16  17
ENDBRANCH   1  16
TORSDOF 5
ENDMDL
MODEL 8
REMARK VINA RESULT:    -5.199      3.643      5.044
REMARK INTER + INTRA:          -6.781
REMARK INTER:                  -6.436
REMARK INTRA:                  -0.346
REMARK UNBOUND:                -0.215
REMARK  Name = 
REMARK  5 active torsions:
REMARK  status: ('A' for Active; 'I' for Inactive)
REMARK    1  A    between atoms: N_1  and  C_2
REMARK    2  A    between atoms: C_2  and  C_3
REMARK    3  A    between atoms: C_3  and  C_4
REMARK    4  A    between atoms: C_4  and  N_5
REMARK    5  A    between atoms: C_11  and  C_12
REMARK                            x       y       z     vdW  Elec       q    Type
REMARK                         _______ _______ _______ _____ _____    ______ ____
ROOT
ATOM      1  N   UNL     1      44.243   5.930  12.916  0.00  0.00    +0.000 NA
ATOM      2  C   UNL     1      44.370   6.471  11.551  0.00  0.00    +0.000 C 
ATOM      3  C   UNL     1      45.235   7.741  11.560  0.00  0.00    +0.000 C 
ATOM      4  C   UNL     1      46.518   7.558  12.330  0.00  0.00    +0.000 A 
ATOM      5  N   UNL     1      47.490   8.489  12.163  0.00  0.00    +0.000 NA
ATOM      6  C   UNL     1      48.622   8.347  12.905  0.00  0.00    +0.000 A 
ATOM      7  C   UNL     1      48.844   7.313  13.806  0.00  0.00    +0.000 A 
ATOM      8  C   UNL     1      47.834   6.369  13.955  0.00  0.00    +0.000 A 
ATOM      9  C   UNL     1      46.646   6.497  13.223  0.00  0.00    +0.000 A 
ATOM     10  C   UNL     1      45.562   5.470  13.378  0.00  0.00    +0.000 C 
ENDROOT
BRANCH   7  11
ATOM     11  C   UNL     1      50.128   7.269  14.546  0.00  0.00    +0.000 C 
ATOM     12  N   UNL     1      51.205   7.940  14.032  0.00  0.00    +0.000 N 
ATOM     13  O   UNL     1      50.236   6.649  15.596  0.00  0.00    +0.000 OA
ATOM     14  H   UNL     1      51.225   8.457  13.168  0.00  0.00    +0.000 HD
ATOM     15  H   UNL     1      52.068   7.883  14.562  0.00  0.00    +0.000 HD
ENDBRANCH   7  11
BRANCH   1  16
ATOM     16  C   UNL     1      43.239   4.854  12.990  0.00  0.00    +0.000 C 
BRANCH  16  17
ATOM     17  C   UNL     1      42.939   4.251  11.607  0.00  0.00    +0.000 C 
BRANCH  17  18
ATOM     18  C   UNL     1      43.378   2.797  11.494  0.00  0.00    +0.000 C 
BRANCH  18  19
ATOM     19  N   UNL     1      44.428   2.537  12.475  0.00  0.00    +0.000 NA
ATOM     20  H   UNL     1      44.183   2.966  13.365  0.00  0.00    +0.000 HD
ATOM     21  H   UNL     1      45.298   2.975  12.174  0.00  0.00    +0.000 HD
ENDBRANCH  18  19
ENDBRANCH  17  18
ENDBRANCH  16  17
ENDBRANCH   1  16
TORSDOF 5
ENDMDL
MODEL 9
REMARK VINA RESULT:    -4.813      3.585      7.251
REMARK INTER + INTRA:          -6.293
REMARK INTER:                  -5.790
REMARK INTRA:                  -0.503
REMARK UNBOUND:                -0.215
REMARK  Name = 
REMARK  5 active torsions:
REMARK  status: ('A' for Active; 'I' for Inactive)
REMARK    1  A    between atoms: N_1  and  C_2
REMARK    2  A    between atoms: C_2  and  C_3
REMARK    3  A    between atoms: C_3  and  C_4
REMARK    4  A    between atoms: C_4  and  N_5
REMARK    5  A    between atoms: C_11  and  C_12
REMARK                            x       y       z     vdW  Elec       q    Type
REMARK                         _______ _______ _______ _____ _____    ______ ____
ROOT
ATOM      1  N   UNL     1      48.570   6.917  15.457  0.00  0.00    +0.000 NA
ATOM      2  C   UNL     1      48.779   5.538  15.932  0.00  0.00    +0.000 C 
ATOM      3  C   UNL     1      47.489   4.718  15.769  0.00  0.00    +0.000 C 
ATOM      4  C   UNL     1      46.879   4.868  14.399  0.00  0.00    +0.000 A 
ATOM      5  N   UNL     1      45.924   3.978  14.034  0.00  0.00    +0.000 NA
ATOM      6  C   UNL     1      45.338   4.157  12.819  0.00  0.00    +0.000 A 
ATOM      7  C   UNL     1      45.663   5.179  11.935  0.00  0.00    +0.000 A 
ATOM      8  C   UNL     1      46.649   6.075  12.331  0.00  0.00    +0.000 A 
ATOM      9  C   UNL     1      47.257   5.934  13.586  0.00  0.00    +0.000 A 
ATOM     10  C   UNL     1      48.330   6.897  14.005  0.00  0.00    +0.000 C 
ENDROOT
BRANCH   7  11
ATOM     11  C   UNL     1      44.955   5.255  10.635  0.00  0.00    +0.000 C 
ATOM     12  N   UNL     1      45.689   5.473   9.500  0.00  0.00    +0.000 N 
ATOM     13  O   UNL     1      43.740   5.126  10.564  0.00  0.00    +0.000 OA
ATOM     14  H   UNL     1      46.685   5.615   9.456  0.00  0.00    +0.000 HD
ATOM     15  H   UNL     1      45.170   5.525   8.629  0.00  0.00    +0.000 HD
ENDBRANCH   7  11
BRANCH   1  16
ATOM     16  C   UNL     1      49.699   7.796  15.807  0.00  0.00    +0.000 C 
BRANCH  16  17
ATOM     17  C   UNL     1      49.558   8.378  17.223  0.00  0.00    +0.000 C 
BRANCH  17  18
ATOM     18  C   UNL     1      48.123   8.770  17.554  0.00  0.00    +0.000 C 
BRANCH  18  19
ATOM     19  N   UNL     1      47.569   9.538  16.443  0.00  0.00    +0.000 NA
ATOM     20  H   UNL     1      46.638   9.193  16.215  0.00  0.00    +0.000 HD
ATOM     21  H   UNL     1      48.139   9.399  15.610  0.00  0.00    +0.000 HD
ENDBRANCH  18  19
ENDBRANCH  17  18
ENDBRANCH  16  17
ENDBRANCH   1  16
TORSDOF 5
ENDMDL
