MODEL 1
REMARK VINA RESULT:    -8.259      0.000      0.000
REMARK INTER + INTRA:         -10.135
REMARK INTER:                  -9.707
REMARK INTRA:                  -0.428
REMARK UNBOUND:                -0.428
REMARK  Name = 
REMARK  3 active torsions:
REMARK  status: ('A' for Active; 'I' for Inactive)
REMARK    1  A    between atoms: C_2  and  C_4
REMARK    2  A    between atoms: N_8  and  C_9
REMARK    3  A    between atoms: C_9  and  C_10
REMARK                            x       y       z     vdW  Elec       q    Type
REMARK                         _______ _______ _______ _____ _____    ______ ____
ROOT
ATOM      1  C   UNL     1      46.580   2.775   7.510  0.00  0.00    +0.000 A 
ATOM      2  N   UNL     1      46.310   4.093   7.666  0.00  0.00    +0.000 NA
ATOM      3  C   UNL     1      45.482   4.371   8.710  0.00  0.00    +0.000 A 
ATOM      4  C   UNL     1      44.932   3.420   9.554  0.00  0.00    +0.000 A 
ATOM      5  N   UNL     1      43.985   3.671  10.548  0.00  0.00    +0.000 N 
ATOM      6  N   UNL     1      45.265   2.131   9.336  0.00  0.00    +0.000 NA
ATOM      7  N   UNL     1      46.105   1.795   8.304  0.00  0.00    +0.000 NA
ATOM      8  H   UNL     1      43.802   2.790  11.025  0.00  0.00    +0.000 HD
ENDROOT
BRANCH   1  10
ATOM      9  N   UNL     1      47.147   3.061   5.153  0.00  0.00    +0.000 N 
ATOM     10  C   UNL     1      47.400   2.368   6.314  0.00  0.00    +0.000 C 
ATOM     11  O   UNL     1      48.229   1.466   6.333  0.00  0.00    +0.000 OA
ATOM     12  H   UNL     1      47.623   2.780   4.306  0.00  0.00    +0.000 HD
ATOM     13  H   UNL     1      46.427   3.772   5.120  0.00  0.00    +0.000 HD
ENDBRANCH   1  10
BRANCH   5  14
ATOM     14  C   UNL     1      43.915   4.884  11.377  0.00  0.00    +0.000 C 
ATOM     15  C   UNL     1      42.627   5.025  12.184  0.00  0.00    +0.000 C 
ATOM     16  C   UNL     1      42.943   6.018  11.117  0.00  0.00    +0.000 C 
BRANCH  14  17
ATOM     17  C   UNL     1      45.223   5.237  12.087  0.00  0.00    +0.000 A 
ATOM     18  C   UNL     1      45.940   6.404  11.757  0.00  0.00    +0.000 A 
ATOM     19  C   UNL     1      47.082   6.782  12.467  0.00  0.00    +0.000 A 
ATOM     20  C   UNL     1      47.530   5.990  13.514  0.00  0.00    +0.000 A 
ATOM     21  F   UNL     1      48.604   6.369  14.219  0.00  0.00    +0.000 F 
ATOM     22  C   UNL     1      46.873   4.814  13.846  0.00  0.00    +0.000 A 
ATOM     23  C   UNL     1      45.735   4.437  13.128  0.00  0.00    +0.000 A 
ENDBRANCH  14  17
ENDBRANCH   5  14
TORSDOF 3
ENDMDL
MODEL 2
REMARK VINA RESULT:    -7.358      4.297      6.596
REMARK INTER + INTRA:          -9.077
REMARK INTER:                  -8.904
REMARK INTRA:                  -0.172
REMARK UNBOUND:                -0.428
REMARK  Name = 
REMARK  3 active torsions:
REMARK  status: ('A' for Active; 'I' for Inactive)
REMARK    1  A    between atoms: C_2  and  C_4
REMARK    2  A    between atoms: N_8  and  C_9
REMARK    3  A    between atoms: C_9  and  C_10
REMARK                            x       y       z     vdW  Elec       q    Type
REMARK                         _______ _______ _______ _____ _____    ______ ____
ROOT
ATOM      1  C   UNL     1      47.610   5.061  14.986  0.00  0.00    +0.000 A 
ATOM      2  N   UNL     1      46.419   4.418  14.946  0.00  0.00    +0.000 NA
ATOM      3  C   UNL     1      45.752   4.556  13.768  0.00  0.00    +0.000 A 
ATOM      4  C   UNL     1      46.209   5.289  12.686  0.00  0.00    +0.000 A 
ATOM      5  N   UNL     1      45.486   5.546  11.519  0.00  0.00    +0.000 N 
ATOM      6  N   UNL     1      47.411   5.888  12.805  0.00  0.00    +0.000 NA
ATOM      7  N   UNL     1      48.133   5.773  13.968  0.00  0.00    +0.000 NA
ATOM      8  H   UNL     1      46.093   6.075  10.895  0.00  0.00    +0.000 HD
ENDROOT
BRANCH   1  10
ATOM      9  N   UNL     1      48.023   6.041  17.184  0.00  0.00    +0.000 N 
ATOM     10  C   UNL     1      48.364   5.053  16.290  0.00  0.00    +0.000 C 
ATOM     11  O   UNL     1      49.248   4.248  16.559  0.00  0.00    +0.000 OA
ATOM     12  H   UNL     1      48.546   6.119  18.045  0.00  0.00    +0.000 HD
ATOM     13  H   UNL     1      47.329   6.739  16.944  0.00  0.00    +0.000 HD
ENDBRANCH   1  10
BRANCH   5  14
ATOM     14  C   UNL     1      44.542   4.620  10.876  0.00  0.00    +0.000 C 
ATOM     15  C   UNL     1      43.116   5.152  10.759  0.00  0.00    +0.000 C 
ATOM     16  C   UNL     1      43.391   3.959  11.610  0.00  0.00    +0.000 C 
BRANCH  14  17
ATOM     17  C   UNL     1      45.111   3.881   9.665  0.00  0.00    +0.000 A 
ATOM     18  C   UNL     1      45.743   4.577   8.616  0.00  0.00    +0.000 A 
ATOM     19  C   UNL     1      46.351   3.900   7.555  0.00  0.00    +0.000 A 
ATOM     20  C   UNL     1      46.323   2.514   7.523  0.00  0.00    +0.000 A 
ATOM     21  F   UNL     1      46.935   1.862   6.526  0.00  0.00    +0.000 F 
ATOM     22  C   UNL     1      45.678   1.793   8.518  0.00  0.00    +0.000 A 
ATOM     23  C   UNL     1      45.068   2.475   9.574  0.00  0.00    +0.000 A 
ENDBRANCH  14  17
ENDBRANCH   5  14
TORSDOF 3
ENDMDL
MODEL 3
REMARK VINA RESULT:    -7.057      4.307      6.408
REMARK INTER + INTRA:          -8.723
REMARK INTER:                  -9.119
REMARK INTRA:                   0.396
REMARK UNBOUND:                -0.428
REMARK  Name = 
REMARK  3 active torsions:
REMARK  status: ('A' for Active; 'I' for Inactive)
REMARK    1  A    between atoms: C_2  and  C_4
REMARK    2  A    between atoms: N_8  and  C_9
REMARK    3  A    between atoms: C_9  and  C_10
REMARK                            x       y       z     vdW  Elec       q    Type
REMARK                         _______ _______ _______ _____ _____    ______ ____
ROOT
ATOM      1  C   UNL     1      47.827   5.735  14.696  0.00  0.00    +0.000 A 
ATOM      2  N   UNL     1      47.364   6.158  13.496  0.00  0.00    +0.000 NA
ATOM      3  C   UNL     1      46.620   5.234  12.830  0.00  0.00    +0.000 A 
ATOM      4  C   UNL     1      46.347   3.958  13.296  0.00  0.00    +0.000 A 
ATOM      5  N   UNL     1      45.694   2.956  12.575  0.00  0.00    +0.000 N 
ATOM      6  N   UNL     1      46.835   3.623  14.507  0.00  0.00    +0.000 NA
ATOM      7  N   UNL     1      47.583   4.521  15.228  0.00  0.00    +0.000 NA
ATOM      8  H   UNL     1      45.606   2.148  13.189  0.00  0.00    +0.000 HD
ENDROOT
BRANCH   1  10
ATOM      9  N   UNL     1      48.287   7.934  15.651  0.00  0.00    +0.000 N 
ATOM     10  C   UNL     1      48.750   6.654  15.452  0.00  0.00    +0.000 C 
ATOM     11  O   UNL     1      49.859   6.323  15.856  0.00  0.00    +0.000 OA
ATOM     12  H   UNL     1      48.896   8.608  16.093  0.00  0.00    +0.000 HD
ATOM     13  H   UNL     1      47.393   8.226  15.274  0.00  0.00    +0.000 HD
ENDBRANCH   1  10
BRANCH   5  14
ATOM     14  C   UNL     1      44.599   3.165  11.617  0.00  0.00    +0.000 C 
ATOM     15  C   UNL     1      43.498   4.100  12.110  0.00  0.00    +0.000 C 
ATOM     16  C   UNL     1      43.185   2.667  11.844  0.00  0.00    +0.000 C 
BRANCH  14  17
ATOM     17  C   UNL     1      45.054   3.330  10.167  0.00  0.00    +0.000 A 
ATOM     18  C   UNL     1      45.351   4.601   9.635  0.00  0.00    +0.000 A 
ATOM     19  C   UNL     1      45.859   4.748   8.341  0.00  0.00    +0.000 A 
ATOM     20  C   UNL     1      46.069   3.623   7.557  0.00  0.00    +0.000 A 
ATOM     21  F   UNL     1      46.590   3.759   6.330  0.00  0.00    +0.000 F 
ATOM     22  C   UNL     1      45.755   2.358   8.031  0.00  0.00    +0.000 A 
ATOM     23  C   UNL     1      45.241   2.217   9.323  0.00  0.00    +0.000 A 
ENDBRANCH  14  17
ENDBRANCH   5  14
TORSDOF 3
ENDMDL
MODEL 4
REMARK VINA RESULT:    -6.925      4.348      6.324
REMARK INTER + INTRA:          -8.568
REMARK INTER:                  -8.196
REMARK INTRA:                  -0.371
REMARK UNBOUND:                -0.428
REMARK  Name = 
REMARK  3 active torsions:
REMARK  status: ('A' for Active; 'I' for Inactive)
REMARK    1  A    between atoms: C_2  and  C_4
REMARK    2  A    between atoms: N_8  and  C_9
REMARK    3  A    between atoms: C_9  and  C_10
REMARK                            x       y       z     vdW  Elec       q    Type
REMARK                         _______ _______ _______ _____ _____    ______ ____
ROOT
ATOM      1  C   UNL     1      48.455   6.794  13.480  0.00  0.00    +0.000 A 
ATOM      2  N   UNL     1      47.874   5.624  13.838  0.00  0.00    +0.000 NA
ATOM      3  C   UNL     1      46.716   5.354  13.177  0.00  0.00    +0.000 A 
ATOM      4  C   UNL     1      46.141   6.180  12.224  0.00  0.00    +0.000 A 
ATOM      5  N   UNL     1      44.894   5.982  11.628  0.00  0.00    +0.000 N 
ATOM      6  N   UNL     1      46.794   7.320  11.918  0.00  0.00    +0.000 NA
ATOM      7  N   UNL     1      47.973   7.637  12.547  0.00  0.00    +0.000 NA
ATOM      8  H   UNL     1      44.762   6.727  10.946  0.00  0.00    +0.000 HD
ENDROOT
BRANCH   1  10
ATOM      9  N   UNL     1      50.693   7.771  13.483  0.00  0.00    +0.000 N 
ATOM     10  C   UNL     1      49.683   7.224  14.240  0.00  0.00    +0.000 C 
ATOM     11  O   UNL     1      49.816   7.088  15.451  0.00  0.00    +0.000 OA
ATOM     12  H   UNL     1      51.562   8.013  13.936  0.00  0.00    +0.000 HD
ATOM     13  H   UNL     1      50.606   7.838  12.476  0.00  0.00    +0.000 HD
ENDBRANCH   1  10
BRANCH   5  14
ATOM     14  C   UNL     1      44.305   4.679  11.288  0.00  0.00    +0.000 C 
ATOM     15  C   UNL     1      42.783   4.628  11.389  0.00  0.00    +0.000 C 
ATOM     16  C   UNL     1      43.611   3.787  12.301  0.00  0.00    +0.000 C 
BRANCH  14  17
ATOM     17  C   UNL     1      44.946   3.993  10.081  0.00  0.00    +0.000 A 
ATOM     18  C   UNL     1      44.934   2.591   9.947  0.00  0.00    +0.000 A 
ATOM     19  C   UNL     1      45.432   1.965   8.801  0.00  0.00    +0.000 A 
ATOM     20  C   UNL     1      45.959   2.736   7.775  0.00  0.00    +0.000 A 
ATOM     21  F   UNL     1      46.404   2.140   6.661  0.00  0.00    +0.000 F 
ATOM     22  C   UNL     1      46.022   4.117   7.885  0.00  0.00    +0.000 A 
ATOM     23  C   UNL     1      45.529   4.738   9.036  0.00  0.00    +0.000 A 
ENDBRANCH  14  17
ENDBRANCH   5  14
TORSDOF 3
ENDMDL
MODEL 5
REMARK VINA RESULT:    -5.518      3.410      5.217
REMARK INTER + INTRA:          -6.914
REMARK INTER:                  -7.113
REMARK INTRA:                   0.199
REMARK UNBOUND:                -0.428
REMARK  Name = 
REMARK  3 active torsions:
REMARK  status: ('A' for Active; 'I' for Inactive)
REMARK    1  A    between atoms: C_2  and  C_4
REMARK    2  A    between atoms: N_8  and  C_9
REMARK    3  A    between atoms: C_9  and  C_10
REMARK                            x       y       z     vdW  Elec       q    Type
REMARK                         _______ _______ _______ _____ _____    ______ ____
ROOT
ATOM      1  C   UNL     1      44.852   3.680  11.764  0.00  0.00    +0.000 A 
ATOM      2  N   UNL     1      45.222   4.789  11.080  0.00  0.00    +0.000 NA
ATOM      3  C   UNL     1      45.904   5.700  11.826  0.00  0.00    +0.000 A 
ATOM      4  C   UNL     1      46.204   5.552  13.170  0.00  0.00    +0.000 A 
ATOM      5  N   UNL     1      46.790   6.526  13.981  0.00  0.00    +0.000 N 
ATOM      6  N   UNL     1      45.810   4.410  13.771  0.00  0.00    +0.000 NA
ATOM      7  N   UNL     1      45.128   3.451  13.063  0.00  0.00    +0.000 NA
ATOM      8  H   UNL     1      46.920   6.115  14.904  0.00  0.00    +0.000 HD
ENDROOT
BRANCH   1  10
ATOM      9  N   UNL     1      44.484   2.229   9.835  0.00  0.00    +0.000 N 
ATOM     10  C   UNL     1      43.998   2.668  11.045  0.00  0.00    +0.000 C 
ATOM     11  O   UNL     1      42.923   2.261  11.469  0.00  0.00    +0.000 OA
ATOM     12  H   UNL     1      43.917   1.602   9.283  0.00  0.00    +0.000 HD
ATOM     13  H   UNL     1      45.347   2.602   9.457  0.00  0.00    +0.000 HD
ENDBRANCH   1  10
BRANCH   5  14
ATOM     14  C   UNL     1      47.807   7.497  13.552  0.00  0.00    +0.000 C 
ATOM     15  C   UNL     1      47.258   8.879  13.209  0.00  0.00    +0.000 C 
ATOM     16  C   UNL     1      47.891   8.050  12.143  0.00  0.00    +0.000 C 
BRANCH  14  17
ATOM     17  C   UNL     1      49.106   7.444  14.358  0.00  0.00    +0.000 A 
ATOM     18  C   UNL     1      49.183   6.735  15.572  0.00  0.00    +0.000 A 
ATOM     19  C   UNL     1      50.391   6.603  16.263  0.00  0.00    +0.000 A 
ATOM     20  C   UNL     1      51.539   7.190  15.751  0.00  0.00    +0.000 A 
ATOM     21  F   UNL     1      52.705   7.035  16.393  0.00  0.00    +0.000 F 
ATOM     22  C   UNL     1      51.496   7.928  14.577  0.00  0.00    +0.000 A 
ATOM     23  C   UNL     1      50.285   8.062  13.894  0.00  0.00    +0.000 A 
ENDBRANCH  14  17
ENDBRANCH   5  14
TORSDOF 3
ENDMDL
MODEL 6
REMARK VINA RESULT:    -5.507      5.641      7.647
REMARK INTER + INTRA:          -6.901
REMARK INTER:                  -6.733
REMARK INTRA:                  -0.167
REMARK UNBOUND:                -0.428
REMARK  Name = 
REMARK  3 active torsions:
REMARK  status: ('A' for Active; 'I' for Inactive)
REMARK    1  A    between atoms: C_2  and  C_4
REMARK    2  A    between atoms: N_8  and  C_9
REMARK    3  A    between atoms: C_9  and  C_10
REMARK                            x       y       z     vdW  Elec       q    Type
REMARK                         _______ _______ _______ _____ _____    ______ ____
ROOT
ATOM      1  C   UNL     1      46.773   4.720  13.445  0.00  0.00    +0.000 A 
ATOM      2  N   UNL     1      47.164   5.650  14.349  0.00  0.00    +0.000 NA
ATOM      3  C   UNL     1      47.666   5.128  15.501  0.00  0.00    +0.000 A 
ATOM      4  C   UNL     1      47.775   3.773  15.771  0.00  0.00    +0.000 A 
ATOM      5  N   UNL     1      48.169   3.220  16.991  0.00  0.00    +0.000 N 
ATOM      6  N   UNL     1      47.375   2.916  14.810  0.00  0.00    +0.000 NA
ATOM      7  N   UNL     1      46.870   3.387  13.623  0.00  0.00    +0.000 NA
ATOM      8  H   UNL     1      48.190   2.209  16.874  0.00  0.00    +0.000 HD
ENDROOT
BRANCH   1  10
ATOM      9  N   UNL     1      45.051   4.446  11.736  0.00  0.00    +0.000 N 
ATOM     10  C   UNL     1      46.104   5.208  12.187  0.00  0.00    +0.000 C 
ATOM     11  O   UNL     1      46.465   6.201  11.566  0.00  0.00    +0.000 OA
ATOM     12  H   UNL     1      44.612   4.693  10.860  0.00  0.00    +0.000 HD
ATOM     13  H   UNL     1      44.783   3.597  12.218  0.00  0.00    +0.000 HD
ENDBRANCH   1  10
BRANCH   5  14
ATOM     14  C   UNL     1      49.171   3.789  17.904  0.00  0.00    +0.000 C 
ATOM     15  C   UNL     1      48.657   4.064  19.315  0.00  0.00    +0.000 C 
ATOM     16  C   UNL     1      49.093   5.200  18.454  0.00  0.00    +0.000 C 
BRANCH  14  17
ATOM     17  C   UNL     1      50.562   3.166  17.780  0.00  0.00    +0.000 A 
ATOM     18  C   UNL     1      51.722   3.905  18.083  0.00  0.00    +0.000 A 
ATOM     19  C   UNL     1      52.988   3.312  18.065  0.00  0.00    +0.000 A 
ATOM     20  C   UNL     1      53.111   1.971  17.732  0.00  0.00    +0.000 A 
ATOM     21  F   UNL     1      54.319   1.393  17.749  0.00  0.00    +0.000 F 
ATOM     22  C   UNL     1      51.996   1.219  17.392  0.00  0.00    +0.000 A 
ATOM     23  C   UNL     1      50.733   1.817  17.406  0.00  0.00    +0.000 A 
ENDBRANCH  14  17
ENDBRANCH   5  14
TORSDOF 3
ENDMDL
MODEL 7
REMARK VINA RESULT:    -5.490      4.592      6.609
REMARK INTER + INTRA:          -6.881
REMARK INTER:                  -6.919
REMARK INTRA:                   0.038
REMARK UNBOUND:                -0.428
REMARK  Name = 
REMARK  3 active torsions:
REMARK  status: ('A' for Active; 'I' for Inactive)
REMARK    1  A    between atoms: C_2  and  C_4
REMARK    2  A    between atoms: N_8  and  C_9
REMARK    3  A    between atoms: C_9  and  C_10
REMARK                            x       y       z     vdW  Elec       q    Type
REMARK                         _______ _______ _______ _____ _____    ______ ____
ROOT
ATOM      1  C   UNL     1      46.029   4.919  12.366  0.00  0.00    +0.000 A 
ATOM      2  N   UNL     1      46.882   5.942  12.612  0.00  0.00    +0.000 NA
ATOM      3  C   UNL     1      47.395   5.946  13.873  0.00  0.00    +0.000 A 
ATOM      4  C   UNL     1      47.090   5.013  14.850  0.00  0.00    +0.000 A 
ATOM      5  N   UNL     1      47.506   5.070  16.182  0.00  0.00    +0.000 N 
ATOM      6  N   UNL     1      46.243   4.019  14.516  0.00  0.00    +0.000 NA
ATOM      7  N   UNL     1      45.703   3.960  13.254  0.00  0.00    +0.000 NA
ATOM      8  H   UNL     1      47.160   4.232  16.645  0.00  0.00    +0.000 HD
ENDROOT
BRANCH   1  10
ATOM      9  N   UNL     1      45.207   6.118  10.404  0.00  0.00    +0.000 N 
ATOM     10  C   UNL     1      45.330   4.900  11.031  0.00  0.00    +0.000 C 
ATOM     11  O   UNL     1      44.868   3.886  10.521  0.00  0.00    +0.000 OA
ATOM     12  H   UNL     1      44.688   6.168   9.539  0.00  0.00    +0.000 HD
ATOM     13  H   UNL     1      45.543   6.964  10.847  0.00  0.00    +0.000 HD
ENDBRANCH   1  10
BRANCH   5  14
ATOM     14  C   UNL     1      48.801   5.585  16.652  0.00  0.00    +0.000 C 
ATOM     15  C   UNL     1      48.705   6.829  17.532  0.00  0.00    +0.000 C 
ATOM     16  C   UNL     1      49.383   6.913  16.206  0.00  0.00    +0.000 C 
BRANCH  14  17
ATOM     17  C   UNL     1      49.790   4.502  17.085  0.00  0.00    +0.000 A 
ATOM     18  C   UNL     1      49.424   3.141  17.094  0.00  0.00    +0.000 A 
ATOM     19  C   UNL     1      50.352   2.140  17.394  0.00  0.00    +0.000 A 
ATOM     20  C   UNL     1      51.659   2.488  17.700  0.00  0.00    +0.000 A 
ATOM     21  F   UNL     1      52.558   1.528  17.953  0.00  0.00    +0.000 F 
ATOM     22  C   UNL     1      52.049   3.819  17.738  0.00  0.00    +0.000 A 
ATOM     23  C   UNL     1      51.116   4.817  17.442  0.00  0.00    +0.000 A 
ENDBRANCH  14  17
ENDBRANCH   5  14
TORSDOF 3
ENDMDL
MODEL 8
REMARK VINA RESULT:    -5.402      6.151      7.588
REMARK INTER + INTRA:          -6.778
REMARK INTER:                  -6.254
REMARK INTRA:                  -0.524
REMARK UNBOUND:                -0.428
REMARK  Name = 
REMARK  3 active torsions:
REMARK  status: ('A' for Active; 'I' for Inactive)
REMARK    1  A    between atoms: C_2  and  C_4
REMARK    2  A    between atoms: N_8  and  C_9
REMARK    3  A    between atoms: C_9  and  C_10
REMARK                            x       y       z     vdW  Elec       q    Type
REMARK                         _______ _______ _______ _____ _____    ______ ____
ROOT
ATOM      1  C   UNL     1      49.399   7.248  13.014  0.00  0.00    +0.000 A 
ATOM      2  N   UNL     1      49.902   7.662  14.201  0.00  0.00    +0.000 NA
ATOM      3  C   UNL     1      49.355   7.043  15.283  0.00  0.00    +0.000 A 
ATOM      4  C   UNL     1      48.363   6.078  15.220  0.00  0.00    +0.000 A 
ATOM      5  N   UNL     1      47.703   5.523  16.318  0.00  0.00    +0.000 N 
ATOM      6  N   UNL     1      47.929   5.714  13.996  0.00  0.00    +0.000 NA
ATOM      7  N   UNL     1      48.453   6.299  12.869  0.00  0.00    +0.000 NA
ATOM      8  H   UNL     1      47.058   4.819  15.962  0.00  0.00    +0.000 HD
ENDROOT
BRANCH   1  10
ATOM      9  N   UNL     1      50.941   7.388  11.126  0.00  0.00    +0.000 N 
ATOM     10  C   UNL     1      49.868   7.959  11.772  0.00  0.00    +0.000 C 
ATOM     11  O   UNL     1      49.366   8.994  11.349  0.00  0.00    +0.000 OA
ATOM     12  H   UNL     1      51.335   7.863  10.327  0.00  0.00    +0.000 HD
ATOM     13  H   UNL     1      51.391   6.562  11.501  0.00  0.00    +0.000 HD
ENDBRANCH   1  10
BRANCH   5  14
ATOM     14  C   UNL     1      48.308   5.245  17.629  0.00  0.00    +0.000 C 
ATOM     15  C   UNL     1      47.324   5.266  18.796  0.00  0.00    +0.000 C 
ATOM     16  C   UNL     1      48.417   6.279  18.734  0.00  0.00    +0.000 C 
BRANCH  14  17
ATOM     17  C   UNL     1      49.350   4.127  17.617  0.00  0.00    +0.000 A 
ATOM     18  C   UNL     1      49.038   2.842  17.131  0.00  0.00    +0.000 A 
ATOM     19  C   UNL     1      50.012   1.846  17.027  0.00  0.00    +0.000 A 
ATOM     20  C   UNL     1      51.314   2.118  17.421  0.00  0.00    +0.000 A 
ATOM     21  F   UNL     1      52.256   1.176  17.289  0.00  0.00    +0.000 F 
ATOM     22  C   UNL     1      51.653   3.359  17.940  0.00  0.00    +0.000 A 
ATOM     23  C   UNL     1      50.674   4.351  18.046  0.00  0.00    +0.000 A 
ENDBRANCH  14  17
ENDBRANCH   5  14
TORSDOF 3
ENDMDL
MODEL 9
REMARK VINA RESULT:    -5.295      3.592      5.625
REMARK INTER + INTRA:          -6.652
REMARK INTER:                  -7.018
REMARK INTRA:                   0.367
REMARK UNBOUND:                -0.428
REMARK  Name = 
REMARK  3 active torsions:
REMARK  status: ('A' for Active; 'I' for Inactive)
REMARK    1  A    between atoms: C_2  and  C_4
REMARK    2  A    between atoms: N_8  and  C_9
REMARK    3  A    between atoms: C_9  and  C_10
REMARK                            x       y       z     vdW  Elec       q    Type
REMARK                         _______ _______ _______ _____ _____    ______ ____
ROOT
ATOM      1  C   UNL     1      45.151   4.022  12.450  0.00  0.00    +0.000 A 
ATOM      2  N   UNL     1      45.110   5.342  12.751  0.00  0.00    +0.000 NA
ATOM      3  C   UNL     1      46.048   5.734  13.657  0.00  0.00    +0.000 A 
ATOM      4  C   UNL     1      46.972   4.889  14.250  0.00  0.00    +0.000 A 
ATOM      5  N   UNL     1      47.856   5.245  15.271  0.00  0.00    +0.000 N 
ATOM      6  N   UNL     1      46.952   3.592  13.882  0.00  0.00    +0.000 NA
ATOM      7  N   UNL     1      46.034   3.143  12.964  0.00  0.00    +0.000 NA
ATOM      8  H   UNL     1      48.432   4.430  15.473  0.00  0.00    +0.000 HD
ENDROOT
BRANCH   1  10
ATOM      9  N   UNL     1      44.451   2.424  10.742  0.00  0.00    +0.000 N 
ATOM     10  C   UNL     1      44.079   3.481  11.540  0.00  0.00    +0.000 C 
ATOM     11  O   UNL     1      42.947   3.945  11.471  0.00  0.00    +0.000 OA
ATOM     12  H   UNL     1      43.789   2.069  10.066  0.00  0.00    +0.000 HD
ATOM     13  H   UNL     1      45.401   2.072  10.759  0.00  0.00    +0.000 HD
ENDBRANCH   1  10
BRANCH   5  14
ATOM     14  C   UNL     1      48.508   6.555  15.419  0.00  0.00    +0.000 C 
ATOM     15  C   UNL     1      49.809   6.526  16.216  0.00  0.00    +0.000 C 
ATOM     16  C   UNL     1      48.636   7.278  16.746  0.00  0.00    +0.000 C 
BRANCH  14  17
ATOM     17  C   UNL     1      48.485   7.417  14.156  0.00  0.00    +0.000 A 
ATOM     18  C   UNL     1      47.755   8.621  14.108  0.00  0.00    +0.000 A 
ATOM     19  C   UNL     1      47.808   9.460  12.992  0.00  0.00    +0.000 A 
ATOM     20  C   UNL     1      48.586   9.100  11.902  0.00  0.00    +0.000 A 
ATOM     21  F   UNL     1      48.666   9.920  10.846  0.00  0.00    +0.000 F 
ATOM     22  C   UNL     1      49.290   7.904  11.896  0.00  0.00    +0.000 A 
ATOM     23  C   UNL     1      49.229   7.066  13.012  0.00  0.00    +0.000 A 
ENDBRANCH  14  17
ENDBRANCH   5  14
TORSDOF 3
ENDMDL
