MODEL 1
REMARK VINA RESULT:    -8.218      0.000      0.000
REMARK INTER + INTRA:         -12.246
REMARK INTER:                 -11.101
REMARK INTRA:                  -1.145
REMARK UNBOUND:                -1.145
REMARK  Name = 
REMARK  7 active torsions:
REMARK  status: ('A' for Active; 'I' for Inactive)
REMARK    1  A    between atoms: C_1  and  C_2
REMARK    2  A    between atoms: C_2  and  N_3
REMARK    3  A    between atoms: C_2  and  C_12
REMARK    4  A    between atoms: C_4  and  C_6
REMARK    5  A    between atoms: C_15  and  C_16
REMARK    6  A    between atoms: C_16  and  N_17
REMARK    7  A    between atoms: C_18  and  C_20
REMARK                            x       y       z     vdW  Elec       q    Type
REMARK                         _______ _______ _______ _____ _____    ______ ____
ROOT
ATOM      1  C   UNL     1      45.254   5.142  11.886  0.00  0.00    +0.000 A 
ATOM      2  C   UNL     1      45.348   3.776  12.192  0.00  0.00    +0.000 A 
ATOM      3  C   UNL     1      46.145   3.340  13.262  0.00  0.00    +0.000 A 
ATOM      4  C   UNL     1      46.837   4.268  14.056  0.00  0.00    +0.000 A 
ATOM      5  C   UNL     1      46.824   5.611  13.690  0.00  0.00    +0.000 A 
ATOM      6  C   UNL     1      46.056   6.037  12.615  0.00  0.00    +0.000 A 
ENDROOT
BRANCH   1   8
ATOM      7  C   UNL     1      42.875   5.807  11.475  0.00  0.00    +0.000 C 
ATOM      8  C   UNL     1      44.258   5.652  10.843  0.00  0.00    +0.000 C 
BRANCH   8   9
ATOM      9  N   UNL     1      44.218   4.734   9.698  0.00  0.00    +0.000 N 
ATOM     10  C   UNL     1      45.227   4.669   8.735  0.00  0.00    +0.000 C 
ATOM     11  O   UNL     1      46.184   5.423   8.721  0.00  0.00    +0.000 OA
ATOM     12  H   UNL     1      43.299   4.458   9.383  0.00  0.00    +0.000 HD
BRANCH  10  13
ATOM     13  C   UNL     1      44.977   3.574   7.647  0.00  0.00    +0.000 C 
ATOM     14  C   UNL     1      46.158   3.376   6.682  0.00  0.00    +0.000 C 
ATOM     15  C   UNL     1      47.263   2.479   7.233  0.00  0.00    +0.000 C 
ATOM     16  C   UNL     1      46.683   1.183   7.783  0.00  0.00    +0.000 C 
ATOM     17  C   UNL     1      45.573   1.459   8.792  0.00  0.00    +0.000 C 
ATOM     18  N   UNL     1      44.509   2.301   8.243  0.00  0.00    +0.000 NA
ATOM     19  H   UNL     1      43.823   2.497   8.972  0.00  0.00    +0.000 HD
ENDBRANCH  10  13
ENDBRANCH   8   9
ENDBRANCH   1   8
BRANCH   4  20
ATOM     20  C   UNL     1      47.576   3.885  15.310  0.00  0.00    +0.000 C 
BRANCH  20  21
ATOM     21  N   UNL     1      47.474   4.895  16.315  0.00  0.00    +0.000 N 
ATOM     22  C   UNL     1      48.592   5.443  16.887  0.00  0.00    +0.000 C 
ATOM     23  O   UNL     1      49.734   5.109  16.568  0.00  0.00    +0.000 OA
ATOM     24  H   UNL     1      46.613   4.909  16.850  0.00  0.00    +0.000 HD
BRANCH  22  25
ATOM     25  C   UNL     1      48.335   6.500  17.859  0.00  0.00    +0.000 A 
ATOM     26  C   UNL     1      48.182   6.186  19.203  0.00  0.00    +0.000 A 
ATOM     27  S   UNL     1      47.953   7.555  20.194  0.00  0.00    +0.000 S 
ATOM     28  C   UNL     1      48.006   8.605  18.855  0.00  0.00    +0.000 A 
ATOM     29  N   UNL     1      47.844   9.946  19.007  0.00  0.00    +0.000 NA
ATOM     30  C   UNL     1      47.880  10.619  17.905  0.00  0.00    +0.000 A 
ATOM     31  N   UNL     1      48.076  10.070  16.662  0.00  0.00    +0.000 N 
ATOM     32  C   UNL     1      48.287   8.735  16.463  0.00  0.00    +0.000 A 
ATOM     33  O   UNL     1      48.529   8.285  15.351  0.00  0.00    +0.000 OA
ATOM     34  C   UNL     1      48.221   7.919  17.665  0.00  0.00    +0.000 A 
ATOM     35  H   UNL     1      48.111  10.651  15.841  0.00  0.00    +0.000 HD
ENDBRANCH  22  25
ENDBRANCH  20  21
ENDBRANCH   4  20
TORSDOF 6
ENDMDL
MODEL 2
REMARK VINA RESULT:    -7.870      2.909      4.332
REMARK INTER + INTRA:         -11.776
REMARK INTER:                 -10.596
REMARK INTRA:                  -1.180
REMARK UNBOUND:                -1.145
REMARK  Name = 
REMARK  7 active torsions:
REMARK  status: ('A' for Active; 'I' for Inactive)
REMARK    1  A    between atoms: C_1  and  C_2
REMARK    2  A    between atoms: C_2  and  N_3
REMARK    3  A    between atoms: C_2  and  C_12
REMARK    4  A    between atoms: C_4  and  C_6
REMARK    5  A    between atoms: C_15  and  C_16
REMARK    6  A    between atoms: C_16  and  N_17
REMARK    7  A    between atoms: C_18  and  C_20
REMARK                            x       y       z     vdW  Elec       q    Type
REMARK                         _______ _______ _______ _____ _____    ______ ____
ROOT
ATOM      1  C   UNL     1      46.182   5.704  12.196  0.00  0.00    +0.000 A 
ATOM      2  C   UNL     1      45.679   4.437  12.528  0.00  0.00    +0.000 A 
ATOM      3  C   UNL     1      46.006   3.843  13.758  0.00  0.00    +0.000 A 
ATOM      4  C   UNL     1      46.817   4.520  14.681  0.00  0.00    +0.000 A 
ATOM      5  C   UNL     1      47.396   5.731  14.309  0.00  0.00    +0.000 A 
ATOM      6  C   UNL     1      47.093   6.304  13.082  0.00  0.00    +0.000 A 
ENDROOT
BRANCH   1   8
ATOM      7  C   UNL     1      44.670   7.504  11.333  0.00  0.00    +0.000 C 
ATOM      8  C   UNL     1      45.700   6.443  10.947  0.00  0.00    +0.000 C 
BRANCH   8   9
ATOM      9  N   UNL     1      45.138   5.486   9.985  0.00  0.00    +0.000 N 
ATOM     10  C   UNL     1      45.817   5.070   8.837  0.00  0.00    +0.000 C 
ATOM     11  O   UNL     1      46.895   5.526   8.498  0.00  0.00    +0.000 OA
ATOM     12  H   UNL     1      44.131   5.454   9.929  0.00  0.00    +0.000 HD
BRANCH  10  13
ATOM     13  C   UNL     1      45.030   4.007   8.002  0.00  0.00    +0.000 C 
ATOM     14  C   UNL     1      45.894   3.265   6.969  0.00  0.00    +0.000 C 
ATOM     15  C   UNL     1      46.700   2.108   7.554  0.00  0.00    +0.000 C 
ATOM     16  C   UNL     1      45.811   1.199   8.392  0.00  0.00    +0.000 C 
ATOM     17  C   UNL     1      45.048   1.994   9.446  0.00  0.00    +0.000 C 
ATOM     18  N   UNL     1      44.261   3.085   8.869  0.00  0.00    +0.000 NA
ATOM     19  H   UNL     1      43.814   3.613   9.619  0.00  0.00    +0.000 HD
ENDBRANCH  10  13
ENDBRANCH   8   9
ENDBRANCH   1   8
BRANCH   4  20
ATOM     20  C   UNL     1      47.073   4.014  16.076  0.00  0.00    +0.000 C 
BRANCH  20  21
ATOM     21  N   UNL     1      48.469   3.953  16.369  0.00  0.00    +0.000 N 
ATOM     22  C   UNL     1      48.972   4.464  17.537  0.00  0.00    +0.000 C 
ATOM     23  O   UNL     1      48.261   4.991  18.393  0.00  0.00    +0.000 OA
ATOM     24  H   UNL     1      49.092   3.891  15.572  0.00  0.00    +0.000 HD
BRANCH  22  25
ATOM     25  C   UNL     1      50.408   4.283  17.723  0.00  0.00    +0.000 A 
ATOM     26  C   UNL     1      51.202   5.358  18.099  0.00  0.00    +0.000 A 
ATOM     27  S   UNL     1      52.839   4.940  18.331  0.00  0.00    +0.000 S 
ATOM     28  C   UNL     1      52.547   3.320  17.895  0.00  0.00    +0.000 A 
ATOM     29  N   UNL     1      53.557   2.410  17.858  0.00  0.00    +0.000 NA
ATOM     30  C   UNL     1      53.197   1.227  17.485  0.00  0.00    +0.000 A 
ATOM     31  N   UNL     1      51.914   0.868  17.155  0.00  0.00    +0.000 N 
ATOM     32  C   UNL     1      50.860   1.735  17.219  0.00  0.00    +0.000 A 
ATOM     33  O   UNL     1      49.716   1.368  16.987  0.00  0.00    +0.000 OA
ATOM     34  C   UNL     1      51.208   3.095  17.598  0.00  0.00    +0.000 A 
ATOM     35  H   UNL     1      51.694  -0.077  16.887  0.00  0.00    +0.000 HD
ENDBRANCH  22  25
ENDBRANCH  20  21
ENDBRANCH   4  20
TORSDOF 6
ENDMDL
MODEL 3
REMARK VINA RESULT:    -7.857      1.745      2.077
REMARK INTER + INTRA:         -11.758
REMARK INTER:                 -10.613
REMARK INTRA:                  -1.145
REMARK UNBOUND:                -1.145
REMARK  Name = 
REMARK  7 active torsions:
REMARK  status: ('A' for Active; 'I' for Inactive)
REMARK    1  A    between atoms: C_1  and  C_2
REMARK    2  A    between atoms: C_2  and  N_3
REMARK    3  A    between atoms: C_2  and  C_12
REMARK    4  A    between atoms: C_4  and  C_6
REMARK    5  A    between atoms: C_15  and  C_16
REMARK    6  A    between atoms: C_16  and  N_17
REMARK    7  A    between atoms: C_18  and  C_20
REMARK                            x       y       z     vdW  Elec       q    Type
REMARK                         _______ _______ _______ _____ _____    ______ ____
ROOT
ATOM      1  C   UNL     1      45.290   5.134  11.919  0.00  0.00    +0.000 A 
ATOM      2  C   UNL     1      45.435   3.747  12.078  0.00  0.00    +0.000 A 
ATOM      3  C   UNL     1      46.168   3.229  13.157  0.00  0.00    +0.000 A 
ATOM      4  C   UNL     1      46.742   4.089  14.106  0.00  0.00    +0.000 A 
ATOM      5  C   UNL     1      46.683   5.464  13.891  0.00  0.00    +0.000 A 
ATOM      6  C   UNL     1      45.981   5.975  12.808  0.00  0.00    +0.000 A 
ENDROOT
BRANCH   1   8
ATOM      7  C   UNL     1      42.970   5.959  11.461  0.00  0.00    +0.000 C 
ATOM      8  C   UNL     1      44.354   5.714  10.858  0.00  0.00    +0.000 C 
BRANCH   8   9
ATOM      9  N   UNL     1      44.276   4.805   9.708  0.00  0.00    +0.000 N 
ATOM     10  C   UNL     1      45.280   4.707   8.742  0.00  0.00    +0.000 C 
ATOM     11  O   UNL     1      46.266   5.424   8.731  0.00  0.00    +0.000 OA
ATOM     12  H   UNL     1      43.346   4.568   9.393  0.00  0.00    +0.000 HD
BRANCH  10  13
ATOM     13  C   UNL     1      44.987   3.629   7.648  0.00  0.00    +0.000 C 
ATOM     14  C   UNL     1      46.155   3.395   6.676  0.00  0.00    +0.000 C 
ATOM     15  C   UNL     1      47.229   2.455   7.216  0.00  0.00    +0.000 C 
ATOM     16  C   UNL     1      46.605   1.177   7.760  0.00  0.00    +0.000 C 
ATOM     17  C   UNL     1      45.511   1.487   8.776  0.00  0.00    +0.000 C 
ATOM     18  N   UNL     1      44.475   2.370   8.238  0.00  0.00    +0.000 NA
ATOM     19  H   UNL     1      43.799   2.585   8.970  0.00  0.00    +0.000 HD
ENDBRANCH  10  13
ENDBRANCH   8   9
ENDBRANCH   1   8
BRANCH   4  20
ATOM     20  C   UNL     1      47.399   3.600  15.368  0.00  0.00    +0.000 C 
BRANCH  20  21
ATOM     21  N   UNL     1      47.866   4.681  16.177  0.00  0.00    +0.000 N 
ATOM     22  C   UNL     1      47.650   4.699  17.529  0.00  0.00    +0.000 C 
ATOM     23  O   UNL     1      47.058   3.796  18.121  0.00  0.00    +0.000 OA
ATOM     24  H   UNL     1      47.996   5.569  15.705  0.00  0.00    +0.000 HD
BRANCH  22  25
ATOM     25  C   UNL     1      48.229   5.840  18.232  0.00  0.00    +0.000 A 
ATOM     26  C   UNL     1      47.414   6.690  18.968  0.00  0.00    +0.000 A 
ATOM     27  S   UNL     1      48.276   7.924  19.769  0.00  0.00    +0.000 S 
ATOM     28  C   UNL     1      49.758   7.389  19.124  0.00  0.00    +0.000 A 
ATOM     29  N   UNL     1      50.919   8.039  19.399  0.00  0.00    +0.000 NA
ATOM     30  C   UNL     1      51.962   7.540  18.823  0.00  0.00    +0.000 A 
ATOM     31  N   UNL     1      51.948   6.440  18.002  0.00  0.00    +0.000 N 
ATOM     32  C   UNL     1      50.814   5.728  17.731  0.00  0.00    +0.000 A 
ATOM     33  O   UNL     1      50.845   4.710  17.052  0.00  0.00    +0.000 OA
ATOM     34  C   UNL     1      49.600   6.263  18.324  0.00  0.00    +0.000 A 
ATOM     35  H   UNL     1      52.799   6.089  17.594  0.00  0.00    +0.000 HD
ENDBRANCH  22  25
ENDBRANCH  20  21
ENDBRANCH   4  20
TORSDOF 6
ENDMDL
MODEL 4
REMARK VINA RESULT:    -7.307      2.928      8.984
REMARK INTER + INTRA:         -11.015
REMARK INTER:                  -9.931
REMARK INTRA:                  -1.084
REMARK UNBOUND:                -1.145
REMARK  Name = 
REMARK  7 active torsions:
REMARK  status: ('A' for Active; 'I' for Inactive)
REMARK    1  A    between atoms: C_1  and  C_2
REMARK    2  A    between atoms: C_2  and  N_3
REMARK    3  A    between atoms: C_2  and  C_12
REMARK    4  A    between atoms: C_4  and  C_6
REMARK    5  A    between atoms: C_15  and  C_16
REMARK    6  A    between atoms: C_16  and  N_17
REMARK    7  A    between atoms: C_18  and  C_20
REMARK                            x       y       z     vdW  Elec       q    Type
REMARK                         _______ _______ _______ _____ _____    ______ ____
ROOT
ATOM      1  C   UNL     1      48.816   7.740  16.199  0.00  0.00    +0.000 A 
ATOM      2  C   UNL     1      48.292   8.916  15.639  0.00  0.00    +0.000 A 
ATOM      3  C   UNL     1      47.895   8.946  14.293  0.00  0.00    +0.000 A 
ATOM      4  C   UNL     1      47.992   7.795  13.497  0.00  0.00    +0.000 A 
ATOM      5  C   UNL     1      48.605   6.661  14.024  0.00  0.00    +0.000 A 
ATOM      6  C   UNL     1      49.021   6.641  15.348  0.00  0.00    +0.000 A 
ENDROOT
BRANCH   1   8
ATOM      7  C   UNL     1      50.386   8.361  18.048  0.00  0.00    +0.000 C 
ATOM      8  C   UNL     1      49.088   7.632  17.700  0.00  0.00    +0.000 C 
BRANCH   8   9
ATOM      9  N   UNL     1      49.152   6.220  18.096  0.00  0.00    +0.000 N 
ATOM     10  C   UNL     1      48.055   5.517  18.599  0.00  0.00    +0.000 C 
ATOM     11  O   UNL     1      46.976   6.038  18.824  0.00  0.00    +0.000 OA
ATOM     12  H   UNL     1      50.056   5.884  18.395  0.00  0.00    +0.000 HD
BRANCH  10  13
ATOM     13  C   UNL     1      48.364   4.013  18.897  0.00  0.00    +0.000 C 
ATOM     14  C   UNL     1      47.613   3.031  17.982  0.00  0.00    +0.000 C 
ATOM     15  C   UNL     1      48.274   2.826  16.622  0.00  0.00    +0.000 C 
ATOM     16  C   UNL     1      49.757   2.520  16.782  0.00  0.00    +0.000 C 
ATOM     17  C   UNL     1      50.450   3.579  17.633  0.00  0.00    +0.000 C 
ATOM     18  N   UNL     1      49.820   3.749  18.943  0.00  0.00    +0.000 NA
ATOM     19  H   UNL     1      50.289   4.500  19.449  0.00  0.00    +0.000 HD
ENDBRANCH  10  13
ENDBRANCH   8   9
ENDBRANCH   1   8
BRANCH   4  20
ATOM     20  C   UNL     1      47.438   7.713  12.100  0.00  0.00    +0.000 C 
BRANCH  20  21
ATOM     21  N   UNL     1      46.753   6.480  11.872  0.00  0.00    +0.000 N 
ATOM     22  C   UNL     1      45.390   6.439  11.742  0.00  0.00    +0.000 C 
ATOM     23  O   UNL     1      44.686   7.447  11.803  0.00  0.00    +0.000 OA
ATOM     24  H   UNL     1      47.224   5.641  12.192  0.00  0.00    +0.000 HD
BRANCH  22  25
ATOM     25  C   UNL     1      44.836   5.119  11.461  0.00  0.00    +0.000 A 
ATOM     26  C   UNL     1      44.066   4.470  12.416  0.00  0.00    +0.000 A 
ATOM     27  S   UNL     1      43.453   2.970  11.884  0.00  0.00    +0.000 S 
ATOM     28  C   UNL     1      44.232   3.120  10.378  0.00  0.00    +0.000 A 
ATOM     29  N   UNL     1      44.138   2.142   9.439  0.00  0.00    +0.000 NA
ATOM     30  C   UNL     1      44.800   2.375   8.355  0.00  0.00    +0.000 A 
ATOM     31  N   UNL     1      45.541   3.507   8.121  0.00  0.00    +0.000 N 
ATOM     32  C   UNL     1      45.629   4.536   9.015  0.00  0.00    +0.000 A 
ATOM     33  O   UNL     1      46.240   5.563   8.750  0.00  0.00    +0.000 OA
ATOM     34  C   UNL     1      44.934   4.315  10.273  0.00  0.00    +0.000 A 
ATOM     35  H   UNL     1      46.022   3.638   7.246  0.00  0.00    +0.000 HD
ENDBRANCH  22  25
ENDBRANCH  20  21
ENDBRANCH   4  20
TORSDOF 6
ENDMDL
MODEL 5
REMARK VINA RESULT:    -7.228      2.071      2.970
REMARK INTER + INTRA:         -10.908
REMARK INTER:                 -10.253
REMARK INTRA:                  -0.656
REMARK UNBOUND:                -1.145
REMARK  Name = 
REMARK  7 active torsions:
REMARK  status: ('A' for Active; 'I' for Inactive)
REMARK    1  A    between atoms: C_1  and  C_2
REMARK    2  A    between atoms: C_2  and  N_3
REMARK    3  A    between atoms: C_2  and  C_12
REMARK    4  A    between atoms: C_4  and  C_6
REMARK    5  A    between atoms: C_15  and  C_16
REMARK    6  A    between atoms: C_16  and  N_17
REMARK    7  A    between atoms: C_18  and  C_20
REMARK                            x       y       z     vdW  Elec       q    Type
REMARK                         _______ _______ _______ _____ _____    ______ ____
ROOT
ATOM      1  C   UNL     1      45.313   5.691  12.022  0.00  0.00    +0.000 A 
ATOM      2  C   UNL     1      45.781   5.156  13.232  0.00  0.00    +0.000 A 
ATOM      3  C   UNL     1      47.030   5.542  13.743  0.00  0.00    +0.000 A 
ATOM      4  C   UNL     1      47.814   6.488  13.066  0.00  0.00    +0.000 A 
ATOM      5  C   UNL     1      47.395   6.941  11.817  0.00  0.00    +0.000 A 
ATOM      6  C   UNL     1      46.172   6.537  11.300  0.00  0.00    +0.000 A 
ENDROOT
BRANCH   1   8
ATOM      7  C   UNL     1      43.123   4.615  12.587  0.00  0.00    +0.000 C 
ATOM      8  C   UNL     1      43.887   5.422  11.537  0.00  0.00    +0.000 C 
BRANCH   8   9
ATOM      9  N   UNL     1      43.922   4.717  10.250  0.00  0.00    +0.000 N 
ATOM     10  C   UNL     1      44.472   3.442  10.092  0.00  0.00    +0.000 C 
ATOM     11  O   UNL     1      45.039   2.845  10.990  0.00  0.00    +0.000 OA
ATOM     12  H   UNL     1      43.933   5.299   9.425  0.00  0.00    +0.000 HD
BRANCH  10  13
ATOM     13  C   UNL     1      44.339   2.885   8.637  0.00  0.00    +0.000 C 
ATOM     14  C   UNL     1      44.931   3.810   7.560  0.00  0.00    +0.000 C 
ATOM     15  C   UNL     1      46.443   3.681   7.398  0.00  0.00    +0.000 C 
ATOM     16  C   UNL     1      46.849   2.220   7.257  0.00  0.00    +0.000 C 
ATOM     17  C   UNL     1      46.293   1.380   8.402  0.00  0.00    +0.000 C 
ATOM     18  N   UNL     1      44.840   1.495   8.531  0.00  0.00    +0.000 NA
ATOM     19  H   UNL     1      44.528   0.957   9.340  0.00  0.00    +0.000 HD
ENDBRANCH  10  13
ENDBRANCH   8   9
ENDBRANCH   1   8
BRANCH   4  20
ATOM     20  C   UNL     1      49.082   7.065  13.637  0.00  0.00    +0.000 C 
BRANCH  20  21
ATOM     21  N   UNL     1      49.104   6.987  15.063  0.00  0.00    +0.000 N 
ATOM     22  C   UNL     1      50.273   7.135  15.763  0.00  0.00    +0.000 C 
ATOM     23  O   UNL     1      51.354   7.348  15.214  0.00  0.00    +0.000 OA
ATOM     24  H   UNL     1      48.358   6.454  15.494  0.00  0.00    +0.000 HD
BRANCH  22  25
ATOM     25  C   UNL     1      50.134   7.084  17.214  0.00  0.00    +0.000 A 
ATOM     26  C   UNL     1      50.513   8.173  17.988  0.00  0.00    +0.000 A 
ATOM     27  S   UNL     1      50.217   7.953  19.653  0.00  0.00    +0.000 S 
ATOM     28  C   UNL     1      49.616   6.381  19.399  0.00  0.00    +0.000 A 
ATOM     29  N   UNL     1      49.204   5.610  20.440  0.00  0.00    +0.000 NA
ATOM     30  C   UNL     1      48.797   4.431  20.104  0.00  0.00    +0.000 A 
ATOM     31  N   UNL     1      48.754   3.957  18.816  0.00  0.00    +0.000 N 
ATOM     32  C   UNL     1      49.114   4.710  17.735  0.00  0.00    +0.000 A 
ATOM     33  O   UNL     1      48.998   4.284  16.593  0.00  0.00    +0.000 OA
ATOM     34  C   UNL     1      49.617   6.036  18.052  0.00  0.00    +0.000 A 
ATOM     35  H   UNL     1      48.409   3.032  18.618  0.00  0.00    +0.000 HD
ENDBRANCH  22  25
ENDBRANCH  20  21
ENDBRANCH   4  20
TORSDOF 6
ENDMDL
MODEL 6
REMARK VINA RESULT:    -6.716      5.112      6.492
REMARK INTER + INTRA:         -10.216
REMARK INTER:                  -9.025
REMARK INTRA:                  -1.191
REMARK UNBOUND:                -1.145
REMARK  Name = 
REMARK  7 active torsions:
REMARK  status: ('A' for Active; 'I' for Inactive)
REMARK    1  A    between atoms: C_1  and  C_2
REMARK    2  A    between atoms: C_2  and  N_3
REMARK    3  A    between atoms: C_2  and  C_12
REMARK    4  A    between atoms: C_4  and  C_6
REMARK    5  A    between atoms: C_15  and  C_16
REMARK    6  A    between atoms: C_16  and  N_17
REMARK    7  A    between atoms: C_18  and  C_20
REMARK                            x       y       z     vdW  Elec       q    Type
REMARK                         _______ _______ _______ _____ _____    ______ ____
ROOT
ATOM      1  C   UNL     1      46.399   6.234  13.347  0.00  0.00    +0.000 A 
ATOM      2  C   UNL     1      45.639   7.255  12.757  0.00  0.00    +0.000 A 
ATOM      3  C   UNL     1      46.155   8.557  12.653  0.00  0.00    +0.000 A 
ATOM      4  C   UNL     1      47.449   8.846  13.113  0.00  0.00    +0.000 A 
ATOM      5  C   UNL     1      48.161   7.858  13.788  0.00  0.00    +0.000 A 
ATOM      6  C   UNL     1      47.638   6.579  13.914  0.00  0.00    +0.000 A 
ENDROOT
BRANCH   1   8
ATOM      7  C   UNL     1      47.117   3.844  13.548  0.00  0.00    +0.000 C 
ATOM      8  C   UNL     1      45.931   4.779  13.312  0.00  0.00    +0.000 C 
BRANCH   8   9
ATOM      9  N   UNL     1      45.280   4.493  12.027  0.00  0.00    +0.000 N 
ATOM     10  C   UNL     1      44.324   3.488  11.862  0.00  0.00    +0.000 C 
ATOM     11  O   UNL     1      44.010   2.715  12.750  0.00  0.00    +0.000 OA
ATOM     12  H   UNL     1      45.810   4.728  11.200  0.00  0.00    +0.000 HD
BRANCH  10  13
ATOM     13  C   UNL     1      43.742   3.417  10.412  0.00  0.00    +0.000 C 
ATOM     14  C   UNL     1      44.078   4.643   9.546  0.00  0.00    +0.000 C 
ATOM     15  C   UNL     1      45.467   4.592   8.916  0.00  0.00    +0.000 C 
ATOM     16  C   UNL     1      45.697   3.256   8.223  0.00  0.00    +0.000 C 
ATOM     17  C   UNL     1      45.422   2.090   9.166  0.00  0.00    +0.000 C 
ATOM     18  N   UNL     1      44.078   2.139   9.745  0.00  0.00    +0.000 NA
ATOM     19  H   UNL     1      43.966   1.369  10.404  0.00  0.00    +0.000 HD
ENDBRANCH  10  13
ENDBRANCH   8   9
ENDBRANCH   1   8
BRANCH   4  20
ATOM     20  C   UNL     1      48.123  10.173  12.888  0.00  0.00    +0.000 C 
BRANCH  20  21
ATOM     21  N   UNL     1      49.426  10.018  12.324  0.00  0.00    +0.000 N 
ATOM     22  C   UNL     1      49.728  10.520  11.086  0.00  0.00    +0.000 C 
ATOM     23  O   UNL     1      48.910  11.133  10.400  0.00  0.00    +0.000 OA
ATOM     24  H   UNL     1      49.969   9.231  12.662  0.00  0.00    +0.000 HD
BRANCH  22  25
ATOM     25  C   UNL     1      51.111  10.331  10.663  0.00  0.00    +0.000 A 
ATOM     26  C   UNL     1      51.885  11.427  10.306  0.00  0.00    +0.000 A 
ATOM     27  S   UNL     1      53.491  11.017   9.904  0.00  0.00    +0.000 S 
ATOM     28  C   UNL     1      53.191   9.359  10.150  0.00  0.00    +0.000 A 
ATOM     29  N   UNL     1      54.164   8.431   9.946  0.00  0.00    +0.000 NA
ATOM     30  C   UNL     1      53.790   7.211  10.145  0.00  0.00    +0.000 A 
ATOM     31  N   UNL     1      52.531   6.835  10.542  0.00  0.00    +0.000 N 
ATOM     32  C   UNL     1      51.534   7.733  10.802  0.00  0.00    +0.000 A 
ATOM     33  O   UNL     1      50.443   7.372  11.223  0.00  0.00    +0.000 OA
ATOM     34  C   UNL     1      51.884   9.123  10.560  0.00  0.00    +0.000 A 
ATOM     35  H   UNL     1      52.306   5.866  10.697  0.00  0.00    +0.000 HD
ENDBRANCH  22  25
ENDBRANCH  20  21
ENDBRANCH   4  20
TORSDOF 6
ENDMDL
MODEL 7
REMARK VINA RESULT:    -6.685      3.974      8.849
REMARK INTER + INTRA:         -10.175
REMARK INTER:                  -8.934
REMARK INTRA:                  -1.241
REMARK UNBOUND:                -1.145
REMARK  Name = 
REMARK  7 active torsions:
REMARK  status: ('A' for Active; 'I' for Inactive)
REMARK    1  A    between atoms: C_1  and  C_2
REMARK    2  A    between atoms: C_2  and  N_3
REMARK    3  A    between atoms: C_2  and  C_12
REMARK    4  A    between atoms: C_4  and  C_6
REMARK    5  A    between atoms: C_15  and  C_16
REMARK    6  A    between atoms: C_16  and  N_17
REMARK    7  A    between atoms: C_18  and  C_20
REMARK                            x       y       z     vdW  Elec       q    Type
REMARK                         _______ _______ _______ _____ _____    ______ ____
ROOT
ATOM      1  C   UNL     1      51.315   4.583  17.647  0.00  0.00    +0.000 A 
ATOM      2  C   UNL     1      50.990   3.227  17.498  0.00  0.00    +0.000 A 
ATOM      3  C   UNL     1      49.669   2.838  17.222  0.00  0.00    +0.000 A 
ATOM      4  C   UNL     1      48.663   3.804  17.063  0.00  0.00    +0.000 A 
ATOM      5  C   UNL     1      48.966   5.140  17.310  0.00  0.00    +0.000 A 
ATOM      6  C   UNL     1      50.267   5.519  17.610  0.00  0.00    +0.000 A 
ENDROOT
BRANCH   1   8
ATOM      7  C   UNL     1      53.318   4.658  19.147  0.00  0.00    +0.000 C 
ATOM      8  C   UNL     1      52.770   5.039  17.772  0.00  0.00    +0.000 C 
BRANCH   8   9
ATOM      9  N   UNL     1      52.862   6.487  17.548  0.00  0.00    +0.000 N 
ATOM     10  C   UNL     1      53.390   7.047  16.383  0.00  0.00    +0.000 C 
ATOM     11  O   UNL     1      53.890   6.383  15.492  0.00  0.00    +0.000 OA
ATOM     12  H   UNL     1      52.934   7.059  18.377  0.00  0.00    +0.000 HD
BRANCH  10  13
ATOM     13  C   UNL     1      53.328   8.610  16.362  0.00  0.00    +0.000 C 
ATOM     14  C   UNL     1      53.931   9.239  15.096  0.00  0.00    +0.000 C 
ATOM     15  C   UNL     1      52.982   9.255  13.901  0.00  0.00    +0.000 C 
ATOM     16  C   UNL     1      51.626   9.825  14.296  0.00  0.00    +0.000 C 
ATOM     17  C   UNL     1      51.055   9.098  15.509  0.00  0.00    +0.000 C 
ATOM     18  N   UNL     1      51.966   9.111  16.655  0.00  0.00    +0.000 NA
ATOM     19  H   UNL     1      51.558   8.571  17.417  0.00  0.00    +0.000 HD
ENDBRANCH  10  13
ENDBRANCH   8   9
ENDBRANCH   1   8
BRANCH   4  20
ATOM     20  C   UNL     1      47.268   3.469  16.608  0.00  0.00    +0.000 C 
BRANCH  20  21
ATOM     21  N   UNL     1      46.766   4.433  15.681  0.00  0.00    +0.000 N 
ATOM     22  C   UNL     1      46.765   4.189  14.334  0.00  0.00    +0.000 C 
ATOM     23  O   UNL     1      47.182   3.136  13.848  0.00  0.00    +0.000 OA
ATOM     24  H   UNL     1      46.784   5.400  15.988  0.00  0.00    +0.000 HD
BRANCH  22  25
ATOM     25  C   UNL     1      46.175   5.242  13.515  0.00  0.00    +0.000 A 
ATOM     26  C   UNL     1      46.887   6.406  13.258  0.00  0.00    +0.000 A 
ATOM     27  S   UNL     1      46.063   7.490  12.232  0.00  0.00    +0.000 S 
ATOM     28  C   UNL     1      44.711   6.460  12.133  0.00  0.00    +0.000 A 
ATOM     29  N   UNL     1      43.611   6.812  11.416  0.00  0.00    +0.000 NA
ATOM     30  C   UNL     1      42.651   5.948  11.450  0.00  0.00    +0.000 A 
ATOM     31  N   UNL     1      42.697   4.756  12.130  0.00  0.00    +0.000 N 
ATOM     32  C   UNL     1      43.795   4.340  12.828  0.00  0.00    +0.000 A 
ATOM     33  O   UNL     1      43.832   3.241  13.366  0.00  0.00    +0.000 OA
ATOM     34  C   UNL     1      44.897   5.288  12.857  0.00  0.00    +0.000 A 
ATOM     35  H   UNL     1      41.920   4.117  12.104  0.00  0.00    +0.000 HD
ENDBRANCH  22  25
ENDBRANCH  20  21
ENDBRANCH   4  20
TORSDOF 6
ENDMDL
MODEL 8
REMARK VINA RESULT:    -6.482      4.000      5.994
REMARK INTER + INTRA:          -9.901
REMARK INTER:                  -9.487
REMARK INTRA:                  -0.414
REMARK UNBOUND:                -1.145
REMARK  Name = 
REMARK  7 active torsions:
REMARK  status: ('A' for Active; 'I' for Inactive)
REMARK    1  A    between atoms: C_1  and  C_2
REMARK    2  A    between atoms: C_2  and  N_3
REMARK    3  A    between atoms: C_2  and  C_12
REMARK    4  A    between atoms: C_4  and  C_6
REMARK    5  A    between atoms: C_15  and  C_16
REMARK    6  A    between atoms: C_16  and  N_17
REMARK    7  A    between atoms: C_18  and  C_20
REMARK                            x       y       z     vdW  Elec       q    Type
REMARK                         _______ _______ _______ _____ _____    ______ ____
ROOT
ATOM      1  C   UNL     1      47.776   6.327  13.642  0.00  0.00    +0.000 A 
ATOM      2  C   UNL     1      48.587   7.029  14.547  0.00  0.00    +0.000 A 
ATOM      3  C   UNL     1      48.845   6.506  15.824  0.00  0.00    +0.000 A 
ATOM      4  C   UNL     1      48.318   5.262  16.202  0.00  0.00    +0.000 A 
ATOM      5  C   UNL     1      47.433   4.615  15.343  0.00  0.00    +0.000 A 
ATOM      6  C   UNL     1      47.157   5.147  14.091  0.00  0.00    +0.000 A 
ENDROOT
BRANCH   1   8
ATOM      7  C   UNL     1      47.634   8.316  12.128  0.00  0.00    +0.000 C 
ATOM      8  C   UNL     1      47.626   6.789  12.192  0.00  0.00    +0.000 C 
BRANCH   8   9
ATOM      9  N   UNL     1      46.390   6.242  11.618  0.00  0.00    +0.000 N 
ATOM     10  C   UNL     1      45.119   6.717  11.949  0.00  0.00    +0.000 C 
ATOM     11  O   UNL     1      44.927   7.570  12.798  0.00  0.00    +0.000 OA
ATOM     12  H   UNL     1      46.429   5.278  11.320  0.00  0.00    +0.000 HD
BRANCH  10  13
ATOM     13  C   UNL     1      43.967   6.008  11.164  0.00  0.00    +0.000 C 
ATOM     14  C   UNL     1      44.434   4.808  10.324  0.00  0.00    +0.000 C 
ATOM     15  C   UNL     1      44.592   3.518  11.122  0.00  0.00    +0.000 C 
ATOM     16  C   UNL     1      43.350   3.246  11.961  0.00  0.00    +0.000 C 
ATOM     17  C   UNL     1      42.995   4.450  12.827  0.00  0.00    +0.000 C 
ATOM     18  N   UNL     1      42.824   5.676  12.045  0.00  0.00    +0.000 NA
ATOM     19  H   UNL     1      42.639   6.456  12.675  0.00  0.00    +0.000 HD
ENDBRANCH  10  13
ENDBRANCH   8   9
ENDBRANCH   1   8
BRANCH   4  20
ATOM     20  C   UNL     1      48.684   4.571  17.489  0.00  0.00    +0.000 C 
BRANCH  20  21
ATOM     21  N   UNL     1      50.044   4.133  17.486  0.00  0.00    +0.000 N 
ATOM     22  C   UNL     1      50.838   4.279  18.593  0.00  0.00    +0.000 C 
ATOM     23  O   UNL     1      50.432   4.780  19.642  0.00  0.00    +0.000 OA
ATOM     24  H   UNL     1      50.497   4.085  16.581  0.00  0.00    +0.000 HD
BRANCH  22  25
ATOM     25  C   UNL     1      52.187   3.738  18.461  0.00  0.00    +0.000 A 
ATOM     26  C   UNL     1      53.282   4.497  18.852  0.00  0.00    +0.000 A 
ATOM     27  S   UNL     1      54.767   3.676  18.685  0.00  0.00    +0.000 S 
ATOM     28  C   UNL     1      54.000   2.298  18.044  0.00  0.00    +0.000 A 
ATOM     29  N   UNL     1      54.718   1.211  17.655  0.00  0.00    +0.000 NA
ATOM     30  C   UNL     1      54.010   0.250  17.164  0.00  0.00    +0.000 A 
ATOM     31  N   UNL     1      52.643   0.273  17.035  0.00  0.00    +0.000 N 
ATOM     32  C   UNL     1      51.875   1.324  17.451  0.00  0.00    +0.000 A 
ATOM     33  O   UNL     1      50.653   1.286  17.388  0.00  0.00    +0.000 OA
ATOM     34  C   UNL     1      52.619   2.454  17.981  0.00  0.00    +0.000 A 
ATOM     35  H   UNL     1      52.146  -0.517  16.658  0.00  0.00    +0.000 HD
ENDBRANCH  22  25
ENDBRANCH  20  21
ENDBRANCH   4  20
TORSDOF 6
ENDMDL
MODEL 9
REMARK VINA RESULT:    -6.196      3.864      9.126
REMARK INTER + INTRA:          -9.514
REMARK INTER:                  -8.801
REMARK INTRA:                  -0.714
REMARK UNBOUND:                -1.145
REMARK  Name = 
REMARK  7 active torsions:
REMARK  status: ('A' for Active; 'I' for Inactive)
REMARK    1  A    between atoms: C_1  and  C_2
REMARK    2  A    between atoms: C_2  and  N_3
REMARK    3  A    between atoms: C_2  and  C_12
REMARK    4  A    between atoms: C_4  and  C_6
REMARK    5  A    between atoms: C_15  and  C_16
REMARK    6  A    between atoms: C_16  and  N_17
REMARK    7  A    between atoms: C_18  and  C_20
REMARK                            x       y       z     vdW  Elec       q    Type
REMARK                         _______ _______ _______ _____ _____    ______ ____
ROOT
ATOM      1  C   UNL     1      49.641   5.590  19.506  0.00  0.00    +0.000 A 
ATOM      2  C   UNL     1      50.201   4.501  18.821  0.00  0.00    +0.000 A 
ATOM      3  C   UNL     1      49.430   3.760  17.912  0.00  0.00    +0.000 A 
ATOM      4  C   UNL     1      48.096   4.115  17.657  0.00  0.00    +0.000 A 
ATOM      5  C   UNL     1      47.513   5.130  18.411  0.00  0.00    +0.000 A 
ATOM      6  C   UNL     1      48.270   5.844  19.329  0.00  0.00    +0.000 A 
ENDROOT
BRANCH   1   8
ATOM      7  C   UNL     1      49.664   7.677  20.888  0.00  0.00    +0.000 C 
ATOM      8  C   UNL     1      50.507   6.515  20.363  0.00  0.00    +0.000 C 
BRANCH   8   9
ATOM      9  N   UNL     1      51.649   7.001  19.578  0.00  0.00    +0.000 N 
ATOM     10  C   UNL     1      51.514   7.870  18.493  0.00  0.00    +0.000 C 
ATOM     11  O   UNL     1      50.435   8.233  18.060  0.00  0.00    +0.000 OA
ATOM     12  H   UNL     1      52.458   6.399  19.554  0.00  0.00    +0.000 HD
BRANCH  10  13
ATOM     13  C   UNL     1      52.881   8.284  17.856  0.00  0.00    +0.000 C 
ATOM     14  C   UNL     1      54.013   7.272  18.100  0.00  0.00    +0.000 C 
ATOM     15  C   UNL     1      54.001   6.088  17.137  0.00  0.00    +0.000 C 
ATOM     16  C   UNL     1      53.891   6.565  15.695  0.00  0.00    +0.000 C 
ATOM     17  C   UNL     1      52.700   7.501  15.513  0.00  0.00    +0.000 C 
ATOM     18  N   UNL     1      52.737   8.644  16.427  0.00  0.00    +0.000 NA
ATOM     19  H   UNL     1      51.896   9.206  16.299  0.00  0.00    +0.000 HD
ENDBRANCH  10  13
ENDBRANCH   8   9
ENDBRANCH   1   8
BRANCH   4  20
ATOM     20  C   UNL     1      47.265   3.468  16.581  0.00  0.00    +0.000 C 
BRANCH  20  21
ATOM     21  N   UNL     1      46.762   4.428  15.651  0.00  0.00    +0.000 N 
ATOM     22  C   UNL     1      46.782   4.187  14.302  0.00  0.00    +0.000 C 
ATOM     23  O   UNL     1      47.220   3.142  13.820  0.00  0.00    +0.000 OA
ATOM     24  H   UNL     1      46.762   5.394  15.959  0.00  0.00    +0.000 HD
BRANCH  22  25
ATOM     25  C   UNL     1      46.188   5.234  13.478  0.00  0.00    +0.000 A 
ATOM     26  C   UNL     1      46.888   6.408  13.233  0.00  0.00    +0.000 A 
ATOM     27  S   UNL     1      46.061   7.483  12.199  0.00  0.00    +0.000 S 
ATOM     28  C   UNL     1      44.725   6.435  12.081  0.00  0.00    +0.000 A 
ATOM     29  N   UNL     1      43.629   6.773  11.351  0.00  0.00    +0.000 NA
ATOM     30  C   UNL     1      42.681   5.897  11.371  0.00  0.00    +0.000 A 
ATOM     31  N   UNL     1      42.734   4.704  12.050  0.00  0.00    +0.000 N 
ATOM     32  C   UNL     1      43.829   4.302  12.761  0.00  0.00    +0.000 A 
ATOM     33  O   UNL     1      43.874   3.202  13.297  0.00  0.00    +0.000 OA
ATOM     34  C   UNL     1      44.918   5.264  12.805  0.00  0.00    +0.000 A 
ATOM     35  H   UNL     1      41.966   4.055  12.013  0.00  0.00    +0.000 HD
ENDBRANCH  22  25
ENDBRANCH  20  21
ENDBRANCH   4  20
TORSDOF 6
ENDMDL
