MODEL 1
REMARK VINA RESULT:    -8.216      0.000      0.000
REMARK INTER + INTRA:         -11.381
REMARK INTER:                 -10.617
REMARK INTRA:                  -0.764
REMARK UNBOUND:                -0.764
REMARK  Name = 
REMARK  7 active torsions:
REMARK  status: ('A' for Active; 'I' for Inactive)
REMARK    1  A    between atoms: C_1  and  C_2
REMARK    2  A    between atoms: C_2  and  N_3
REMARK    3  A    between atoms: C_2  and  C_17
REMARK    4  A    between atoms: C_4  and  C_6
REMARK    5  A    between atoms: N_12  and  C_13
REMARK    6  A    between atoms: C_20  and  C_21
REMARK    7  A    between atoms: C_21  and  N_22
REMARK                            x       y       z     vdW  Elec       q    Type
REMARK                         _______ _______ _______ _____ _____    ______ ____
ROOT
ATOM      1  C   UNL     1      46.878   8.066  13.561  0.00  0.00    +0.000 C 
ATOM      2  C   UNL     1      47.409   6.636  13.411  0.00  0.00    +0.000 C 
ENDROOT
BRANCH   2   3
ATOM      3  C   UNL     1      46.491   5.819  12.511  0.00  0.00    +0.000 A 
ATOM      4  C   UNL     1      46.047   4.567  12.923  0.00  0.00    +0.000 A 
ATOM      5  N   UNL     1      45.289   3.754  12.148  0.00  0.00    +0.000 NA
ATOM      6  C   UNL     1      44.961   4.239  10.921  0.00  0.00    +0.000 A 
ATOM      7  C   UNL     1      45.368   5.506  10.520  0.00  0.00    +0.000 A 
ATOM      8  N   UNL     1      46.144   6.312  11.286  0.00  0.00    +0.000 NA
BRANCH   6   9
ATOM      9  C   UNL     1      44.173   3.350   9.984  0.00  0.00    +0.000 C 
BRANCH   9  10
ATOM     10  N   UNL     1      44.911   2.135   9.640  0.00  0.00    +0.000 N 
ATOM     11  C   UNL     1      45.665   2.245   8.458  0.00  0.00    +0.000 A 
ATOM     12  C   UNL     1      46.428   1.163   8.063  0.00  0.00    +0.000 A 
ATOM     13  C   UNL     1      47.163   1.309   6.908  0.00  0.00    +0.000 A 
ATOM     14  N   UNL     1      47.169   2.433   6.172  0.00  0.00    +0.000 NA
ATOM     15  C   UNL     1      46.414   3.429   6.648  0.00  0.00    +0.000 A 
ATOM     16  N   UNL     1      45.660   3.392   7.758  0.00  0.00    +0.000 NA
ATOM     17  H   UNL     1      44.326   1.308   9.604  0.00  0.00    +0.000 HD
ENDBRANCH   9  10
ENDBRANCH   6   9
ENDBRANCH   2   3
BRANCH   2  18
ATOM     18  N   UNL     1      47.529   6.022  14.722  0.00  0.00    +0.000 N 
ATOM     19  C   UNL     1      48.636   6.134  15.516  0.00  0.00    +0.000 C 
ATOM     20  O   UNL     1      49.681   6.644  15.124  0.00  0.00    +0.000 OA
ATOM     21  H   UNL     1      46.655   5.682  15.110  0.00  0.00    +0.000 HD
BRANCH  19  22
ATOM     22  C   UNL     1      48.514   5.560  16.861  0.00  0.00    +0.000 A 
ATOM     23  C   UNL     1      48.659   4.194  17.059  0.00  0.00    +0.000 A 
ATOM     24  S   UNL     1      48.480   3.725  18.691  0.00  0.00    +0.000 S 
ATOM     25  C   UNL     1      48.241   5.336  19.188  0.00  0.00    +0.000 A 
ATOM     26  N   UNL     1      48.053   5.646  20.496  0.00  0.00    +0.000 NA
ATOM     27  C   UNL     1      47.912   6.910  20.732  0.00  0.00    +0.000 A 
ATOM     28  N   UNL     1      47.930   7.910  19.783  0.00  0.00    +0.000 N 
ATOM     29  C   UNL     1      47.748   9.297  20.153  0.00  0.00    +0.000 C 
ATOM     30  C   UNL     1      48.105   7.625  18.433  0.00  0.00    +0.000 A 
ATOM     31  O   UNL     1      48.097   8.498  17.570  0.00  0.00    +0.000 OA
ATOM     32  C   UNL     1      48.278   6.216  18.125  0.00  0.00    +0.000 A 
ENDBRANCH  19  22
ENDBRANCH   2  18
TORSDOF 5
ENDMDL
MODEL 2
REMARK VINA RESULT:    -8.146      3.421      4.330
REMARK INTER + INTRA:         -11.290
REMARK INTER:                 -10.206
REMARK INTRA:                  -1.084
REMARK UNBOUND:                -0.764
REMARK  Name = 
REMARK  7 active torsions:
REMARK  status: ('A' for Active; 'I' for Inactive)
REMARK    1  A    between atoms: C_1  and  C_2
REMARK    2  A    between atoms: C_2  and  N_3
REMARK    3  A    between atoms: C_2  and  C_17
REMARK    4  A    between atoms: C_4  and  C_6
REMARK    5  A    between atoms: N_12  and  C_13
REMARK    6  A    between atoms: C_20  and  C_21
REMARK    7  A    between atoms: C_21  and  N_22
REMARK                            x       y       z     vdW  Elec       q    Type
REMARK                         _______ _______ _______ _____ _____    ______ ____
ROOT
ATOM      1  C   UNL     1      46.902   4.529  14.770  0.00  0.00    +0.000 C 
ATOM      2  C   UNL     1      46.530   5.611  13.750  0.00  0.00    +0.000 C 
ENDROOT
BRANCH   2   3
ATOM      3  C   UNL     1      45.881   4.984  12.522  0.00  0.00    +0.000 A 
ATOM      4  C   UNL     1      45.459   3.659  12.560  0.00  0.00    +0.000 A 
ATOM      5  N   UNL     1      44.940   3.013  11.487  0.00  0.00    +0.000 NA
ATOM      6  C   UNL     1      44.836   3.744  10.347  0.00  0.00    +0.000 A 
ATOM      7  C   UNL     1      45.220   5.080  10.314  0.00  0.00    +0.000 A 
ATOM      8  N   UNL     1      45.758   5.721  11.380  0.00  0.00    +0.000 NA
BRANCH   6   9
ATOM      9  C   UNL     1      44.328   3.059   9.097  0.00  0.00    +0.000 C 
BRANCH   9  10
ATOM     10  N   UNL     1      44.920   3.629   7.887  0.00  0.00    +0.000 N 
ATOM     11  C   UNL     1      45.982   2.871   7.364  0.00  0.00    +0.000 A 
ATOM     12  C   UNL     1      46.586   3.304   6.199  0.00  0.00    +0.000 A 
ATOM     13  C   UNL     1      47.614   2.531   5.708  0.00  0.00    +0.000 A 
ATOM     14  N   UNL     1      48.038   1.402   6.298  0.00  0.00    +0.000 NA
ATOM     15  C   UNL     1      47.377   1.057   7.408  0.00  0.00    +0.000 A 
ATOM     16  N   UNL     1      46.365   1.737   7.972  0.00  0.00    +0.000 NA
ATOM     17  H   UNL     1      45.203   4.596   7.998  0.00  0.00    +0.000 HD
ENDBRANCH   9  10
ENDBRANCH   6   9
ENDBRANCH   2   3
BRANCH   2  18
ATOM     18  N   UNL     1      47.718   6.363  13.382  0.00  0.00    +0.000 N 
ATOM     19  C   UNL     1      47.800   7.726  13.427  0.00  0.00    +0.000 C 
ATOM     20  O   UNL     1      46.825   8.440  13.644  0.00  0.00    +0.000 OA
ATOM     21  H   UNL     1      48.559   5.803  13.295  0.00  0.00    +0.000 HD
BRANCH  19  22
ATOM     22  C   UNL     1      49.125   8.292  13.150  0.00  0.00    +0.000 A 
ATOM     23  C   UNL     1      49.306   9.179  12.098  0.00  0.00    +0.000 A 
ATOM     24  S   UNL     1      50.917   9.722  11.941  0.00  0.00    +0.000 S 
ATOM     25  C   UNL     1      51.414   8.819  13.296  0.00  0.00    +0.000 A 
ATOM     26  N   UNL     1      52.699   8.859  13.733  0.00  0.00    +0.000 NA
ATOM     27  C   UNL     1      52.929   8.146  14.787  0.00  0.00    +0.000 A 
ATOM     28  N   UNL     1      51.998   7.380  15.456  0.00  0.00    +0.000 N 
ATOM     29  C   UNL     1      52.364   6.606  16.623  0.00  0.00    +0.000 C 
ATOM     30  C   UNL     1      50.677   7.305  15.026  0.00  0.00    +0.000 A 
ATOM     31  O   UNL     1      49.840   6.607  15.591  0.00  0.00    +0.000 OA
ATOM     32  C   UNL     1      50.374   8.100  13.848  0.00  0.00    +0.000 A 
ENDBRANCH  19  22
ENDBRANCH   2  18
TORSDOF 5
ENDMDL
MODEL 3
REMARK VINA RESULT:    -7.546      1.740      2.454
REMARK INTER + INTRA:         -10.515
REMARK INTER:                  -9.804
REMARK INTRA:                  -0.711
REMARK UNBOUND:                -0.764
REMARK  Name = 
REMARK  7 active torsions:
REMARK  status: ('A' for Active; 'I' for Inactive)
REMARK    1  A    between atoms: C_1  and  C_2
REMARK    2  A    between atoms: C_2  and  N_3
REMARK    3  A    between atoms: C_2  and  C_17
REMARK    4  A    between atoms: C_4  and  C_6
REMARK    5  A    between atoms: N_12  and  C_13
REMARK    6  A    between atoms: C_20  and  C_21
REMARK    7  A    between atoms: C_21  and  N_22
REMARK                            x       y       z     vdW  Elec       q    Type
REMARK                         _______ _______ _______ _____ _____    ______ ____
ROOT
ATOM      1  C   UNL     1      46.999   9.014  12.630  0.00  0.00    +0.000 C 
ATOM      2  C   UNL     1      47.424   7.562  12.874  0.00  0.00    +0.000 C 
ENDROOT
BRANCH   2   3
ATOM      3  C   UNL     1      46.330   6.604  12.419  0.00  0.00    +0.000 A 
ATOM      4  C   UNL     1      46.455   5.240  12.663  0.00  0.00    +0.000 A 
ATOM      5  N   UNL     1      45.560   4.321  12.226  0.00  0.00    +0.000 NA
ATOM      6  C   UNL     1      44.498   4.809  11.533  0.00  0.00    +0.000 A 
ATOM      7  C   UNL     1      44.348   6.175  11.321  0.00  0.00    +0.000 A 
ATOM      8  N   UNL     1      45.253   7.093  11.739  0.00  0.00    +0.000 NA
BRANCH   6   9
ATOM      9  C   UNL     1      43.500   3.827  10.961  0.00  0.00    +0.000 C 
BRANCH   9  10
ATOM     10  N   UNL     1      44.144   2.585  10.533  0.00  0.00    +0.000 N 
ATOM     11  C   UNL     1      44.888   2.712   9.347  0.00  0.00    +0.000 A 
ATOM     12  C   UNL     1      45.568   1.605   8.876  0.00  0.00    +0.000 A 
ATOM     13  C   UNL     1      46.297   1.768   7.720  0.00  0.00    +0.000 A 
ATOM     14  N   UNL     1      46.374   2.930   7.051  0.00  0.00    +0.000 NA
ATOM     15  C   UNL     1      45.698   3.947   7.598  0.00  0.00    +0.000 A 
ATOM     16  N   UNL     1      44.957   3.897   8.717  0.00  0.00    +0.000 NA
ATOM     17  H   UNL     1      43.500   1.806  10.459  0.00  0.00    +0.000 HD
ENDBRANCH   9  10
ENDBRANCH   6   9
ENDBRANCH   2   3
BRANCH   2  18
ATOM     18  N   UNL     1      47.727   7.373  14.282  0.00  0.00    +0.000 N 
ATOM     19  C   UNL     1      48.979   7.491  14.814  0.00  0.00    +0.000 C 
ATOM     20  O   UNL     1      49.982   7.624  14.119  0.00  0.00    +0.000 OA
ATOM     21  H   UNL     1      46.913   7.361  14.889  0.00  0.00    +0.000 HD
BRANCH  19  22
ATOM     22  C   UNL     1      49.060   7.400  16.276  0.00  0.00    +0.000 A 
ATOM     23  C   UNL     1      49.446   8.500  17.029  0.00  0.00    +0.000 A 
ATOM     24  S   UNL     1      49.480   8.192  18.708  0.00  0.00    +0.000 S 
ATOM     25  C   UNL     1      48.943   6.592  18.484  0.00  0.00    +0.000 A 
ATOM     26  N   UNL     1      48.732   5.768  19.541  0.00  0.00    +0.000 NA
ATOM     27  C   UNL     1      48.300   4.590  19.225  0.00  0.00    +0.000 A 
ATOM     28  N   UNL     1      48.063   4.140  17.943  0.00  0.00    +0.000 N 
ATOM     29  C   UNL     1      47.591   2.794  17.697  0.00  0.00    +0.000 C 
ATOM     30  C   UNL     1      48.284   4.954  16.837  0.00  0.00    +0.000 A 
ATOM     31  O   UNL     1      48.104   4.564  15.687  0.00  0.00    +0.000 OA
ATOM     32  C   UNL     1      48.760   6.290  17.149  0.00  0.00    +0.000 A 
ENDBRANCH  19  22
ENDBRANCH   2  18
TORSDOF 5
ENDMDL
MODEL 4
REMARK VINA RESULT:    -7.353      2.694      4.315
REMARK INTER + INTRA:         -10.266
REMARK INTER:                  -9.275
REMARK INTRA:                  -0.991
REMARK UNBOUND:                -0.764
REMARK  Name = 
REMARK  7 active torsions:
REMARK  status: ('A' for Active; 'I' for Inactive)
REMARK    1  A    between atoms: C_1  and  C_2
REMARK    2  A    between atoms: C_2  and  N_3
REMARK    3  A    between atoms: C_2  and  C_17
REMARK    4  A    between atoms: C_4  and  C_6
REMARK    5  A    between atoms: N_12  and  C_13
REMARK    6  A    between atoms: C_20  and  C_21
REMARK    7  A    between atoms: C_21  and  N_22
REMARK                            x       y       z     vdW  Elec       q    Type
REMARK                         _______ _______ _______ _____ _____    ______ ____
ROOT
ATOM      1  C   UNL     1      47.499   3.698  16.119  0.00  0.00    +0.000 C 
ATOM      2  C   UNL     1      47.135   4.949  15.311  0.00  0.00    +0.000 C 
ENDROOT
BRANCH   2   3
ATOM      3  C   UNL     1      46.455   4.560  14.005  0.00  0.00    +0.000 A 
ATOM      4  C   UNL     1      45.830   5.532  13.231  0.00  0.00    +0.000 A 
ATOM      5  N   UNL     1      45.144   5.251  12.096  0.00  0.00    +0.000 NA
ATOM      6  C   UNL     1      45.107   3.942  11.733  0.00  0.00    +0.000 A 
ATOM      7  C   UNL     1      45.764   2.973  12.481  0.00  0.00    +0.000 A 
ATOM      8  N   UNL     1      46.433   3.249  13.627  0.00  0.00    +0.000 NA
BRANCH   6   9
ATOM      9  C   UNL     1      44.300   3.557  10.512  0.00  0.00    +0.000 C 
BRANCH   9  10
ATOM     10  N   UNL     1      44.762   2.296   9.932  0.00  0.00    +0.000 N 
ATOM     11  C   UNL     1      45.575   2.458   8.797  0.00  0.00    +0.000 A 
ATOM     12  C   UNL     1      46.095   1.328   8.195  0.00  0.00    +0.000 A 
ATOM     13  C   UNL     1      46.897   1.524   7.093  0.00  0.00    +0.000 A 
ATOM     14  N   UNL     1      47.190   2.737   6.598  0.00  0.00    +0.000 NA
ATOM     15  C   UNL     1      46.656   3.768   7.262  0.00  0.00    +0.000 A 
ATOM     16  N   UNL     1      45.861   3.689   8.341  0.00  0.00    +0.000 NA
ATOM     17  H   UNL     1      44.008   1.649   9.731  0.00  0.00    +0.000 HD
ENDBRANCH   9  10
ENDBRANCH   6   9
ENDBRANCH   2   3
BRANCH   2  18
ATOM     18  N   UNL     1      48.334   5.731  15.059  0.00  0.00    +0.000 N 
ATOM     19  C   UNL     1      48.968   6.479  16.010  0.00  0.00    +0.000 C 
ATOM     20  O   UNL     1      48.494   6.669  17.126  0.00  0.00    +0.000 OA
ATOM     21  H   UNL     1      48.799   5.516  14.184  0.00  0.00    +0.000 HD
BRANCH  19  22
ATOM     22  C   UNL     1      50.239   7.086  15.598  0.00  0.00    +0.000 A 
ATOM     23  C   UNL     1      51.406   6.822  16.302  0.00  0.00    +0.000 A 
ATOM     24  S   UNL     1      52.774   7.623  15.667  0.00  0.00    +0.000 S 
ATOM     25  C   UNL     1      51.857   8.315  14.410  0.00  0.00    +0.000 A 
ATOM     26  N   UNL     1      52.437   9.108  13.473  0.00  0.00    +0.000 NA
ATOM     27  C   UNL     1      51.627   9.542  12.563  0.00  0.00    +0.000 A 
ATOM     28  N   UNL     1      50.277   9.271  12.495  0.00  0.00    +0.000 N 
ATOM     29  C   UNL     1      49.455   9.821  11.439  0.00  0.00    +0.000 C 
ATOM     30  C   UNL     1      49.649   8.475  13.448  0.00  0.00    +0.000 A 
ATOM     31  O   UNL     1      48.443   8.244  13.421  0.00  0.00    +0.000 OA
ATOM     32  C   UNL     1      50.526   7.958  14.484  0.00  0.00    +0.000 A 
ENDBRANCH  19  22
ENDBRANCH   2  18
TORSDOF 5
ENDMDL
MODEL 5
REMARK VINA RESULT:    -7.035      2.773      9.797
REMARK INTER + INTRA:          -9.855
REMARK INTER:                  -9.030
REMARK INTRA:                  -0.825
REMARK UNBOUND:                -0.764
REMARK  Name = 
REMARK  7 active torsions:
REMARK  status: ('A' for Active; 'I' for Inactive)
REMARK    1  A    between atoms: C_1  and  C_2
REMARK    2  A    between atoms: C_2  and  N_3
REMARK    3  A    between atoms: C_2  and  C_17
REMARK    4  A    between atoms: C_4  and  C_6
REMARK    5  A    between atoms: N_12  and  C_13
REMARK    6  A    between atoms: C_20  and  C_21
REMARK    7  A    between atoms: C_21  and  N_22
REMARK                            x       y       z     vdW  Elec       q    Type
REMARK                         _______ _______ _______ _____ _____    ______ ____
ROOT
ATOM      1  C   UNL     1      48.827   7.718  11.389  0.00  0.00    +0.000 C 
ATOM      2  C   UNL     1      47.705   7.758  12.432  0.00  0.00    +0.000 C 
ENDROOT
BRANCH   2   3
ATOM      3  C   UNL     1      48.289   7.833  13.838  0.00  0.00    +0.000 A 
ATOM      4  C   UNL     1      47.946   8.889  14.677  0.00  0.00    +0.000 A 
ATOM      5  N   UNL     1      48.479   9.061  15.910  0.00  0.00    +0.000 NA
ATOM      6  C   UNL     1      49.377   8.122  16.306  0.00  0.00    +0.000 A 
ATOM      7  C   UNL     1      49.693   7.044  15.488  0.00  0.00    +0.000 A 
ATOM      8  N   UNL     1      49.176   6.881  14.246  0.00  0.00    +0.000 NA
BRANCH   6   9
ATOM      9  C   UNL     1      50.057   8.297  17.646  0.00  0.00    +0.000 C 
BRANCH   9  10
ATOM     10  N   UNL     1      49.088   8.428  18.734  0.00  0.00    +0.000 N 
ATOM     11  C   UNL     1      48.835   7.225  19.416  0.00  0.00    +0.000 A 
ATOM     12  C   UNL     1      47.961   7.248  20.486  0.00  0.00    +0.000 A 
ATOM     13  C   UNL     1      47.746   6.055  21.139  0.00  0.00    +0.000 A 
ATOM     14  N   UNL     1      48.340   4.902  20.789  0.00  0.00    +0.000 NA
ATOM     15  C   UNL     1      49.184   4.988  19.754  0.00  0.00    +0.000 A 
ATOM     16  N   UNL     1      49.463   6.096  19.048  0.00  0.00    +0.000 NA
ATOM     17  H   UNL     1      48.215   8.853  18.442  0.00  0.00    +0.000 HD
ENDBRANCH   9  10
ENDBRANCH   6   9
ENDBRANCH   2   3
BRANCH   2  18
ATOM     18  N   UNL     1      46.861   6.585  12.284  0.00  0.00    +0.000 N 
ATOM     19  C   UNL     1      45.624   6.606  11.703  0.00  0.00    +0.000 C 
ATOM     20  O   UNL     1      45.060   7.650  11.388  0.00  0.00    +0.000 OA
ATOM     21  H   UNL     1      47.335   5.702  12.443  0.00  0.00    +0.000 HD
BRANCH  19  22
ATOM     22  C   UNL     1      44.985   5.298  11.521  0.00  0.00    +0.000 A 
ATOM     23  C   UNL     1      44.198   4.753  12.526  0.00  0.00    +0.000 A 
ATOM     24  S   UNL     1      43.547   3.227  12.123  0.00  0.00    +0.000 S 
ATOM     25  C   UNL     1      44.264   3.265  10.579  0.00  0.00    +0.000 A 
ATOM     26  N   UNL     1      44.078   2.253   9.694  0.00  0.00    +0.000 NA
ATOM     27  C   UNL     1      44.659   2.427   8.551  0.00  0.00    +0.000 A 
ATOM     28  N   UNL     1      45.425   3.518   8.199  0.00  0.00    +0.000 N 
ATOM     29  C   UNL     1      46.044   3.608   6.894  0.00  0.00    +0.000 C 
ATOM     30  C   UNL     1      45.648   4.565   9.088  0.00  0.00    +0.000 A 
ATOM     31  O   UNL     1      46.350   5.531   8.803  0.00  0.00    +0.000 OA
ATOM     32  C   UNL     1      45.004   4.413  10.381  0.00  0.00    +0.000 A 
ENDBRANCH  19  22
ENDBRANCH   2  18
TORSDOF 5
ENDMDL
MODEL 6
REMARK VINA RESULT:    -6.837      3.036      3.987
REMARK INTER + INTRA:          -9.599
REMARK INTER:                  -8.710
REMARK INTRA:                  -0.890
REMARK UNBOUND:                -0.764
REMARK  Name = 
REMARK  7 active torsions:
REMARK  status: ('A' for Active; 'I' for Inactive)
REMARK    1  A    between atoms: C_1  and  C_2
REMARK    2  A    between atoms: C_2  and  N_3
REMARK    3  A    between atoms: C_2  and  C_17
REMARK    4  A    between atoms: C_4  and  C_6
REMARK    5  A    between atoms: N_12  and  C_13
REMARK    6  A    between atoms: C_20  and  C_21
REMARK    7  A    between atoms: C_21  and  N_22
REMARK                            x       y       z     vdW  Elec       q    Type
REMARK                         _______ _______ _______ _____ _____    ______ ____
ROOT
ATOM      1  C   UNL     1      47.505   3.533  16.292  0.00  0.00    +0.000 C 
ATOM      2  C   UNL     1      47.194   4.832  15.538  0.00  0.00    +0.000 C 
ENDROOT
BRANCH   2   3
ATOM      3  C   UNL     1      46.560   4.524  14.188  0.00  0.00    +0.000 A 
ATOM      4  C   UNL     1      45.918   5.532  13.476  0.00  0.00    +0.000 A 
ATOM      5  N   UNL     1      45.270   5.318  12.305  0.00  0.00    +0.000 NA
ATOM      6  C   UNL     1      45.290   4.043  11.839  0.00  0.00    +0.000 A 
ATOM      7  C   UNL     1      45.964   3.040  12.526  0.00  0.00    +0.000 A 
ATOM      8  N   UNL     1      46.595   3.247  13.708  0.00  0.00    +0.000 NA
BRANCH   6   9
ATOM      9  C   UNL     1      44.528   3.728  10.570  0.00  0.00    +0.000 C 
BRANCH   9  10
ATOM     10  N   UNL     1      44.912   2.431  10.014  0.00  0.00    +0.000 N 
ATOM     11  C   UNL     1      45.635   2.520   8.812  0.00  0.00    +0.000 A 
ATOM     12  C   UNL     1      46.078   1.352   8.223  0.00  0.00    +0.000 A 
ATOM     13  C   UNL     1      46.794   1.477   7.054  0.00  0.00    +0.000 A 
ATOM     14  N   UNL     1      47.075   2.659   6.482  0.00  0.00    +0.000 NA
ATOM     15  C   UNL     1      46.620   3.732   7.138  0.00  0.00    +0.000 A 
ATOM     16  N   UNL     1      45.912   3.722   8.280  0.00  0.00    +0.000 NA
ATOM     17  H   UNL     1      44.129   1.796   9.903  0.00  0.00    +0.000 HD
ENDBRANCH   9  10
ENDBRANCH   6   9
ENDBRANCH   2   3
BRANCH   2  18
ATOM     18  N   UNL     1      48.413   5.604  15.375  0.00  0.00    +0.000 N 
ATOM     19  C   UNL     1      48.859   6.524  16.282  0.00  0.00    +0.000 C 
ATOM     20  O   UNL     1      48.187   6.881  17.245  0.00  0.00    +0.000 OA
ATOM     21  H   UNL     1      49.033   5.263  14.648  0.00  0.00    +0.000 HD
BRANCH  19  22
ATOM     22  C   UNL     1      50.180   7.099  16.006  0.00  0.00    +0.000 A 
ATOM     23  C   UNL     1      50.294   8.330  15.376  0.00  0.00    +0.000 A 
ATOM     24  S   UNL     1      51.912   8.824  15.145  0.00  0.00    +0.000 S 
ATOM     25  C   UNL     1      52.509   7.427  15.915  0.00  0.00    +0.000 A 
ATOM     26  N   UNL     1      53.842   7.233  16.081  0.00  0.00    +0.000 NA
ATOM     27  C   UNL     1      54.151   6.143  16.706  0.00  0.00    +0.000 A 
ATOM     28  N   UNL     1      53.254   5.209  17.180  0.00  0.00    +0.000 N 
ATOM     29  C   UNL     1      53.707   4.013  17.856  0.00  0.00    +0.000 C 
ATOM     30  C   UNL     1      51.883   5.371  17.013  0.00  0.00    +0.000 A 
ATOM     31  O   UNL     1      51.070   4.538  17.404  0.00  0.00    +0.000 OA
ATOM     32  C   UNL     1      51.492   6.588  16.324  0.00  0.00    +0.000 A 
ENDBRANCH  19  22
ENDBRANCH   2  18
TORSDOF 5
ENDMDL
MODEL 7
REMARK VINA RESULT:    -6.742      3.703      5.665
REMARK INTER + INTRA:          -9.477
REMARK INTER:                  -9.094
REMARK INTRA:                  -0.383
REMARK UNBOUND:                -0.764
REMARK  Name = 
REMARK  7 active torsions:
REMARK  status: ('A' for Active; 'I' for Inactive)
REMARK    1  A    between atoms: C_1  and  C_2
REMARK    2  A    between atoms: C_2  and  N_3
REMARK    3  A    between atoms: C_2  and  C_17
REMARK    4  A    between atoms: C_4  and  C_6
REMARK    5  A    between atoms: N_12  and  C_13
REMARK    6  A    between atoms: C_20  and  C_21
REMARK    7  A    between atoms: C_21  and  N_22
REMARK                            x       y       z     vdW  Elec       q    Type
REMARK                         _______ _______ _______ _____ _____    ______ ____
ROOT
ATOM      1  C   UNL     1      47.145   2.372  17.978  0.00  0.00    +0.000 C 
ATOM      2  C   UNL     1      48.088   3.575  17.868  0.00  0.00    +0.000 C 
ENDROOT
BRANCH   2   3
ATOM      3  C   UNL     1      47.931   4.251  16.511  0.00  0.00    +0.000 A 
ATOM      4  C   UNL     1      48.548   5.474  16.268  0.00  0.00    +0.000 A 
ATOM      5  N   UNL     1      48.395   6.168  15.114  0.00  0.00    +0.000 NA
ATOM      6  C   UNL     1      47.601   5.591  14.175  0.00  0.00    +0.000 A 
ATOM      7  C   UNL     1      47.014   4.350  14.397  0.00  0.00    +0.000 A 
ATOM      8  N   UNL     1      47.150   3.664  15.559  0.00  0.00    +0.000 NA
BRANCH   6   9
ATOM      9  C   UNL     1      47.337   6.349  12.892  0.00  0.00    +0.000 C 
BRANCH   9  10
ATOM     10  N   UNL     1      45.973   6.875  12.844  0.00  0.00    +0.000 N 
ATOM     11  C   UNL     1      45.126   6.175  11.967  0.00  0.00    +0.000 A 
ATOM     12  C   UNL     1      43.805   6.569  11.875  0.00  0.00    +0.000 A 
ATOM     13  C   UNL     1      43.001   5.854  11.017  0.00  0.00    +0.000 A 
ATOM     14  N   UNL     1      43.437   4.814  10.288  0.00  0.00    +0.000 NA
ATOM     15  C   UNL     1      44.725   4.498  10.462  0.00  0.00    +0.000 A 
ATOM     16  N   UNL     1      45.595   5.127  11.268  0.00  0.00    +0.000 NA
ATOM     17  H   UNL     1      45.935   7.868  12.646  0.00  0.00    +0.000 HD
ENDBRANCH   9  10
ENDBRANCH   6   9
ENDBRANCH   2   3
BRANCH   2  18
ATOM     18  N   UNL     1      49.459   3.141  18.074  0.00  0.00    +0.000 N 
ATOM     19  C   UNL     1      50.143   2.339  17.204  0.00  0.00    +0.000 C 
ATOM     20  O   UNL     1      49.605   1.799  16.242  0.00  0.00    +0.000 OA
ATOM     21  H   UNL     1      49.956   3.646  18.800  0.00  0.00    +0.000 HD
BRANCH  19  22
ATOM     22  C   UNL     1      51.560   2.124  17.518  0.00  0.00    +0.000 A 
ATOM     23  C   UNL     1      52.073   0.837  17.608  0.00  0.00    +0.000 A 
ATOM     24  S   UNL     1      53.738   0.798  17.984  0.00  0.00    +0.000 S 
ATOM     25  C   UNL     1      53.833   2.498  17.998  0.00  0.00    +0.000 A 
ATOM     26  N   UNL     1      55.010   3.133  18.233  0.00  0.00    +0.000 NA
ATOM     27  C   UNL     1      54.941   4.424  18.187  0.00  0.00    +0.000 A 
ATOM     28  N   UNL     1      53.800   5.158  17.937  0.00  0.00    +0.000 N 
ATOM     29  C   UNL     1      53.829   6.604  17.922  0.00  0.00    +0.000 C 
ATOM     30  C   UNL     1      52.576   4.539  17.708  0.00  0.00    +0.000 A 
ATOM     31  O   UNL     1      51.544   5.174  17.511  0.00  0.00    +0.000 OA
ATOM     32  C   UNL     1      52.612   3.087  17.741  0.00  0.00    +0.000 A 
ENDBRANCH  19  22
ENDBRANCH   2  18
TORSDOF 5
ENDMDL
MODEL 8
REMARK VINA RESULT:    -6.717      4.633      8.190
REMARK INTER + INTRA:          -9.444
REMARK INTER:                  -9.373
REMARK INTRA:                  -0.071
REMARK UNBOUND:                -0.764
REMARK  Name = 
REMARK  7 active torsions:
REMARK  status: ('A' for Active; 'I' for Inactive)
REMARK    1  A    between atoms: C_1  and  C_2
REMARK    2  A    between atoms: C_2  and  N_3
REMARK    3  A    between atoms: C_2  and  C_17
REMARK    4  A    between atoms: C_4  and  C_6
REMARK    5  A    between atoms: N_12  and  C_13
REMARK    6  A    between atoms: C_20  and  C_21
REMARK    7  A    between atoms: C_21  and  N_22
REMARK                            x       y       z     vdW  Elec       q    Type
REMARK                         _______ _______ _______ _____ _____    ______ ____
ROOT
ATOM      1  C   UNL     1      45.320   9.287  12.639  0.00  0.00    +0.000 C 
ATOM      2  C   UNL     1      46.254   8.169  13.117  0.00  0.00    +0.000 C 
ENDROOT
BRANCH   2   3
ATOM      3  C   UNL     1      47.629   8.314  12.475  0.00  0.00    +0.000 A 
ATOM      4  C   UNL     1      48.445   7.198  12.321  0.00  0.00    +0.000 A 
ATOM      5  N   UNL     1      49.705   7.261  11.826  0.00  0.00    +0.000 NA
ATOM      6  C   UNL     1      50.140   8.495  11.465  0.00  0.00    +0.000 A 
ATOM      7  C   UNL     1      49.314   9.608  11.579  0.00  0.00    +0.000 A 
ATOM      8  N   UNL     1      48.061   9.550  12.093  0.00  0.00    +0.000 NA
BRANCH   6   9
ATOM      9  C   UNL     1      51.562   8.640  10.968  0.00  0.00    +0.000 C 
BRANCH   9  10
ATOM     10  N   UNL     1      52.314   7.392  11.105  0.00  0.00    +0.000 N 
ATOM     11  C   UNL     1      52.836   6.910   9.892  0.00  0.00    +0.000 A 
ATOM     12  C   UNL     1      53.594   5.755   9.917  0.00  0.00    +0.000 A 
ATOM     13  C   UNL     1      54.101   5.318   8.714  0.00  0.00    +0.000 A 
ATOM     14  N   UNL     1      53.896   5.955   7.550  0.00  0.00    +0.000 NA
ATOM     15  C   UNL     1      53.167   7.073   7.633  0.00  0.00    +0.000 A 
ATOM     16  N   UNL     1      52.625   7.585   8.750  0.00  0.00    +0.000 NA
ATOM     17  H   UNL     1      51.792   6.661  11.575  0.00  0.00    +0.000 HD
ENDBRANCH   9  10
ENDBRANCH   6   9
ENDBRANCH   2   3
BRANCH   2  18
ATOM     18  N   UNL     1      45.669   6.877  12.802  0.00  0.00    +0.000 N 
ATOM     19  C   UNL     1      44.922   6.632  11.685  0.00  0.00    +0.000 C 
ATOM     20  O   UNL     1      44.561   7.524  10.923  0.00  0.00    +0.000 OA
ATOM     21  H   UNL     1      46.029   6.106  13.355  0.00  0.00    +0.000 HD
BRANCH  19  22
ATOM     22  C   UNL     1      44.535   5.233  11.473  0.00  0.00    +0.000 A 
ATOM     23  C   UNL     1      43.728   4.579  12.394  0.00  0.00    +0.000 A 
ATOM     24  S   UNL     1      43.393   2.959  11.969  0.00  0.00    +0.000 S 
ATOM     25  C   UNL     1      44.283   3.094  10.524  0.00  0.00    +0.000 A 
ATOM     26  N   UNL     1      44.378   2.052   9.659  0.00  0.00    +0.000 NA
ATOM     27  C   UNL     1      45.062   2.303   8.590  0.00  0.00    +0.000 A 
ATOM     28  N   UNL     1      45.677   3.502   8.295  0.00  0.00    +0.000 N 
ATOM     29  C   UNL     1      46.432   3.675   7.073  0.00  0.00    +0.000 C 
ATOM     30  C   UNL     1      45.611   4.584   9.166  0.00  0.00    +0.000 A 
ATOM     31  O   UNL     1      46.174   5.651   8.934  0.00  0.00    +0.000 OA
ATOM     32  C   UNL     1      44.843   4.347  10.376  0.00  0.00    +0.000 A 
ENDBRANCH  19  22
ENDBRANCH   2  18
TORSDOF 5
ENDMDL
MODEL 9
REMARK VINA RESULT:    -6.294      4.000      5.909
REMARK INTER + INTRA:          -8.898
REMARK INTER:                  -7.750
REMARK INTRA:                  -1.148
REMARK UNBOUND:                -0.764
REMARK  Name = 
REMARK  7 active torsions:
REMARK  status: ('A' for Active; 'I' for Inactive)
REMARK    1  A    between atoms: C_1  and  C_2
REMARK    2  A    between atoms: C_2  and  N_3
REMARK    3  A    between atoms: C_2  and  C_17
REMARK    4  A    between atoms: C_4  and  C_6
REMARK    5  A    between atoms: N_12  and  C_13
REMARK    6  A    between atoms: C_20  and  C_21
REMARK    7  A    between atoms: C_21  and  N_22
REMARK                            x       y       z     vdW  Elec       q    Type
REMARK                         _______ _______ _______ _____ _____    ______ ____
ROOT
ATOM      1  C   UNL     1      48.440   5.887  15.807  0.00  0.00    +0.000 C 
ATOM      2  C   UNL     1      48.279   6.915  14.681  0.00  0.00    +0.000 C 
ENDROOT
BRANCH   2   3
ATOM      3  C   UNL     1      47.447   6.333  13.545  0.00  0.00    +0.000 A 
ATOM      4  C   UNL     1      47.368   7.002  12.328  0.00  0.00    +0.000 A 
ATOM      5  N   UNL     1      46.592   6.584  11.299  0.00  0.00    +0.000 NA
ATOM      6  C   UNL     1      45.889   5.441  11.511  0.00  0.00    +0.000 A 
ATOM      7  C   UNL     1      45.995   4.747  12.710  0.00  0.00    +0.000 A 
ATOM      8  N   UNL     1      46.755   5.175  13.749  0.00  0.00    +0.000 NA
BRANCH   6   9
ATOM      9  C   UNL     1      44.953   4.960  10.424  0.00  0.00    +0.000 C 
BRANCH   9  10
ATOM     10  N   UNL     1      45.541   5.118   9.093  0.00  0.00    +0.000 N 
ATOM     11  C   UNL     1      45.873   3.902   8.472  0.00  0.00    +0.000 A 
ATOM     12  C   UNL     1      46.401   3.939   7.196  0.00  0.00    +0.000 A 
ATOM     13  C   UNL     1      46.704   2.728   6.613  0.00  0.00    +0.000 A 
ATOM     14  N   UNL     1      46.507   1.546   7.218  0.00  0.00    +0.000 NA
ATOM     15  C   UNL     1      45.973   1.615   8.443  0.00  0.00    +0.000 A 
ATOM     16  N   UNL     1      45.644   2.737   9.102  0.00  0.00    +0.000 NA
ATOM     17  H   UNL     1      46.337   5.745   9.080  0.00  0.00    +0.000 HD
ENDBRANCH   9  10
ENDBRANCH   6   9
ENDBRANCH   2   3
BRANCH   2  18
ATOM     18  N   UNL     1      49.589   7.327  14.207  0.00  0.00    +0.000 N 
ATOM     19  C   UNL     1      49.989   8.629  14.114  0.00  0.00    +0.000 C 
ATOM     20  O   UNL     1      49.221   9.571  14.287  0.00  0.00    +0.000 OA
ATOM     21  H   UNL     1      50.271   6.578  14.152  0.00  0.00    +0.000 HD
BRANCH  19  22
ATOM     22  C   UNL     1      51.394   8.838  13.745  0.00  0.00    +0.000 A 
ATOM     23  C   UNL     1      52.286   9.390  14.653  0.00  0.00    +0.000 A 
ATOM     24  S   UNL     1      53.869   9.552  14.033  0.00  0.00    +0.000 S 
ATOM     25  C   UNL     1      53.420   8.855  12.546  0.00  0.00    +0.000 A 
ATOM     26  N   UNL     1      54.329   8.669  11.556  0.00  0.00    +0.000 NA
ATOM     27  C   UNL     1      53.855   8.105  10.492  0.00  0.00    +0.000 A 
ATOM     28  N   UNL     1      52.547   7.709  10.310  0.00  0.00    +0.000 N 
ATOM     29  C   UNL     1      52.116   7.096   9.072  0.00  0.00    +0.000 C 
ATOM     30  C   UNL     1      51.587   7.898  11.299  0.00  0.00    +0.000 A 
ATOM     31  O   UNL     1      50.412   7.578  11.145  0.00  0.00    +0.000 OA
ATOM     32  C   UNL     1      52.081   8.521  12.515  0.00  0.00    +0.000 A 
ENDBRANCH  19  22
ENDBRANCH   2  18
TORSDOF 5
ENDMDL
