MODEL 1
REMARK VINA RESULT:    -7.466      0.000      0.000
REMARK INTER + INTRA:         -12.523
REMARK INTER:                 -11.394
REMARK INTRA:                  -1.130
REMARK UNBOUND:                -1.130
REMARK  Name = 
REMARK  10 active torsions:
REMARK  status: ('A' for Active; 'I' for Inactive)
REMARK    1  A    between atoms: N_1  and  C_2
REMARK    2  A    between atoms: C_2  and  C_3
REMARK    3  A    between atoms: C_2  and  C_20
REMARK    4  A    between atoms: C_3  and  C_4
REMARK    5  A    between atoms: C_7  and  C_8
REMARK    6  A    between atoms: C_8  and  N_9
REMARK    7  A    between atoms: N_9  and  CA_10
REMARK    8  A    between atoms: CA_10  and  C_11
REMARK    9  A    between atoms: CA_10  and  C_13
REMARK   10  A    between atoms: C_11  and  O_12
REMARK                            x       y       z     vdW  Elec       q    Type
REMARK                         _______ _______ _______ _____ _____    ______ ____
ROOT
ATOM      1  C   UNL     1      46.789   4.717  14.175  0.00  0.00    +0.000 A 
ATOM      2  C   UNL     1      46.894   3.378  13.778  0.00  0.00    +0.000 A 
ATOM      3  C   UNL     1      46.038   2.854  12.807  0.00  0.00    +0.000 A 
ATOM      4  C   UNL     1      45.044   3.652  12.224  0.00  0.00    +0.000 A 
ATOM      5  C   UNL     1      44.938   4.992  12.623  0.00  0.00    +0.000 A 
ATOM      6  C   UNL     1      45.807   5.521  13.584  0.00  0.00    +0.000 A 
ENDROOT
BRANCH   1   7
ATOM      7  C   UNL     1      47.734   5.280  15.214  0.00  0.00    +0.000 C 
BRANCH   7   8
ATOM      8  C   UNL     1      47.825   4.441  16.512  0.00  0.00    +0.000 C 
BRANCH   8   9
ATOM      9  C   UNL     1      49.189   4.568  17.165  0.00  0.00    +0.000 A 
ATOM     10  C   UNL     1      49.709   5.704  17.768  0.00  0.00    +0.000 A 
ATOM     11  S   UNL     1      51.251   5.463  18.464  0.00  0.00    +0.000 S 
ATOM     12  C   UNL     1      51.283   3.835  17.967  0.00  0.00    +0.000 A 
ATOM     13  N   UNL     1      52.328   3.023  18.273  0.00  0.00    +0.000 NA
ATOM     14  C   UNL     1      52.200   1.814  17.833  0.00  0.00    +0.000 A 
ATOM     15  N   UNL     1      51.140   1.349  17.101  0.00  0.00    +0.000 N 
ATOM     16  C   UNL     1      50.085   2.148  16.724  0.00  0.00    +0.000 A 
ATOM     17  O   UNL     1      49.194   1.736  15.983  0.00  0.00    +0.000 OA
ATOM     18  C   UNL     1      50.151   3.498  17.252  0.00  0.00    +0.000 A 
ATOM     19  H   UNL     1      51.125   0.402  16.754  0.00  0.00    +0.000 HD
ENDBRANCH   8   9
BRANCH   8  20
ATOM     20  N   UNL     1      46.808   4.805  17.512  0.00  0.00    +0.000 NA
ATOM     21  H   UNL     1      45.957   5.065  17.013  0.00  0.00    +0.000 HD
ATOM     22  H   UNL     1      47.105   5.649  17.995  0.00  0.00    +0.000 HD
ENDBRANCH   8  20
ENDBRANCH   7   8
ENDBRANCH   1   7
BRANCH   4  23
ATOM     23  C   UNL     1      44.137   3.085  11.154  0.00  0.00    +0.000 C 
BRANCH  23  24
ATOM     24  N   UNL     1      44.912   2.450  10.084  0.00  0.00    +0.000 NA
ATOM     25  H   UNL     1      44.647   1.463  10.054  0.00  0.00    +0.000 HD
BRANCH  24  26
ATOM     26  CA  UNL     1      44.638   3.030   8.745  0.00  0.00    +0.000 C 
BRANCH  26  27
ATOM     27  C   UNL     1      45.738   2.708   7.736  0.00  0.00    +0.000 A 
ATOM     28  N   UNL     1      46.078   3.517   6.750  0.00  0.00    +0.000 NA
ATOM     29  C   UNL     1      47.154   2.993   6.059  0.00  0.00    +0.000 A 
ATOM     30  C   UNL     1      47.601   1.765   6.495  0.00  0.00    +0.000 A 
ATOM     31  S   UNL     1      46.668   1.254   7.834  0.00  0.00    +0.000 S 
ENDBRANCH  26  27
BRANCH  26  32
ATOM     32  C   UNL     1      44.440   4.567   8.787  0.00  0.00    +0.000 C 
BRANCH  32  33
ATOM     33  O   UNL     1      45.681   5.271   8.892  0.00  0.00    +0.000 OA
ATOM     34  H   UNL     1      46.235   4.748   9.504  0.00  0.00    +0.000 HD
ENDBRANCH  32  33
ENDBRANCH  26  32
ENDBRANCH  24  26
ENDBRANCH  23  24
ENDBRANCH   4  23
TORSDOF 10
ENDMDL
MODEL 2
REMARK VINA RESULT:    -6.946      2.061      8.943
REMARK INTER + INTRA:         -11.731
REMARK INTER:                 -11.279
REMARK INTRA:                  -0.452
REMARK UNBOUND:                -1.130
REMARK  Name = 
REMARK  10 active torsions:
REMARK  status: ('A' for Active; 'I' for Inactive)
REMARK    1  A    between atoms: N_1  and  C_2
REMARK    2  A    between atoms: C_2  and  C_3
REMARK    3  A    between atoms: C_2  and  C_20
REMARK    4  A    between atoms: C_3  and  C_4
REMARK    5  A    between atoms: C_7  and  C_8
REMARK    6  A    between atoms: C_8  and  N_9
REMARK    7  A    between atoms: N_9  and  CA_10
REMARK    8  A    between atoms: CA_10  and  C_11
REMARK    9  A    between atoms: CA_10  and  C_13
REMARK   10  A    between atoms: C_11  and  O_12
REMARK                            x       y       z     vdW  Elec       q    Type
REMARK                         _______ _______ _______ _____ _____    ______ ____
ROOT
ATOM      1  C   UNL     1      47.269   6.389  12.903  0.00  0.00    +0.000 A 
ATOM      2  C   UNL     1      48.029   7.339  13.598  0.00  0.00    +0.000 A 
ATOM      3  C   UNL     1      48.530   7.056  14.870  0.00  0.00    +0.000 A 
ATOM      4  C   UNL     1      48.266   5.825  15.486  0.00  0.00    +0.000 A 
ATOM      5  C   UNL     1      47.504   4.876  14.790  0.00  0.00    +0.000 A 
ATOM      6  C   UNL     1      47.017   5.153  13.508  0.00  0.00    +0.000 A 
ENDROOT
BRANCH   1   7
ATOM      7  C   UNL     1      46.747   6.698  11.516  0.00  0.00    +0.000 C 
BRANCH   7   8
ATOM      8  C   UNL     1      45.204   6.667  11.396  0.00  0.00    +0.000 C 
BRANCH   8   9
ATOM      9  C   UNL     1      44.674   5.245  11.362  0.00  0.00    +0.000 A 
ATOM     10  C   UNL     1      43.979   4.602  12.376  0.00  0.00    +0.000 A 
ATOM     11  S   UNL     1      43.473   3.023  11.962  0.00  0.00    +0.000 S 
ATOM     12  C   UNL     1      44.183   3.139  10.419  0.00  0.00    +0.000 A 
ATOM     13  N   UNL     1      44.090   2.126   9.520  0.00  0.00    +0.000 NA
ATOM     14  C   UNL     1      44.673   2.368   8.391  0.00  0.00    +0.000 A 
ATOM     15  N   UNL     1      45.354   3.517   8.087  0.00  0.00    +0.000 N 
ATOM     16  C   UNL     1      45.518   4.548   8.984  0.00  0.00    +0.000 A 
ATOM     17  O   UNL     1      46.217   5.525   8.724  0.00  0.00    +0.000 OA
ATOM     18  C   UNL     1      44.824   4.350  10.243  0.00  0.00    +0.000 A 
ATOM     19  H   UNL     1      45.821   3.623   7.200  0.00  0.00    +0.000 HD
ENDBRANCH   8   9
BRANCH   8  20
ATOM     20  N   UNL     1      44.522   7.377  12.490  0.00  0.00    +0.000 NA
ATOM     21  H   UNL     1      43.555   7.533  12.207  0.00  0.00    +0.000 HD
ATOM     22  H   UNL     1      44.927   8.304  12.587  0.00  0.00    +0.000 HD
ENDBRANCH   8  20
ENDBRANCH   7   8
ENDBRANCH   1   7
BRANCH   4  23
ATOM     23  C   UNL     1      48.833   5.515  16.854  0.00  0.00    +0.000 C 
BRANCH  23  24
ATOM     24  N   UNL     1      49.982   4.611  16.759  0.00  0.00    +0.000 NA
ATOM     25  H   UNL     1      50.802   5.116  17.101  0.00  0.00    +0.000 HD
BRANCH  24  26
ATOM     26  CA  UNL     1      49.829   3.388  17.588  0.00  0.00    +0.000 C 
BRANCH  26  27
ATOM     27  C   UNL     1      51.133   2.601  17.707  0.00  0.00    +0.000 A 
ATOM     28  N   UNL     1      51.252   1.336  17.349  0.00  0.00    +0.000 NA
ATOM     29  C   UNL     1      52.563   0.926  17.498  0.00  0.00    +0.000 A 
ATOM     30  C   UNL     1      53.428   1.867  18.011  0.00  0.00    +0.000 A 
ATOM     31  S   UNL     1      52.588   3.329  18.293  0.00  0.00    +0.000 S 
ENDBRANCH  26  27
BRANCH  26  32
ATOM     32  C   UNL     1      48.726   2.438  17.056  0.00  0.00    +0.000 C 
BRANCH  32  33
ATOM     33  O   UNL     1      49.027   1.934  15.752  0.00  0.00    +0.000 OA
ATOM     34  H   UNL     1      48.189   1.966  15.250  0.00  0.00    +0.000 HD
ENDBRANCH  32  33
ENDBRANCH  26  32
ENDBRANCH  24  26
ENDBRANCH  23  24
ENDBRANCH   4  23
TORSDOF 10
ENDMDL
MODEL 3
REMARK VINA RESULT:    -6.901      1.603      2.164
REMARK INTER + INTRA:         -11.661
REMARK INTER:                 -10.847
REMARK INTRA:                  -0.815
REMARK UNBOUND:                -1.130
REMARK  Name = 
REMARK  10 active torsions:
REMARK  status: ('A' for Active; 'I' for Inactive)
REMARK    1  A    between atoms: N_1  and  C_2
REMARK    2  A    between atoms: C_2  and  C_3
REMARK    3  A    between atoms: C_2  and  C_20
REMARK    4  A    between atoms: C_3  and  C_4
REMARK    5  A    between atoms: C_7  and  C_8
REMARK    6  A    between atoms: C_8  and  N_9
REMARK    7  A    between atoms: N_9  and  CA_10
REMARK    8  A    between atoms: CA_10  and  C_11
REMARK    9  A    between atoms: CA_10  and  C_13
REMARK   10  A    between atoms: C_11  and  O_12
REMARK                            x       y       z     vdW  Elec       q    Type
REMARK                         _______ _______ _______ _____ _____    ______ ____
ROOT
ATOM      1  C   UNL     1      48.167   5.595  15.693  0.00  0.00    +0.000 A 
ATOM      2  C   UNL     1      47.307   4.507  15.494  0.00  0.00    +0.000 A 
ATOM      3  C   UNL     1      46.570   4.388  14.315  0.00  0.00    +0.000 A 
ATOM      4  C   UNL     1      46.658   5.366  13.314  0.00  0.00    +0.000 A 
ATOM      5  C   UNL     1      47.517   6.455  13.514  0.00  0.00    +0.000 A 
ATOM      6  C   UNL     1      48.269   6.565  14.689  0.00  0.00    +0.000 A 
ENDROOT
BRANCH   1   7
ATOM      7  C   UNL     1      48.976   5.704  16.966  0.00  0.00    +0.000 C 
BRANCH   7   8
ATOM      8  C   UNL     1      49.061   4.390  17.781  0.00  0.00    +0.000 C 
BRANCH   8   9
ATOM      9  C   UNL     1      50.475   4.118  18.260  0.00  0.00    +0.000 A 
ATOM     10  C   UNL     1      51.248   4.953  19.054  0.00  0.00    +0.000 A 
ATOM     11  S   UNL     1      52.772   4.292  19.458  0.00  0.00    +0.000 S 
ATOM     12  C   UNL     1      52.456   2.875  18.569  0.00  0.00    +0.000 A 
ATOM     13  N   UNL     1      53.352   1.856  18.521  0.00  0.00    +0.000 NA
ATOM     14  C   UNL     1      52.963   0.846  17.813  0.00  0.00    +0.000 A 
ATOM     15  N   UNL     1      51.777   0.770  17.134  0.00  0.00    +0.000 N 
ATOM     16  C   UNL     1      50.861   1.798  17.112  0.00  0.00    +0.000 A 
ATOM     17  O   UNL     1      49.849   1.747  16.416  0.00  0.00    +0.000 OA
ATOM     18  C   UNL     1      51.223   2.927  17.948  0.00  0.00    +0.000 A 
ATOM     19  H   UNL     1      51.554  -0.033  16.566  0.00  0.00    +0.000 HD
ENDBRANCH   8   9
BRANCH   8  20
ATOM     20  N   UNL     1      48.175   4.377  18.956  0.00  0.00    +0.000 NA
ATOM     21  H   UNL     1      48.723   4.672  19.765  0.00  0.00    +0.000 HD
ATOM     22  H   UNL     1      47.898   3.420  19.154  0.00  0.00    +0.000 HD
ENDBRANCH   8  20
ENDBRANCH   7   8
ENDBRANCH   1   7
BRANCH   4  23
ATOM     23  C   UNL     1      45.875   5.219  12.028  0.00  0.00    +0.000 C 
BRANCH  23  24
ATOM     24  N   UNL     1      45.310   3.872  11.903  0.00  0.00    +0.000 NA
ATOM     25  H   UNL     1      44.792   3.673  12.761  0.00  0.00    +0.000 HD
BRANCH  24  26
ATOM     26  CA  UNL     1      44.365   3.743  10.765  0.00  0.00    +0.000 C 
BRANCH  26  27
ATOM     27  C   UNL     1      45.083   3.535   9.433  0.00  0.00    +0.000 A 
ATOM     28  N   UNL     1      45.538   4.529   8.691  0.00  0.00    +0.000 NA
ATOM     29  C   UNL     1      46.209   4.028   7.593  0.00  0.00    +0.000 A 
ATOM     30  C   UNL     1      46.225   2.655   7.479  0.00  0.00    +0.000 A 
ATOM     31  S   UNL     1      45.399   1.957   8.803  0.00  0.00    +0.000 S 
ENDBRANCH  26  27
BRANCH  26  32
ATOM     32  C   UNL     1      43.417   4.962  10.631  0.00  0.00    +0.000 C 
BRANCH  32  33
ATOM     33  O   UNL     1      42.322   4.901  11.549  0.00  0.00    +0.000 OA
ATOM     34  H   UNL     1      41.831   4.085  11.328  0.00  0.00    +0.000 HD
ENDBRANCH  32  33
ENDBRANCH  26  32
ENDBRANCH  24  26
ENDBRANCH  23  24
ENDBRANCH   4  23
TORSDOF 10
ENDMDL
MODEL 4
REMARK VINA RESULT:    -6.433      5.461      8.341
REMARK INTER + INTRA:         -10.946
REMARK INTER:                  -9.732
REMARK INTRA:                  -1.215
REMARK UNBOUND:                -1.130
REMARK  Name = 
REMARK  10 active torsions:
REMARK  status: ('A' for Active; 'I' for Inactive)
REMARK    1  A    between atoms: N_1  and  C_2
REMARK    2  A    between atoms: C_2  and  C_3
REMARK    3  A    between atoms: C_2  and  C_20
REMARK    4  A    between atoms: C_3  and  C_4
REMARK    5  A    between atoms: C_7  and  C_8
REMARK    6  A    between atoms: C_8  and  N_9
REMARK    7  A    between atoms: N_9  and  CA_10
REMARK    8  A    between atoms: CA_10  and  C_11
REMARK    9  A    between atoms: CA_10  and  C_13
REMARK   10  A    between atoms: C_11  and  O_12
REMARK                            x       y       z     vdW  Elec       q    Type
REMARK                         _______ _______ _______ _____ _____    ______ ____
ROOT
ATOM      1  C   UNL     1      47.243   8.202  12.231  0.00  0.00    +0.000 A 
ATOM      2  C   UNL     1      48.074   7.105  11.972  0.00  0.00    +0.000 A 
ATOM      3  C   UNL     1      49.433   7.288  11.708  0.00  0.00    +0.000 A 
ATOM      4  C   UNL     1      49.989   8.574  11.677  0.00  0.00    +0.000 A 
ATOM      5  C   UNL     1      49.157   9.672  11.934  0.00  0.00    +0.000 A 
ATOM      6  C   UNL     1      47.798   9.487  12.216  0.00  0.00    +0.000 A 
ENDROOT
BRANCH   1   7
ATOM      7  C   UNL     1      45.776   7.992  12.535  0.00  0.00    +0.000 C 
BRANCH   7   8
ATOM      8  C   UNL     1      44.960   7.409  11.356  0.00  0.00    +0.000 C 
BRANCH   8   9
ATOM      9  C   UNL     1      44.467   6.005  11.657  0.00  0.00    +0.000 A 
ATOM     10  C   UNL     1      43.801   5.596  12.804  0.00  0.00    +0.000 A 
ATOM     11  S   UNL     1      43.332   3.953  12.772  0.00  0.00    +0.000 S 
ATOM     12  C   UNL     1      44.018   3.729  11.230  0.00  0.00    +0.000 A 
ATOM     13  N   UNL     1      43.940   2.534  10.589  0.00  0.00    +0.000 NA
ATOM     14  C   UNL     1      44.501   2.525   9.424  0.00  0.00    +0.000 A 
ATOM     15  N   UNL     1      45.148   3.588   8.853  0.00  0.00    +0.000 N 
ATOM     16  C   UNL     1      45.297   4.801   9.486  0.00  0.00    +0.000 A 
ATOM     17  O   UNL     1      45.967   5.708   8.997  0.00  0.00    +0.000 OA
ATOM     18  C   UNL     1      44.625   4.881  10.770  0.00  0.00    +0.000 A 
ATOM     19  H   UNL     1      45.601   3.499   7.956  0.00  0.00    +0.000 HD
ENDBRANCH   8   9
BRANCH   8  20
ATOM     20  N   UNL     1      43.793   8.230  10.994  0.00  0.00    +0.000 NA
ATOM     21  H   UNL     1      43.163   8.249  11.797  0.00  0.00    +0.000 HD
ATOM     22  H   UNL     1      43.274   7.763  10.256  0.00  0.00    +0.000 HD
ENDBRANCH   8  20
ENDBRANCH   7   8
ENDBRANCH   1   7
BRANCH   4  23
ATOM     23  C   UNL     1      51.467   8.763  11.415  0.00  0.00    +0.000 C 
BRANCH  23  24
ATOM     24  N   UNL     1      52.148   7.474  11.266  0.00  0.00    +0.000 NA
ATOM     25  H   UNL     1      51.521   6.850  10.755  0.00  0.00    +0.000 HD
BRANCH  24  26
ATOM     26  CA  UNL     1      53.414   7.572  10.495  0.00  0.00    +0.000 C 
BRANCH  26  27
ATOM     27  C   UNL     1      53.170   7.684   8.991  0.00  0.00    +0.000 A 
ATOM     28  N   UNL     1      52.758   6.676   8.245  0.00  0.00    +0.000 NA
ATOM     29  C   UNL     1      52.551   7.104   6.948  0.00  0.00    +0.000 A 
ATOM     30  C   UNL     1      52.849   8.425   6.701  0.00  0.00    +0.000 A 
ATOM     31  S   UNL     1      53.380   9.176   8.142  0.00  0.00    +0.000 S 
ENDBRANCH  26  27
BRANCH  26  32
ATOM     32  C   UNL     1      54.367   6.376  10.753  0.00  0.00    +0.000 C 
BRANCH  32  33
ATOM     33  O   UNL     1      53.709   5.115  10.594  0.00  0.00    +0.000 OA
ATOM     34  H   UNL     1      54.329   4.444  10.940  0.00  0.00    +0.000 HD
ENDBRANCH  32  33
ENDBRANCH  26  32
ENDBRANCH  24  26
ENDBRANCH  23  24
ENDBRANCH   4  23
TORSDOF 10
ENDMDL
MODEL 5
REMARK VINA RESULT:    -6.274      1.487      1.966
REMARK INTER + INTRA:         -10.705
REMARK INTER:                  -9.967
REMARK INTRA:                  -0.738
REMARK UNBOUND:                -1.130
REMARK  Name = 
REMARK  10 active torsions:
REMARK  status: ('A' for Active; 'I' for Inactive)
REMARK    1  A    between atoms: N_1  and  C_2
REMARK    2  A    between atoms: C_2  and  C_3
REMARK    3  A    between atoms: C_2  and  C_20
REMARK    4  A    between atoms: C_3  and  C_4
REMARK    5  A    between atoms: C_7  and  C_8
REMARK    6  A    between atoms: C_8  and  N_9
REMARK    7  A    between atoms: N_9  and  CA_10
REMARK    8  A    between atoms: CA_10  and  C_11
REMARK    9  A    between atoms: CA_10  and  C_13
REMARK   10  A    between atoms: C_11  and  O_12
REMARK                            x       y       z     vdW  Elec       q    Type
REMARK                         _______ _______ _______ _____ _____    ______ ____
ROOT
ATOM      1  C   UNL     1      46.758   4.762  14.200  0.00  0.00    +0.000 A 
ATOM      2  C   UNL     1      46.869   3.418  13.820  0.00  0.00    +0.000 A 
ATOM      3  C   UNL     1      46.046   2.890  12.825  0.00  0.00    +0.000 A 
ATOM      4  C   UNL     1      45.077   3.686  12.200  0.00  0.00    +0.000 A 
ATOM      5  C   UNL     1      44.964   5.030  12.581  0.00  0.00    +0.000 A 
ATOM      6  C   UNL     1      45.802   5.564  13.567  0.00  0.00    +0.000 A 
ENDROOT
BRANCH   1   7
ATOM      7  C   UNL     1      47.669   5.331  15.267  0.00  0.00    +0.000 C 
BRANCH   7   8
ATOM      8  C   UNL     1      47.583   4.602  16.630  0.00  0.00    +0.000 C 
BRANCH   8   9
ATOM      9  C   UNL     1      48.898   3.936  16.992  0.00  0.00    +0.000 A 
ATOM     10  C   UNL     1      49.131   2.571  17.080  0.00  0.00    +0.000 A 
ATOM     11  S   UNL     1      50.754   2.179  17.444  0.00  0.00    +0.000 S 
ATOM     12  C   UNL     1      51.196   3.821  17.514  0.00  0.00    +0.000 A 
ATOM     13  N   UNL     1      52.477   4.199  17.756  0.00  0.00    +0.000 NA
ATOM     14  C   UNL     1      52.655   5.480  17.770  0.00  0.00    +0.000 A 
ATOM     15  N   UNL     1      51.670   6.413  17.586  0.00  0.00    +0.000 N 
ATOM     16  C   UNL     1      50.350   6.078  17.389  0.00  0.00    +0.000 A 
ATOM     17  O   UNL     1      49.468   6.933  17.326  0.00  0.00    +0.000 OA
ATOM     18  C   UNL     1      50.112   4.650  17.299  0.00  0.00    +0.000 A 
ATOM     19  H   UNL     1      51.871   7.400  17.651  0.00  0.00    +0.000 HD
ENDBRANCH   8   9
BRANCH   8  20
ATOM     20  N   UNL     1      47.205   5.491  17.741  0.00  0.00    +0.000 NA
ATOM     21  H   UNL     1      46.826   4.912  18.490  0.00  0.00    +0.000 HD
ATOM     22  H   UNL     1      46.435   6.085  17.444  0.00  0.00    +0.000 HD
ENDBRANCH   8  20
ENDBRANCH   7   8
ENDBRANCH   1   7
BRANCH   4  23
ATOM     23  C   UNL     1      44.205   3.114  11.104  0.00  0.00    +0.000 C 
BRANCH  23  24
ATOM     24  N   UNL     1      45.014   2.479  10.060  0.00  0.00    +0.000 NA
ATOM     25  H   UNL     1      44.822   1.475  10.086  0.00  0.00    +0.000 HD
BRANCH  24  26
ATOM     26  CA  UNL     1      44.687   2.965   8.696  0.00  0.00    +0.000 C 
BRANCH  26  27
ATOM     27  C   UNL     1      45.813   2.698   7.698  0.00  0.00    +0.000 A 
ATOM     28  N   UNL     1      46.183   3.563   6.772  0.00  0.00    +0.000 NA
ATOM     29  C   UNL     1      47.275   3.075   6.080  0.00  0.00    +0.000 A 
ATOM     30  C   UNL     1      47.704   1.820   6.452  0.00  0.00    +0.000 A 
ATOM     31  S   UNL     1      46.733   1.234   7.732  0.00  0.00    +0.000 S 
ENDBRANCH  26  27
BRANCH  26  32
ATOM     32  C   UNL     1      44.347   4.477   8.663  0.00  0.00    +0.000 C 
BRANCH  32  33
ATOM     33  O   UNL     1      45.498   5.296   8.889  0.00  0.00    +0.000 OA
ATOM     34  H   UNL     1      45.523   5.465   9.851  0.00  0.00    +0.000 HD
ENDBRANCH  32  33
ENDBRANCH  26  32
ENDBRANCH  24  26
ENDBRANCH  23  24
ENDBRANCH   4  23
TORSDOF 10
ENDMDL
MODEL 6
REMARK VINA RESULT:    -6.229      3.954      9.016
REMARK INTER + INTRA:         -10.636
REMARK INTER:                  -9.531
REMARK INTRA:                  -1.105
REMARK UNBOUND:                -1.130
REMARK  Name = 
REMARK  10 active torsions:
REMARK  status: ('A' for Active; 'I' for Inactive)
REMARK    1  A    between atoms: N_1  and  C_2
REMARK    2  A    between atoms: C_2  and  C_3
REMARK    3  A    between atoms: C_2  and  C_20
REMARK    4  A    between atoms: C_3  and  C_4
REMARK    5  A    between atoms: C_7  and  C_8
REMARK    6  A    between atoms: C_8  and  N_9
REMARK    7  A    between atoms: N_9  and  CA_10
REMARK    8  A    between atoms: CA_10  and  C_11
REMARK    9  A    between atoms: CA_10  and  C_13
REMARK   10  A    between atoms: C_11  and  O_12
REMARK                            x       y       z     vdW  Elec       q    Type
REMARK                         _______ _______ _______ _____ _____    ______ ____
ROOT
ATOM      1  C   UNL     1      46.319   7.696  12.269  0.00  0.00    +0.000 A 
ATOM      2  C   UNL     1      47.379   6.890  11.836  0.00  0.00    +0.000 A 
ATOM      3  C   UNL     1      48.643   7.438  11.611  0.00  0.00    +0.000 A 
ATOM      4  C   UNL     1      48.873   8.808  11.794  0.00  0.00    +0.000 A 
ATOM      5  C   UNL     1      47.811   9.615  12.226  0.00  0.00    +0.000 A 
ATOM      6  C   UNL     1      46.548   9.062  12.468  0.00  0.00    +0.000 A 
ENDROOT
BRANCH   1   7
ATOM      7  C   UNL     1      44.957   7.090  12.529  0.00  0.00    +0.000 C 
BRANCH   7   8
ATOM      8  C   UNL     1      44.219   6.615  11.254  0.00  0.00    +0.000 C 
BRANCH   8   9
ATOM      9  C   UNL     1      44.059   5.105  11.230  0.00  0.00    +0.000 A 
ATOM     10  C   UNL     1      43.367   4.337  12.155  0.00  0.00    +0.000 A 
ATOM     11  S   UNL     1      43.336   2.672  11.773  0.00  0.00    +0.000 S 
ATOM     12  C   UNL     1      44.262   2.920  10.366  0.00  0.00    +0.000 A 
ATOM     13  N   UNL     1      44.577   1.892   9.537  0.00  0.00    +0.000 NA
ATOM     14  C   UNL     1      45.277   2.241   8.507  0.00  0.00    +0.000 A 
ATOM     15  N   UNL     1      45.707   3.514   8.243  0.00  0.00    +0.000 N 
ATOM     16  C   UNL     1      45.457   4.577   9.080  0.00  0.00    +0.000 A 
ATOM     17  O   UNL     1      45.937   5.690   8.875  0.00  0.00    +0.000 OA
ATOM     18  C   UNL     1      44.617   4.246  10.216  0.00  0.00    +0.000 A 
ATOM     19  H   UNL     1      46.287   3.710   7.441  0.00  0.00    +0.000 HD
ENDBRANCH   8   9
BRANCH   8  20
ATOM     20  N   UNL     1      42.883   7.213  11.099  0.00  0.00    +0.000 NA
ATOM     21  H   UNL     1      42.194   6.521  11.393  0.00  0.00    +0.000 HD
ATOM     22  H   UNL     1      42.702   7.370  10.111  0.00  0.00    +0.000 HD
ENDBRANCH   8  20
ENDBRANCH   7   8
ENDBRANCH   1   7
BRANCH   4  23
ATOM     23  C   UNL     1      50.251   9.390  11.573  0.00  0.00    +0.000 C 
BRANCH  23  24
ATOM     24  N   UNL     1      50.920   9.669  12.847  0.00  0.00    +0.000 NA
ATOM     25  H   UNL     1      50.224  10.066  13.482  0.00  0.00    +0.000 HD
BRANCH  24  26
ATOM     26  CA  UNL     1      51.473   8.450  13.491  0.00  0.00    +0.000 C 
BRANCH  26  27
ATOM     27  C   UNL     1      50.733   8.085  14.776  0.00  0.00    +0.000 A 
ATOM     28  N   UNL     1      49.988   7.002  14.903  0.00  0.00    +0.000 NA
ATOM     29  C   UNL     1      49.518   6.902  16.198  0.00  0.00    +0.000 A 
ATOM     30  C   UNL     1      49.870   7.932  17.041  0.00  0.00    +0.000 A 
ATOM     31  S   UNL     1      50.848   9.057  16.202  0.00  0.00    +0.000 S 
ENDBRANCH  26  27
BRANCH  26  32
ATOM     32  C   UNL     1      52.985   8.575  13.810  0.00  0.00    +0.000 C 
BRANCH  32  33
ATOM     33  O   UNL     1      53.696   7.362  13.545  0.00  0.00    +0.000 OA
ATOM     34  H   UNL     1      54.278   7.552  12.783  0.00  0.00    +0.000 HD
ENDBRANCH  32  33
ENDBRANCH  26  32
ENDBRANCH  24  26
ENDBRANCH  23  24
ENDBRANCH   4  23
TORSDOF 10
ENDMDL
MODEL 7
REMARK VINA RESULT:    -6.039      2.115      9.290
REMARK INTER + INTRA:         -10.346
REMARK INTER:                  -9.142
REMARK INTRA:                  -1.204
REMARK UNBOUND:                -1.130
REMARK  Name = 
REMARK  10 active torsions:
REMARK  status: ('A' for Active; 'I' for Inactive)
REMARK    1  A    between atoms: N_1  and  C_2
REMARK    2  A    between atoms: C_2  and  C_3
REMARK    3  A    between atoms: C_2  and  C_20
REMARK    4  A    between atoms: C_3  and  C_4
REMARK    5  A    between atoms: C_7  and  C_8
REMARK    6  A    between atoms: C_8  and  N_9
REMARK    7  A    between atoms: N_9  and  CA_10
REMARK    8  A    between atoms: CA_10  and  C_11
REMARK    9  A    between atoms: CA_10  and  C_13
REMARK   10  A    between atoms: C_11  and  O_12
REMARK                            x       y       z     vdW  Elec       q    Type
REMARK                         _______ _______ _______ _____ _____    ______ ____
ROOT
ATOM      1  C   UNL     1      45.633   4.891  11.990  0.00  0.00    +0.000 A 
ATOM      2  C   UNL     1      46.186   4.329  13.147  0.00  0.00    +0.000 A 
ATOM      3  C   UNL     1      47.128   5.032  13.900  0.00  0.00    +0.000 A 
ATOM      4  C   UNL     1      47.555   6.306  13.502  0.00  0.00    +0.000 A 
ATOM      5  C   UNL     1      47.003   6.868  12.343  0.00  0.00    +0.000 A 
ATOM      6  C   UNL     1      46.046   6.169  11.598  0.00  0.00    +0.000 A 
ENDROOT
BRANCH   1   7
ATOM      7  C   UNL     1      44.598   4.128  11.191  0.00  0.00    +0.000 C 
BRANCH   7   8
ATOM      8  C   UNL     1      44.737   4.284   9.657  0.00  0.00    +0.000 C 
BRANCH   8   9
ATOM      9  C   UNL     1      45.211   2.998   9.005  0.00  0.00    +0.000 A 
ATOM     10  C   UNL     1      44.774   1.716   9.304  0.00  0.00    +0.000 A 
ATOM     11  S   UNL     1      45.477   0.509   8.318  0.00  0.00    +0.000 S 
ATOM     12  C   UNL     1      46.402   1.659   7.471  0.00  0.00    +0.000 A 
ATOM     13  N   UNL     1      47.218   1.295   6.448  0.00  0.00    +0.000 NA
ATOM     14  C   UNL     1      47.846   2.283   5.900  0.00  0.00    +0.000 A 
ATOM     15  N   UNL     1      47.752   3.592   6.292  0.00  0.00    +0.000 N 
ATOM     16  C   UNL     1      46.980   4.000   7.355  0.00  0.00    +0.000 A 
ATOM     17  O   UNL     1      46.988   5.164   7.752  0.00  0.00    +0.000 OA
ATOM     18  C   UNL     1      46.202   2.935   7.961  0.00  0.00    +0.000 A 
ATOM     19  H   UNL     1      48.304   4.308   5.845  0.00  0.00    +0.000 HD
ENDBRANCH   8   9
BRANCH   8  20
ATOM     20  N   UNL     1      43.485   4.691   8.999  0.00  0.00    +0.000 NA
ATOM     21  H   UNL     1      43.513   4.353   8.037  0.00  0.00    +0.000 HD
ATOM     22  H   UNL     1      43.461   5.704   8.927  0.00  0.00    +0.000 HD
ENDBRANCH   8  20
ENDBRANCH   7   8
ENDBRANCH   1   7
BRANCH   4  23
ATOM     23  C   UNL     1      48.557   7.073  14.336  0.00  0.00    +0.000 C 
BRANCH  23  24
ATOM     24  N   UNL     1      48.205   7.033  15.758  0.00  0.00    +0.000 NA
ATOM     25  H   UNL     1      47.394   6.419  15.859  0.00  0.00    +0.000 HD
BRANCH  24  26
ATOM     26  CA  UNL     1      49.291   6.487  16.611  0.00  0.00    +0.000 C 
BRANCH  26  27
ATOM     27  C   UNL     1      49.018   5.049  17.051  0.00  0.00    +0.000 A 
ATOM     28  N   UNL     1      49.951   4.116  17.103  0.00  0.00    +0.000 NA
ATOM     29  C   UNL     1      49.420   2.948  17.614  0.00  0.00    +0.000 A 
ATOM     30  C   UNL     1      48.074   2.982  17.906  0.00  0.00    +0.000 A 
ATOM     31  S   UNL     1      47.448   4.535  17.561  0.00  0.00    +0.000 S 
ENDBRANCH  26  27
BRANCH  26  32
ATOM     32  C   UNL     1      49.554   7.348  17.873  0.00  0.00    +0.000 C 
BRANCH  32  33
ATOM     33  O   UNL     1      49.916   6.552  19.005  0.00  0.00    +0.000 OA
ATOM     34  H   UNL     1      50.020   7.176  19.750  0.00  0.00    +0.000 HD
ENDBRANCH  32  33
ENDBRANCH  26  32
ENDBRANCH  24  26
ENDBRANCH  23  24
ENDBRANCH   4  23
TORSDOF 10
ENDMDL
MODEL 8
REMARK VINA RESULT:    -5.929      3.077      4.938
REMARK INTER + INTRA:         -10.178
REMARK INTER:                  -8.276
REMARK INTRA:                  -1.902
REMARK UNBOUND:                -1.130
REMARK  Name = 
REMARK  10 active torsions:
REMARK  status: ('A' for Active; 'I' for Inactive)
REMARK    1  A    between atoms: N_1  and  C_2
REMARK    2  A    between atoms: C_2  and  C_3
REMARK    3  A    between atoms: C_2  and  C_20
REMARK    4  A    between atoms: C_3  and  C_4
REMARK    5  A    between atoms: C_7  and  C_8
REMARK    6  A    between atoms: C_8  and  N_9
REMARK    7  A    between atoms: N_9  and  CA_10
REMARK    8  A    between atoms: CA_10  and  C_11
REMARK    9  A    between atoms: CA_10  and  C_13
REMARK   10  A    between atoms: C_11  and  O_12
REMARK                            x       y       z     vdW  Elec       q    Type
REMARK                         _______ _______ _______ _____ _____    ______ ____
ROOT
ATOM      1  C   UNL     1      50.067   7.879  16.691  0.00  0.00    +0.000 A 
ATOM      2  C   UNL     1      48.880   8.622  16.717  0.00  0.00    +0.000 A 
ATOM      3  C   UNL     1      48.074   8.716  15.581  0.00  0.00    +0.000 A 
ATOM      4  C   UNL     1      48.446   8.087  14.385  0.00  0.00    +0.000 A 
ATOM      5  C   UNL     1      49.636   7.346  14.358  0.00  0.00    +0.000 A 
ATOM      6  C   UNL     1      50.435   7.238  15.502  0.00  0.00    +0.000 A 
ENDROOT
BRANCH   1   7
ATOM      7  C   UNL     1      50.924   7.767  17.933  0.00  0.00    +0.000 C 
BRANCH   7   8
ATOM      8  C   UNL     1      50.511   6.622  18.889  0.00  0.00    +0.000 C 
BRANCH   8   9
ATOM      9  C   UNL     1      51.012   5.276  18.398  0.00  0.00    +0.000 A 
ATOM     10  C   UNL     1      52.307   4.790  18.508  0.00  0.00    +0.000 A 
ATOM     11  S   UNL     1      52.494   3.202  17.906  0.00  0.00    +0.000 S 
ATOM     12  C   UNL     1      50.852   3.116  17.462  0.00  0.00    +0.000 A 
ATOM     13  N   UNL     1      50.327   1.993  16.909  0.00  0.00    +0.000 NA
ATOM     14  C   UNL     1      49.067   2.081  16.635  0.00  0.00    +0.000 A 
ATOM     15  N   UNL     1      48.291   3.190  16.842  0.00  0.00    +0.000 N 
ATOM     16  C   UNL     1      48.791   4.367  17.351  0.00  0.00    +0.000 A 
ATOM     17  O   UNL     1      48.100   5.380  17.435  0.00  0.00    +0.000 OA
ATOM     18  C   UNL     1      50.188   4.296  17.737  0.00  0.00    +0.000 A 
ATOM     19  H   UNL     1      47.321   3.204  16.567  0.00  0.00    +0.000 HD
ENDBRANCH   8   9
BRANCH   8  20
ATOM     20  N   UNL     1      50.997   6.811  20.265  0.00  0.00    +0.000 NA
ATOM     21  H   UNL     1      50.570   6.092  20.849  0.00  0.00    +0.000 HD
ATOM     22  H   UNL     1      50.644   7.694  20.624  0.00  0.00    +0.000 HD
ENDBRANCH   8  20
ENDBRANCH   7   8
ENDBRANCH   1   7
BRANCH   4  23
ATOM     23  C   UNL     1      47.555   8.172  13.165  0.00  0.00    +0.000 C 
BRANCH  23  24
ATOM     24  N   UNL     1      46.388   7.297  13.299  0.00  0.00    +0.000 NA
ATOM     25  H   UNL     1      45.590   7.777  12.878  0.00  0.00    +0.000 HD
BRANCH  24  26
ATOM     26  CA  UNL     1      46.552   5.998  12.598  0.00  0.00    +0.000 C 
BRANCH  26  27
ATOM     27  C   UNL     1      45.262   5.536  11.922  0.00  0.00    +0.000 A 
ATOM     28  N   UNL     1      45.209   5.114  10.672  0.00  0.00    +0.000 NA
ATOM     29  C   UNL     1      43.929   4.689  10.373  0.00  0.00    +0.000 A 
ATOM     30  C   UNL     1      43.003   4.829  11.382  0.00  0.00    +0.000 A 
ATOM     31  S   UNL     1      43.755   5.489  12.768  0.00  0.00    +0.000 S 
ENDBRANCH  26  27
BRANCH  26  32
ATOM     32  C   UNL     1      47.050   4.869  13.536  0.00  0.00    +0.000 C 
BRANCH  32  33
ATOM     33  O   UNL     1      46.656   5.080  14.895  0.00  0.00    +0.000 OA
ATOM     34  H   UNL     1      45.801   5.551  14.857  0.00  0.00    +0.000 HD
ENDBRANCH  32  33
ENDBRANCH  26  32
ENDBRANCH  24  26
ENDBRANCH  23  24
ENDBRANCH   4  23
TORSDOF 10
ENDMDL
MODEL 9
REMARK VINA RESULT:    -5.917      6.120      8.440
REMARK INTER + INTRA:         -10.160
REMARK INTER:                  -9.062
REMARK INTRA:                  -1.098
REMARK UNBOUND:                -1.130
REMARK  Name = 
REMARK  10 active torsions:
REMARK  status: ('A' for Active; 'I' for Inactive)
REMARK    1  A    between atoms: N_1  and  C_2
REMARK    2  A    between atoms: C_2  and  C_3
REMARK    3  A    between atoms: C_2  and  C_20
REMARK    4  A    between atoms: C_3  and  C_4
REMARK    5  A    between atoms: C_7  and  C_8
REMARK    6  A    between atoms: C_8  and  N_9
REMARK    7  A    between atoms: N_9  and  CA_10
REMARK    8  A    between atoms: CA_10  and  C_11
REMARK    9  A    between atoms: CA_10  and  C_13
REMARK   10  A    between atoms: C_11  and  O_12
REMARK                            x       y       z     vdW  Elec       q    Type
REMARK                         _______ _______ _______ _____ _____    ______ ____
ROOT
ATOM      1  C   UNL     1      51.281   8.625  11.926  0.00  0.00    +0.000 A 
ATOM      2  C   UNL     1      50.132   8.044  11.374  0.00  0.00    +0.000 A 
ATOM      3  C   UNL     1      49.163   7.464  12.194  0.00  0.00    +0.000 A 
ATOM      4  C   UNL     1      49.329   7.433  13.586  0.00  0.00    +0.000 A 
ATOM      5  C   UNL     1      50.480   8.012  14.138  0.00  0.00    +0.000 A 
ATOM      6  C   UNL     1      51.443   8.609  13.316  0.00  0.00    +0.000 A 
ENDROOT
BRANCH   1   7
ATOM      7  C   UNL     1      52.316   9.269  11.029  0.00  0.00    +0.000 C 
BRANCH   7   8
ATOM      8  C   UNL     1      53.394   8.292  10.500  0.00  0.00    +0.000 C 
BRANCH   8   9
ATOM      9  C   UNL     1      53.232   8.032   9.013  0.00  0.00    +0.000 A 
ATOM     10  C   UNL     1      52.865   8.962   8.052  0.00  0.00    +0.000 A 
ATOM     11  S   UNL     1      52.850   8.332   6.463  0.00  0.00    +0.000 S 
ATOM     12  C   UNL     1      53.317   6.789   7.010  0.00  0.00    +0.000 A 
ATOM     13  N   UNL     1      53.522   5.764   6.144  0.00  0.00    +0.000 NA
ATOM     14  C   UNL     1      53.880   4.659   6.711  0.00  0.00    +0.000 A 
ATOM     15  N   UNL     1      54.031   4.479   8.061  0.00  0.00    +0.000 N 
ATOM     16  C   UNL     1      53.784   5.473   8.979  0.00  0.00    +0.000 A 
ATOM     17  O   UNL     1      53.829   5.262  10.190  0.00  0.00    +0.000 OA
ATOM     18  C   UNL     1      53.444   6.753   8.385  0.00  0.00    +0.000 A 
ATOM     19  H   UNL     1      54.274   3.576   8.440  0.00  0.00    +0.000 HD
ENDBRANCH   8   9
BRANCH   8  20
ATOM     20  N   UNL     1      54.769   8.765  10.729  0.00  0.00    +0.000 NA
ATOM     21  H   UNL     1      55.004   8.582  11.705  0.00  0.00    +0.000 HD
ATOM     22  H   UNL     1      54.793   9.776  10.632  0.00  0.00    +0.000 HD
ENDBRANCH   8  20
ENDBRANCH   7   8
ENDBRANCH   1   7
BRANCH   4  23
ATOM     23  C   UNL     1      48.264   6.825  14.471  0.00  0.00    +0.000 C 
BRANCH  23  24
ATOM     24  N   UNL     1      47.069   6.475  13.698  0.00  0.00    +0.000 NA
ATOM     25  H   UNL     1      47.197   6.834  12.750  0.00  0.00    +0.000 HD
BRANCH  24  26
ATOM     26  CA  UNL     1      46.850   5.010  13.598  0.00  0.00    +0.000 C 
BRANCH  26  27
ATOM     27  C   UNL     1      45.452   4.664  13.086  0.00  0.00    +0.000 A 
ATOM     28  N   UNL     1      45.025   3.426  12.921  0.00  0.00    +0.000 NA
ATOM     29  C   UNL     1      43.701   3.433  12.527  0.00  0.00    +0.000 A 
ATOM     30  C   UNL     1      43.138   4.677  12.350  0.00  0.00    +0.000 A 
ATOM     31  S   UNL     1      44.289   5.888  12.716  0.00  0.00    +0.000 S 
ENDBRANCH  26  27
BRANCH  26  32
ATOM     32  C   UNL     1      47.077   4.276  14.945  0.00  0.00    +0.000 C 
BRANCH  32  33
ATOM     33  O   UNL     1      47.575   2.947  14.761  0.00  0.00    +0.000 OA
ATOM     34  H   UNL     1      47.810   2.622  15.651  0.00  0.00    +0.000 HD
ENDBRANCH  32  33
ENDBRANCH  26  32
ENDBRANCH  24  26
ENDBRANCH  23  24
ENDBRANCH   4  23
TORSDOF 10
ENDMDL
