MODEL 1
REMARK VINA RESULT:    -6.376      0.000      0.000
REMARK INTER + INTRA:         -10.488
REMARK INTER:                  -9.358
REMARK INTRA:                  -1.130
REMARK UNBOUND:                -1.130
REMARK  Name = 
REMARK  9 active torsions:
REMARK  status: ('A' for Active; 'I' for Inactive)
REMARK    1  A    between atoms: C_1  and  O_2
REMARK    2  A    between atoms: O_2  and  C_3
REMARK    3  A    between atoms: C_10  and  C_11
REMARK    4  A    between atoms: N_13  and  C_14
REMARK    5  A    between atoms: C_14  and  C_15
REMARK    6  A    between atoms: C_18  and  O_19
REMARK    7  A    between atoms: O_19  and  C_20
REMARK    8  A    between atoms: C_20  and  C_21
REMARK    9  A    between atoms: C_21  and  N_22
REMARK                            x       y       z     vdW  Elec       q    Type
REMARK                         _______ _______ _______ _____ _____    ______ ____
ROOT
ATOM      1  C   UNL     1      47.294   3.301  16.967  0.00  0.00    +0.000 C 
ENDROOT
BRANCH   1   2
ATOM      2  C   UNL     1      48.772   3.250  17.261  0.00  0.00    +0.000 A 
ATOM      3  C   UNL     1      49.409   4.345  17.851  0.00  0.00    +0.000 A 
ATOM      4  C   UNL     1      50.779   4.304  18.128  0.00  0.00    +0.000 A 
ATOM      5  C   UNL     1      51.536   3.156  17.851  0.00  0.00    +0.000 A 
ATOM      6  C   UNL     1      50.920   2.089  17.200  0.00  0.00    +0.000 A 
ATOM      7  C   UNL     1      49.547   2.135  16.906  0.00  0.00    +0.000 A 
BRANCH   5   8
ATOM      8  O   UNL     1      52.862   2.984  18.214  0.00  0.00    +0.000 OA
BRANCH   8   9
ATOM      9  C   UNL     1      53.528   4.240  18.398  0.00  0.00    +0.000 C 
BRANCH   9  10
ATOM     10  C   UNL     1      54.339   4.761  17.194  0.00  0.00    +0.000 C 
BRANCH  10  11
ATOM     11  N   UNL     1      54.481   6.241  17.260  0.00  0.00    +0.000 NA
ATOM     12  C   UNL     1      53.184   6.954  17.257  0.00  0.00    +0.000 C 
ATOM     13  C   UNL     1      52.506   7.105  15.876  0.00  0.00    +0.000 C 
ATOM     14  O   UNL     1      53.400   7.523  14.835  0.00  0.00    +0.000 OA
ATOM     15  C   UNL     1      54.578   6.713  14.807  0.00  0.00    +0.000 C 
ATOM     16  C   UNL     1      55.288   6.819  16.158  0.00  0.00    +0.000 C 
ENDBRANCH  10  11
ENDBRANCH   9  10
ENDBRANCH   8   9
ENDBRANCH   5   8
ENDBRANCH   1   2
BRANCH   1  19
ATOM     17  C   UNL     1      47.039   4.201  14.690  0.00  0.00    +0.000 C 
ATOM     18  O   UNL     1      47.367   3.128  14.192  0.00  0.00    +0.000 OA
ATOM     19  N   UNL     1      46.993   4.368  16.046  0.00  0.00    +0.000 N 
ATOM     20  H   UNL     1      46.771   5.271  16.436  0.00  0.00    +0.000 HD
BRANCH  17  28
ATOM     21  C   UNL     1      44.329   4.943  12.708  0.00  0.00    +0.000 A 
ATOM     22  N   UNL     1      43.413   5.475  11.869  0.00  0.00    +0.000 NA
ATOM     23  C   UNL     1      43.673   6.668  11.332  0.00  0.00    +0.000 A 
ATOM     24  N   UNL     1      44.754   7.418  11.532  0.00  0.00    +0.000 NA
ATOM     25  C   UNL     1      45.637   6.856  12.378  0.00  0.00    +0.000 A 
ATOM     26  S   UNL     1      47.076   7.678  12.750  0.00  0.00    +0.000 S 
ATOM     27  C   UNL     1      47.589   6.415  13.765  0.00  0.00    +0.000 A 
ATOM     28  C   UNL     1      46.688   5.359  13.852  0.00  0.00    +0.000 A 
ATOM     29  C   UNL     1      45.518   5.631  13.023  0.00  0.00    +0.000 A 
BRANCH  21  31
ATOM     30  C   UNL     1      43.549   2.760  12.375  0.00  0.00    +0.000 C 
ATOM     31  O   UNL     1      44.041   3.730  13.295  0.00  0.00    +0.000 OA
ENDBRANCH  21  31
ENDBRANCH  17  28
ENDBRANCH   1  19
TORSDOF 8
ENDMDL
MODEL 2
REMARK VINA RESULT:    -6.288      3.370      8.837
REMARK INTER + INTRA:         -10.359
REMARK INTER:                  -9.326
REMARK INTRA:                  -1.033
REMARK UNBOUND:                -1.130
REMARK  Name = 
REMARK  9 active torsions:
REMARK  status: ('A' for Active; 'I' for Inactive)
REMARK    1  A    between atoms: C_1  and  O_2
REMARK    2  A    between atoms: O_2  and  C_3
REMARK    3  A    between atoms: C_10  and  C_11
REMARK    4  A    between atoms: N_13  and  C_14
REMARK    5  A    between atoms: C_14  and  C_15
REMARK    6  A    between atoms: C_18  and  O_19
REMARK    7  A    between atoms: O_19  and  C_20
REMARK    8  A    between atoms: C_20  and  C_21
REMARK    9  A    between atoms: C_21  and  N_22
REMARK                            x       y       z     vdW  Elec       q    Type
REMARK                         _______ _______ _______ _____ _____    ______ ____
ROOT
ATOM      1  C   UNL     1      48.472   8.406  15.178  0.00  0.00    +0.000 C 
ENDROOT
BRANCH   1   2
ATOM      2  C   UNL     1      47.651   7.815  14.061  0.00  0.00    +0.000 A 
ATOM      3  C   UNL     1      46.575   8.529  13.526  0.00  0.00    +0.000 A 
ATOM      4  C   UNL     1      45.810   7.987  12.488  0.00  0.00    +0.000 A 
ATOM      5  C   UNL     1      46.123   6.734  11.941  0.00  0.00    +0.000 A 
ATOM      6  C   UNL     1      47.151   5.990  12.517  0.00  0.00    +0.000 A 
ATOM      7  C   UNL     1      47.909   6.525  13.571  0.00  0.00    +0.000 A 
BRANCH   5   8
ATOM      8  O   UNL     1      45.503   6.186  10.829  0.00  0.00    +0.000 OA
BRANCH   8   9
ATOM      9  C   UNL     1      44.608   5.126  11.190  0.00  0.00    +0.000 C 
BRANCH   9  10
ATOM     10  C   UNL     1      45.040   3.704  10.778  0.00  0.00    +0.000 C 
BRANCH  10  11
ATOM     11  N   UNL     1      44.317   3.273   9.551  0.00  0.00    +0.000 NA
ATOM     12  C   UNL     1      44.603   1.873   9.164  0.00  0.00    +0.000 C 
ATOM     13  C   UNL     1      45.942   1.643   8.427  0.00  0.00    +0.000 C 
ATOM     14  O   UNL     1      46.203   2.596   7.387  0.00  0.00    +0.000 OA
ATOM     15  C   UNL     1      46.034   3.935   7.859  0.00  0.00    +0.000 C 
ATOM     16  C   UNL     1      44.599   4.111   8.359  0.00  0.00    +0.000 C 
ENDBRANCH  10  11
ENDBRANCH   9  10
ENDBRANCH   8   9
ENDBRANCH   5   8
ENDBRANCH   1   2
BRANCH   1  19
ATOM     17  C   UNL     1      49.350   6.981  16.984  0.00  0.00    +0.000 C 
ATOM     18  O   UNL     1      48.507   7.402  17.772  0.00  0.00    +0.000 OA
ATOM     19  N   UNL     1      49.404   7.438  15.696  0.00  0.00    +0.000 N 
ATOM     20  H   UNL     1      50.135   7.118  15.078  0.00  0.00    +0.000 HD
BRANCH  17  28
ATOM     21  C   UNL     1      49.448   3.550  16.778  0.00  0.00    +0.000 A 
ATOM     22  N   UNL     1      49.740   2.232  16.834  0.00  0.00    +0.000 NA
ATOM     23  C   UNL     1      50.894   1.869  17.395  0.00  0.00    +0.000 A 
ATOM     24  N   UNL     1      51.819   2.672  17.917  0.00  0.00    +0.000 NA
ATOM     25  C   UNL     1      51.494   3.975  17.835  0.00  0.00    +0.000 A 
ATOM     26  S   UNL     1      52.562   5.142  18.451  0.00  0.00    +0.000 S 
ATOM     27  C   UNL     1      51.510   6.403  18.013  0.00  0.00    +0.000 A 
ATOM     28  C   UNL     1      50.343   5.974  17.390  0.00  0.00    +0.000 A 
ATOM     29  C   UNL     1      50.341   4.519  17.280  0.00  0.00    +0.000 A 
BRANCH  21  31
ATOM     30  C   UNL     1      47.134   3.822  17.005  0.00  0.00    +0.000 C 
ATOM     31  O   UNL     1      48.276   3.928  16.160  0.00  0.00    +0.000 OA
ENDBRANCH  21  31
ENDBRANCH  17  28
ENDBRANCH   1  19
TORSDOF 8
ENDMDL
MODEL 3
REMARK VINA RESULT:    -6.272      2.775      9.103
REMARK INTER + INTRA:         -10.335
REMARK INTER:                  -9.242
REMARK INTRA:                  -1.093
REMARK UNBOUND:                -1.130
REMARK  Name = 
REMARK  9 active torsions:
REMARK  status: ('A' for Active; 'I' for Inactive)
REMARK    1  A    between atoms: C_1  and  O_2
REMARK    2  A    between atoms: O_2  and  C_3
REMARK    3  A    between atoms: C_10  and  C_11
REMARK    4  A    between atoms: N_13  and  C_14
REMARK    5  A    between atoms: C_14  and  C_15
REMARK    6  A    between atoms: C_18  and  O_19
REMARK    7  A    between atoms: O_19  and  C_20
REMARK    8  A    between atoms: C_20  and  C_21
REMARK    9  A    between atoms: C_21  and  N_22
REMARK                            x       y       z     vdW  Elec       q    Type
REMARK                         _______ _______ _______ _____ _____    ______ ____
ROOT
ATOM      1  C   UNL     1      48.096   3.799  17.792  0.00  0.00    +0.000 C 
ENDROOT
BRANCH   1   2
ATOM      2  C   UNL     1      47.885   4.521  16.486  0.00  0.00    +0.000 A 
ATOM      3  C   UNL     1      48.538   5.733  16.241  0.00  0.00    +0.000 A 
ATOM      4  C   UNL     1      48.349   6.408  15.031  0.00  0.00    +0.000 A 
ATOM      5  C   UNL     1      47.529   5.872  14.028  0.00  0.00    +0.000 A 
ATOM      6  C   UNL     1      46.822   4.701  14.295  0.00  0.00    +0.000 A 
ATOM      7  C   UNL     1      46.998   4.031  15.516  0.00  0.00    +0.000 A 
BRANCH   5   8
ATOM      8  O   UNL     1      47.393   6.407  12.756  0.00  0.00    +0.000 OA
BRANCH   8   9
ATOM      9  C   UNL     1      46.026   6.403  12.322  0.00  0.00    +0.000 C 
BRANCH   9  10
ATOM     10  C   UNL     1      45.718   5.568  11.063  0.00  0.00    +0.000 C 
BRANCH  10  11
ATOM     11  N   UNL     1      44.248   5.472  10.847  0.00  0.00    +0.000 NA
ATOM     12  C   UNL     1      43.497   5.132  12.076  0.00  0.00    +0.000 C 
ATOM     13  C   UNL     1      43.511   3.639  12.478  0.00  0.00    +0.000 C 
ATOM     14  O   UNL     1      43.269   2.743  11.384  0.00  0.00    +0.000 OA
ATOM     15  C   UNL     1      44.116   3.044  10.272  0.00  0.00    +0.000 C 
ATOM     16  C   UNL     1      43.853   4.481   9.817  0.00  0.00    +0.000 C 
ENDBRANCH  10  11
ENDBRANCH   9  10
ENDBRANCH   8   9
ENDBRANCH   5   8
ENDBRANCH   1   2
BRANCH   1  19
ATOM     17  C   UNL     1      50.107   2.479  17.268  0.00  0.00    +0.000 C 
ATOM     18  O   UNL     1      49.491   1.800  16.453  0.00  0.00    +0.000 OA
ATOM     19  N   UNL     1      49.487   3.471  17.976  0.00  0.00    +0.000 N 
ATOM     20  H   UNL     1      49.998   3.985  18.679  0.00  0.00    +0.000 HD
BRANCH  17  28
ATOM     21  C   UNL     1      52.764   4.589  17.829  0.00  0.00    +0.000 A 
ATOM     22  N   UNL     1      53.961   5.172  18.059  0.00  0.00    +0.000 NA
ATOM     23  C   UNL     1      55.026   4.382  18.205  0.00  0.00    +0.000 A 
ATOM     24  N   UNL     1      55.050   3.052  18.154  0.00  0.00    +0.000 NA
ATOM     25  C   UNL     1      53.838   2.511  17.932  0.00  0.00    +0.000 A 
ATOM     26  S   UNL     1      53.683   0.822  17.838  0.00  0.00    +0.000 S 
ATOM     27  C   UNL     1      52.012   0.946  17.551  0.00  0.00    +0.000 A 
ATOM     28  C   UNL     1      51.538   2.253  17.528  0.00  0.00    +0.000 A 
ATOM     29  C   UNL     1      52.635   3.187  17.762  0.00  0.00    +0.000 A 
BRANCH  21  31
ATOM     30  C   UNL     1      51.941   6.776  17.974  0.00  0.00    +0.000 C 
ATOM     31  O   UNL     1      51.658   5.403  17.720  0.00  0.00    +0.000 OA
ENDBRANCH  21  31
ENDBRANCH  17  28
ENDBRANCH   1  19
TORSDOF 8
ENDMDL
MODEL 4
REMARK VINA RESULT:    -6.163      3.221      8.707
REMARK INTER + INTRA:         -10.175
REMARK INTER:                  -9.028
REMARK INTRA:                  -1.147
REMARK UNBOUND:                -1.130
REMARK  Name = 
REMARK  9 active torsions:
REMARK  status: ('A' for Active; 'I' for Inactive)
REMARK    1  A    between atoms: C_1  and  O_2
REMARK    2  A    between atoms: O_2  and  C_3
REMARK    3  A    between atoms: C_10  and  C_11
REMARK    4  A    between atoms: N_13  and  C_14
REMARK    5  A    between atoms: C_14  and  C_15
REMARK    6  A    between atoms: C_18  and  O_19
REMARK    7  A    between atoms: O_19  and  C_20
REMARK    8  A    between atoms: C_20  and  C_21
REMARK    9  A    between atoms: C_21  and  N_22
REMARK                            x       y       z     vdW  Elec       q    Type
REMARK                         _______ _______ _______ _____ _____    ______ ____
ROOT
ATOM      1  C   UNL     1      49.710   8.114  17.108  0.00  0.00    +0.000 C 
ENDROOT
BRANCH   1   2
ATOM      2  C   UNL     1      48.915   7.915  15.843  0.00  0.00    +0.000 A 
ATOM      3  C   UNL     1      48.241   8.992  15.260  0.00  0.00    +0.000 A 
ATOM      4  C   UNL     1      47.503   8.815  14.086  0.00  0.00    +0.000 A 
ATOM      5  C   UNL     1      47.449   7.566  13.450  0.00  0.00    +0.000 A 
ATOM      6  C   UNL     1      48.061   6.475  14.064  0.00  0.00    +0.000 A 
ATOM      7  C   UNL     1      48.789   6.648  15.253  0.00  0.00    +0.000 A 
BRANCH   5   8
ATOM      8  O   UNL     1      46.854   7.337  12.220  0.00  0.00    +0.000 OA
BRANCH   8   9
ATOM      9  C   UNL     1      45.426   7.260  12.327  0.00  0.00    +0.000 C 
BRANCH   9  10
ATOM     10  C   UNL     1      44.852   5.899  12.769  0.00  0.00    +0.000 C 
BRANCH  10  11
ATOM     11  N   UNL     1      45.471   4.793  11.990  0.00  0.00    +0.000 NA
ATOM     12  C   UNL     1      45.127   4.827  10.550  0.00  0.00    +0.000 C 
ATOM     13  C   UNL     1      43.732   4.272  10.182  0.00  0.00    +0.000 C 
ATOM     14  O   UNL     1      43.415   3.030  10.825  0.00  0.00    +0.000 OA
ATOM     15  C   UNL     1      43.648   3.101  12.234  0.00  0.00    +0.000 C 
ATOM     16  C   UNL     1      45.120   3.438  12.481  0.00  0.00    +0.000 C 
ENDBRANCH  10  11
ENDBRANCH   9  10
ENDBRANCH   8   9
ENDBRANCH   5   8
ENDBRANCH   1   2
BRANCH   1  19
ATOM     17  C   UNL     1      50.425   6.134  18.385  0.00  0.00    +0.000 C 
ATOM     18  O   UNL     1      49.519   6.288  19.198  0.00  0.00    +0.000 OA
ATOM     19  N   UNL     1      50.592   6.998  17.338  0.00  0.00    +0.000 N 
ATOM     20  H   UNL     1      51.373   6.884  16.709  0.00  0.00    +0.000 HD
BRANCH  17  28
ATOM     21  C   UNL     1      50.382   2.872  17.295  0.00  0.00    +0.000 A 
ATOM     22  N   UNL     1      50.619   1.575  17.005  0.00  0.00    +0.000 NA
ATOM     23  C   UNL     1      51.759   1.033  17.436  0.00  0.00    +0.000 A 
ATOM     24  N   UNL     1      52.718   1.637  18.136  0.00  0.00    +0.000 NA
ATOM     25  C   UNL     1      52.446   2.928  18.398  0.00  0.00    +0.000 A 
ATOM     26  S   UNL     1      53.564   3.854  19.281  0.00  0.00    +0.000 S 
ATOM     27  C   UNL     1      52.563   5.225  19.199  0.00  0.00    +0.000 A 
ATOM     28  C   UNL     1      51.377   5.018  18.502  0.00  0.00    +0.000 A 
ATOM     29  C   UNL     1      51.315   3.642  18.020  0.00  0.00    +0.000 A 
BRANCH  21  31
ATOM     30  C   UNL     1      48.106   3.268  17.678  0.00  0.00    +0.000 C 
ATOM     31  O   UNL     1      49.224   3.443  16.813  0.00  0.00    +0.000 OA
ENDBRANCH  21  31
ENDBRANCH  17  28
ENDBRANCH   1  19
TORSDOF 8
ENDMDL
MODEL 5
REMARK VINA RESULT:    -5.977      4.404      9.276
REMARK INTER + INTRA:          -9.902
REMARK INTER:                  -9.012
REMARK INTRA:                  -0.890
REMARK UNBOUND:                -1.130
REMARK  Name = 
REMARK  9 active torsions:
REMARK  status: ('A' for Active; 'I' for Inactive)
REMARK    1  A    between atoms: C_1  and  O_2
REMARK    2  A    between atoms: O_2  and  C_3
REMARK    3  A    between atoms: C_10  and  C_11
REMARK    4  A    between atoms: N_13  and  C_14
REMARK    5  A    between atoms: C_14  and  C_15
REMARK    6  A    between atoms: C_18  and  O_19
REMARK    7  A    between atoms: O_19  and  C_20
REMARK    8  A    between atoms: C_20  and  C_21
REMARK    9  A    between atoms: C_21  and  N_22
REMARK                            x       y       z     vdW  Elec       q    Type
REMARK                         _______ _______ _______ _____ _____    ______ ____
ROOT
ATOM      1  C   UNL     1      47.517   6.873  13.557  0.00  0.00    +0.000 C 
ENDROOT
BRANCH   1   2
ATOM      2  C   UNL     1      46.666   6.005  12.665  0.00  0.00    +0.000 A 
ATOM      3  C   UNL     1      46.181   4.780  13.134  0.00  0.00    +0.000 A 
ATOM      4  C   UNL     1      45.390   3.970  12.314  0.00  0.00    +0.000 A 
ATOM      5  C   UNL     1      45.041   4.379  11.019  0.00  0.00    +0.000 A 
ATOM      6  C   UNL     1      45.579   5.565  10.523  0.00  0.00    +0.000 A 
ATOM      7  C   UNL     1      46.387   6.372  11.340  0.00  0.00    +0.000 A 
BRANCH   5   8
ATOM      8  O   UNL     1      44.157   3.702  10.193  0.00  0.00    +0.000 OA
BRANCH   8   9
ATOM      9  C   UNL     1      44.226   4.175   8.841  0.00  0.00    +0.000 C 
BRANCH   9  10
ATOM     10  C   UNL     1      44.830   3.198   7.812  0.00  0.00    +0.000 C 
BRANCH  10  11
ATOM     11  N   UNL     1      46.307   3.116   7.973  0.00  0.00    +0.000 NA
ATOM     12  C   UNL     1      47.053   3.736   6.856  0.00  0.00    +0.000 C 
ATOM     13  C   UNL     1      47.170   2.881   5.573  0.00  0.00    +0.000 C 
ATOM     14  O   UNL     1      47.526   1.514   5.819  0.00  0.00    +0.000 OA
ATOM     15  C   UNL     1      46.685   0.932   6.818  0.00  0.00    +0.000 C 
ATOM     16  C   UNL     1      46.823   1.732   8.115  0.00  0.00    +0.000 C 
ENDBRANCH  10  11
ENDBRANCH   9  10
ENDBRANCH   8   9
ENDBRANCH   5   8
ENDBRANCH   1   2
BRANCH   1  19
ATOM     17  C   UNL     1      48.744   6.277  15.606  0.00  0.00    +0.000 C 
ATOM     18  O   UNL     1      49.803   6.674  15.128  0.00  0.00    +0.000 OA
ATOM     19  N   UNL     1      47.581   6.330  14.890  0.00  0.00    +0.000 N 
ATOM     20  H   UNL     1      46.730   5.953  15.280  0.00  0.00    +0.000 HD
BRANCH  17  28
ATOM     21  C   UNL     1      48.385   7.693  18.719  0.00  0.00    +0.000 A 
ATOM     22  N   UNL     1      48.269   7.977  20.035  0.00  0.00    +0.000 NA
ATOM     23  C   UNL     1      48.306   6.962  20.900  0.00  0.00    +0.000 A 
ATOM     24  N   UNL     1      48.443   5.670  20.614  0.00  0.00    +0.000 NA
ATOM     25  C   UNL     1      48.548   5.430  19.295  0.00  0.00    +0.000 A 
ATOM     26  S   UNL     1      48.728   3.832  18.748  0.00  0.00    +0.000 S 
ATOM     27  C   UNL     1      48.797   4.344  17.129  0.00  0.00    +0.000 A 
ATOM     28  C   UNL     1      48.679   5.720  16.967  0.00  0.00    +0.000 A 
ATOM     29  C   UNL     1      48.524   6.365  18.267  0.00  0.00    +0.000 A 
BRANCH  21  31
ATOM     30  C   UNL     1      47.648   9.885  18.352  0.00  0.00    +0.000 C 
ATOM     31  O   UNL     1      48.304   8.737  17.823  0.00  0.00    +0.000 OA
ENDBRANCH  21  31
ENDBRANCH  17  28
ENDBRANCH   1  19
TORSDOF 8
ENDMDL
MODEL 6
REMARK VINA RESULT:    -5.631      3.895      9.257
REMARK INTER + INTRA:          -9.394
REMARK INTER:                  -8.501
REMARK INTRA:                  -0.894
REMARK UNBOUND:                -1.130
REMARK  Name = 
REMARK  9 active torsions:
REMARK  status: ('A' for Active; 'I' for Inactive)
REMARK    1  A    between atoms: C_1  and  O_2
REMARK    2  A    between atoms: O_2  and  C_3
REMARK    3  A    between atoms: C_10  and  C_11
REMARK    4  A    between atoms: N_13  and  C_14
REMARK    5  A    between atoms: C_14  and  C_15
REMARK    6  A    between atoms: C_18  and  O_19
REMARK    7  A    between atoms: O_19  and  C_20
REMARK    8  A    between atoms: C_20  and  C_21
REMARK    9  A    between atoms: C_21  and  N_22
REMARK                            x       y       z     vdW  Elec       q    Type
REMARK                         _______ _______ _______ _____ _____    ______ ____
ROOT
ATOM      1  C   UNL     1      47.814   4.732  15.853  0.00  0.00    +0.000 C 
ENDROOT
BRANCH   1   2
ATOM      2  C   UNL     1      47.242   5.096  14.506  0.00  0.00    +0.000 A 
ATOM      3  C   UNL     1      46.245   4.304  13.929  0.00  0.00    +0.000 A 
ATOM      4  C   UNL     1      45.709   4.636  12.681  0.00  0.00    +0.000 A 
ATOM      5  C   UNL     1      46.135   5.784  11.997  0.00  0.00    +0.000 A 
ATOM      6  C   UNL     1      47.177   6.536  12.535  0.00  0.00    +0.000 A 
ATOM      7  C   UNL     1      47.728   6.194  13.781  0.00  0.00    +0.000 A 
BRANCH   5   8
ATOM      8  O   UNL     1      45.565   6.255  10.825  0.00  0.00    +0.000 OA
BRANCH   8   9
ATOM      9  C   UNL     1      45.154   5.183   9.966  0.00  0.00    +0.000 C 
BRANCH   9  10
ATOM     10  C   UNL     1      46.049   4.915   8.739  0.00  0.00    +0.000 C 
BRANCH  10  11
ATOM     11  N   UNL     1      45.350   4.032   7.766  0.00  0.00    +0.000 NA
ATOM     12  C   UNL     1      44.649   2.896   8.405  0.00  0.00    +0.000 C 
ATOM     13  C   UNL     1      45.543   1.701   8.811  0.00  0.00    +0.000 C 
ATOM     14  O   UNL     1      46.480   1.309   7.798  0.00  0.00    +0.000 OA
ATOM     15  C   UNL     1      47.217   2.433   7.311  0.00  0.00    +0.000 C 
ATOM     16  C   UNL     1      46.239   3.456   6.728  0.00  0.00    +0.000 C 
ENDBRANCH  10  11
ENDBRANCH   9  10
ENDBRANCH   8   9
ENDBRANCH   5   8
ENDBRANCH   1   2
BRANCH   1  19
ATOM     17  C   UNL     1      48.149   5.944  17.970  0.00  0.00    +0.000 C 
ATOM     18  O   UNL     1      47.834   4.955  18.625  0.00  0.00    +0.000 OA
ATOM     19  N   UNL     1      48.149   5.916  16.602  0.00  0.00    +0.000 N 
ATOM     20  H   UNL     1      48.361   6.753  16.080  0.00  0.00    +0.000 HD
BRANCH  17  28
ATOM     21  C   UNL     1      51.129   7.168  19.172  0.00  0.00    +0.000 A 
ATOM     22  N   UNL     1      52.138   7.876  19.724  0.00  0.00    +0.000 NA
ATOM     23  C   UNL     1      51.858   9.075  20.234  0.00  0.00    +0.000 A 
ATOM     24  N   UNL     1      50.670   9.676  20.262  0.00  0.00    +0.000 NA
ATOM     25  C   UNL     1      49.694   8.943  19.696  0.00  0.00    +0.000 A 
ATOM     26  S   UNL     1      48.112   9.558  19.641  0.00  0.00    +0.000 S 
ATOM     27  C   UNL     1      47.545   8.157  18.863  0.00  0.00    +0.000 A 
ATOM     28  C   UNL     1      48.531   7.206  18.622  0.00  0.00    +0.000 A 
ATOM     29  C   UNL     1      49.818   7.684  19.118  0.00  0.00    +0.000 A 
BRANCH  21  31
ATOM     30  C   UNL     1      51.344   4.864  19.529  0.00  0.00    +0.000 C 
ATOM     31  O   UNL     1      51.427   5.947  18.607  0.00  0.00    +0.000 OA
ENDBRANCH  21  31
ENDBRANCH  17  28
ENDBRANCH   1  19
TORSDOF 8
ENDMDL
MODEL 7
REMARK VINA RESULT:    -5.527      3.831      8.914
REMARK INTER + INTRA:          -9.242
REMARK INTER:                  -8.394
REMARK INTRA:                  -0.848
REMARK UNBOUND:                -1.130
REMARK  Name = 
REMARK  9 active torsions:
REMARK  status: ('A' for Active; 'I' for Inactive)
REMARK    1  A    between atoms: C_1  and  O_2
REMARK    2  A    between atoms: O_2  and  C_3
REMARK    3  A    between atoms: C_10  and  C_11
REMARK    4  A    between atoms: N_13  and  C_14
REMARK    5  A    between atoms: C_14  and  C_15
REMARK    6  A    between atoms: C_18  and  O_19
REMARK    7  A    between atoms: O_19  and  C_20
REMARK    8  A    between atoms: C_20  and  C_21
REMARK    9  A    between atoms: C_21  and  N_22
REMARK                            x       y       z     vdW  Elec       q    Type
REMARK                         _______ _______ _______ _____ _____    ______ ____
ROOT
ATOM      1  C   UNL     1      47.283   8.268  13.860  0.00  0.00    +0.000 C 
ENDROOT
BRANCH   1   2
ATOM      2  C   UNL     1      46.680   7.140  13.063  0.00  0.00    +0.000 A 
ATOM      3  C   UNL     1      46.436   5.904  13.668  0.00  0.00    +0.000 A 
ATOM      4  C   UNL     1      45.875   4.853  12.936  0.00  0.00    +0.000 A 
ATOM      5  C   UNL     1      45.516   5.024  11.591  0.00  0.00    +0.000 A 
ATOM      6  C   UNL     1      45.821   6.231  10.965  0.00  0.00    +0.000 A 
ATOM      7  C   UNL     1      46.400   7.282  11.695  0.00  0.00    +0.000 A 
BRANCH   5   8
ATOM      8  O   UNL     1      44.837   4.083  10.834  0.00  0.00    +0.000 OA
BRANCH   8   9
ATOM      9  C   UNL     1      44.930   4.362   9.431  0.00  0.00    +0.000 C 
BRANCH   9  10
ATOM     10  C   UNL     1      46.100   3.691   8.683  0.00  0.00    +0.000 C 
BRANCH  10  11
ATOM     11  N   UNL     1      45.587   2.751   7.649  0.00  0.00    +0.000 NA
ATOM     12  C   UNL     1      45.850   1.329   7.969  0.00  0.00    +0.000 C 
ATOM     13  C   UNL     1      47.285   0.832   7.676  0.00  0.00    +0.000 C 
ATOM     14  O   UNL     1      47.790   1.242   6.398  0.00  0.00    +0.000 OA
ATOM     15  C   UNL     1      47.622   2.648   6.201  0.00  0.00    +0.000 C 
ATOM     16  C   UNL     1      46.134   2.991   6.291  0.00  0.00    +0.000 C 
ENDBRANCH  10  11
ENDBRANCH   9  10
ENDBRANCH   8   9
ENDBRANCH   5   8
ENDBRANCH   1   2
BRANCH   1  19
ATOM     17  C   UNL     1      49.542   7.485  14.448  0.00  0.00    +0.000 C 
ATOM     18  O   UNL     1      49.929   7.626  13.291  0.00  0.00    +0.000 OA
ATOM     19  N   UNL     1      48.252   7.767  14.802  0.00  0.00    +0.000 N 
ATOM     20  H   UNL     1      47.939   7.597  15.746  0.00  0.00    +0.000 HD
BRANCH  17  28
ATOM     21  C   UNL     1      49.167   5.236  17.022  0.00  0.00    +0.000 A 
ATOM     22  N   UNL     1      49.292   4.429  18.098  0.00  0.00    +0.000 NA
ATOM     23  C   UNL     1      50.458   4.422  18.745  0.00  0.00    +0.000 A 
ATOM     24  N   UNL     1      51.544   5.132  18.448  0.00  0.00    +0.000 NA
ATOM     25  C   UNL     1      51.381   5.917  17.367  0.00  0.00    +0.000 A 
ATOM     26  S   UNL     1      52.668   6.893  16.842  0.00  0.00    +0.000 S 
ATOM     27  C   UNL     1      51.735   7.517  15.566  0.00  0.00    +0.000 A 
ATOM     28  C   UNL     1      50.445   7.001  15.504  0.00  0.00    +0.000 A 
ATOM     29  C   UNL     1      50.240   6.038  16.582  0.00  0.00    +0.000 A 
BRANCH  21  31
ATOM     30  C   UNL     1      47.073   4.214  16.795  0.00  0.00    +0.000 C 
ATOM     31  O   UNL     1      47.977   5.212  16.328  0.00  0.00    +0.000 OA
ENDBRANCH  21  31
ENDBRANCH  17  28
ENDBRANCH   1  19
TORSDOF 8
ENDMDL
MODEL 8
REMARK VINA RESULT:    -5.474      4.214      8.795
REMARK INTER + INTRA:          -9.163
REMARK INTER:                  -8.088
REMARK INTRA:                  -1.075
REMARK UNBOUND:                -1.130
REMARK  Name = 
REMARK  9 active torsions:
REMARK  status: ('A' for Active; 'I' for Inactive)
REMARK    1  A    between atoms: C_1  and  O_2
REMARK    2  A    between atoms: O_2  and  C_3
REMARK    3  A    between atoms: C_10  and  C_11
REMARK    4  A    between atoms: N_13  and  C_14
REMARK    5  A    between atoms: C_14  and  C_15
REMARK    6  A    between atoms: C_18  and  O_19
REMARK    7  A    between atoms: O_19  and  C_20
REMARK    8  A    between atoms: C_20  and  C_21
REMARK    9  A    between atoms: C_21  and  N_22
REMARK                            x       y       z     vdW  Elec       q    Type
REMARK                         _______ _______ _______ _____ _____    ______ ____
ROOT
ATOM      1  C   UNL     1      46.774   4.577  14.487  0.00  0.00    +0.000 C 
ENDROOT
BRANCH   1   2
ATOM      2  C   UNL     1      45.850   4.419  13.307  0.00  0.00    +0.000 A 
ATOM      3  C   UNL     1      45.030   5.480  12.910  0.00  0.00    +0.000 A 
ATOM      4  C   UNL     1      44.171   5.342  11.816  0.00  0.00    +0.000 A 
ATOM      5  C   UNL     1      44.136   4.152  11.074  0.00  0.00    +0.000 A 
ATOM      6  C   UNL     1      44.899   3.069  11.507  0.00  0.00    +0.000 A 
ATOM      7  C   UNL     1      45.750   3.202  12.617  0.00  0.00    +0.000 A 
BRANCH   5   8
ATOM      8  O   UNL     1      43.416   3.979   9.903  0.00  0.00    +0.000 OA
BRANCH   8   9
ATOM      9  C   UNL     1      44.174   4.372   8.751  0.00  0.00    +0.000 C 
BRANCH   9  10
ATOM     10  C   UNL     1      44.751   3.225   7.896  0.00  0.00    +0.000 C 
BRANCH  10  11
ATOM     11  N   UNL     1      46.233   3.171   8.026  0.00  0.00    +0.000 NA
ATOM     12  C   UNL     1      46.944   3.624   6.809  0.00  0.00    +0.000 C 
ATOM     13  C   UNL     1      47.031   2.592   5.661  0.00  0.00    +0.000 C 
ATOM     14  O   UNL     1      47.402   1.276   6.093  0.00  0.00    +0.000 OA
ATOM     15  C   UNL     1      46.593   0.843   7.190  0.00  0.00    +0.000 C 
ATOM     16  C   UNL     1      46.761   1.824   8.352  0.00  0.00    +0.000 C 
ENDBRANCH  10  11
ENDBRANCH   9  10
ENDBRANCH   8   9
ENDBRANCH   5   8
ENDBRANCH   1   2
BRANCH   1  19
ATOM     17  C   UNL     1      48.105   6.548  13.850  0.00  0.00    +0.000 C 
ATOM     18  O   UNL     1      48.680   5.918  12.967  0.00  0.00    +0.000 OA
ATOM     19  N   UNL     1      47.167   5.954  14.648  0.00  0.00    +0.000 N 
ATOM     20  H   UNL     1      46.742   6.475  15.401  0.00  0.00    +0.000 HD
BRANCH  17  28
ATOM     21  C   UNL     1      48.842   8.344  16.688  0.00  0.00    +0.000 A 
ATOM     22  N   UNL     1      49.136   9.275  17.622  0.00  0.00    +0.000 NA
ATOM     23  C   UNL     1      49.288  10.539  17.222  0.00  0.00    +0.000 A 
ATOM     24  N   UNL     1      49.185  11.003  15.978  0.00  0.00    +0.000 NA
ATOM     25  C   UNL     1      48.899  10.044  15.079  0.00  0.00    +0.000 A 
ATOM     26  S   UNL     1      48.733  10.459  13.441  0.00  0.00    +0.000 S 
ATOM     27  C   UNL     1      48.393   8.847  13.020  0.00  0.00    +0.000 A 
ATOM     28  C   UNL     1      48.405   7.967  14.097  0.00  0.00    +0.000 A 
ATOM     29  C   UNL     1      48.715   8.689  15.327  0.00  0.00    +0.000 A 
BRANCH  21  31
ATOM     30  C   UNL     1      49.967   6.330  17.090  0.00  0.00    +0.000 C 
ATOM     31  O   UNL     1      48.728   7.033  17.096  0.00  0.00    +0.000 OA
ENDBRANCH  21  31
ENDBRANCH  17  28
ENDBRANCH   1  19
TORSDOF 8
ENDMDL
MODEL 9
REMARK VINA RESULT:    -5.449      5.372      7.547
REMARK INTER + INTRA:          -9.126
REMARK INTER:                  -7.844
REMARK INTRA:                  -1.282
REMARK UNBOUND:                -1.130
REMARK  Name = 
REMARK  9 active torsions:
REMARK  status: ('A' for Active; 'I' for Inactive)
REMARK    1  A    between atoms: C_1  and  O_2
REMARK    2  A    between atoms: O_2  and  C_3
REMARK    3  A    between atoms: C_10  and  C_11
REMARK    4  A    between atoms: N_13  and  C_14
REMARK    5  A    between atoms: C_14  and  C_15
REMARK    6  A    between atoms: C_18  and  O_19
REMARK    7  A    between atoms: O_19  and  C_20
REMARK    8  A    between atoms: C_20  and  C_21
REMARK    9  A    between atoms: C_21  and  N_22
REMARK                            x       y       z     vdW  Elec       q    Type
REMARK                         _______ _______ _______ _____ _____    ______ ____
ROOT
ATOM      1  C   UNL     1      49.094   9.743  11.874  0.00  0.00    +0.000 C 
ENDROOT
BRANCH   1   2
ATOM      2  C   UNL     1      50.459   9.356  11.366  0.00  0.00    +0.000 A 
ATOM      3  C   UNL     1      51.384  10.344  11.013  0.00  0.00    +0.000 A 
ATOM      4  C   UNL     1      52.653   9.993  10.543  0.00  0.00    +0.000 A 
ATOM      5  C   UNL     1      53.037   8.647  10.445  0.00  0.00    +0.000 A 
ATOM      6  C   UNL     1      52.097   7.659  10.729  0.00  0.00    +0.000 A 
ATOM      7  C   UNL     1      50.816   8.011  11.185  0.00  0.00    +0.000 A 
BRANCH   5   8
ATOM      8  O   UNL     1      54.314   8.218  10.117  0.00  0.00    +0.000 OA
BRANCH   8   9
ATOM      9  C   UNL     1      54.703   8.662   8.810  0.00  0.00    +0.000 C 
BRANCH   9  10
ATOM     10  C   UNL     1      55.256   7.577   7.863  0.00  0.00    +0.000 C 
BRANCH  10  11
ATOM     11  N   UNL     1      54.456   7.522   6.609  0.00  0.00    +0.000 NA
ATOM     12  C   UNL     1      53.003   7.690   6.833  0.00  0.00    +0.000 C 
ATOM     13  C   UNL     1      52.254   6.436   7.338  0.00  0.00    +0.000 C 
ATOM     14  O   UNL     1      52.596   5.234   6.634  0.00  0.00    +0.000 OA
ATOM     15  C   UNL     1      54.013   5.062   6.561  0.00  0.00    +0.000 C 
ATOM     16  C   UNL     1      54.626   6.265   5.840  0.00  0.00    +0.000 C 
ENDBRANCH  10  11
ENDBRANCH   9  10
ENDBRANCH   8   9
ENDBRANCH   5   8
ENDBRANCH   1   2
BRANCH   1  19
ATOM     17  C   UNL     1      46.896   8.681  12.193  0.00  0.00    +0.000 C 
ATOM     18  O   UNL     1      46.347   9.773  12.309  0.00  0.00    +0.000 OA
ATOM     19  N   UNL     1      48.245   8.585  11.991  0.00  0.00    +0.000 N 
ATOM     20  H   UNL     1      48.686   7.678  11.948  0.00  0.00    +0.000 HD
BRANCH  17  28
ATOM     21  C   UNL     1      47.586   5.578  13.503  0.00  0.00    +0.000 A 
ATOM     22  N   UNL     1      47.595   4.291  13.914  0.00  0.00    +0.000 NA
ATOM     23  C   UNL     1      46.519   3.544  13.663  0.00  0.00    +0.000 A 
ATOM     24  N   UNL     1      45.405   3.928  13.043  0.00  0.00    +0.000 NA
ATOM     25  C   UNL     1      45.433   5.216  12.657  0.00  0.00    +0.000 A 
ATOM     26  S   UNL     1      44.091   5.875  11.850  0.00  0.00    +0.000 S 
ATOM     27  C   UNL     1      44.859   7.385  11.710  0.00  0.00    +0.000 A 
ATOM     28  C   UNL     1      46.131   7.427  12.272  0.00  0.00    +0.000 A 
ATOM     29  C   UNL     1      46.467   6.126  12.843  0.00  0.00    +0.000 A 
BRANCH  21  31
ATOM     30  C   UNL     1      48.713   6.793  15.157  0.00  0.00    +0.000 C 
ATOM     31  O   UNL     1      48.680   6.360  13.800  0.00  0.00    +0.000 OA
ENDBRANCH  21  31
ENDBRANCH  17  28
ENDBRANCH   1  19
TORSDOF 8
ENDMDL
