MODEL 1
REMARK VINA RESULT:    -8.814      0.000      0.000
REMARK INTER + INTRA:         -11.987
REMARK INTER:                 -11.390
REMARK INTRA:                  -0.597
REMARK UNBOUND:                -0.597
REMARK  Name = 
REMARK  5 active torsions:
REMARK  status: ('A' for Active; 'I' for Inactive)
REMARK    1  A    between atoms: C_2  and  C_4
REMARK    2  A    between atoms: C_7  and  C_8
REMARK    3  A    between atoms: C_8  and  C_9
REMARK    4  A    between atoms: C_9  and  C_10
REMARK    5  A    between atoms: C_14  and  C_15
REMARK                            x       y       z     vdW  Elec       q    Type
REMARK                         _______ _______ _______ _____ _____    ______ ____
ROOT
ATOM      1  C   UNL     1      44.031   4.803  11.498  0.00  0.00    +0.000 C 
ATOM      2  C   UNL     1      42.819   5.205  12.339  0.00  0.00    +0.000 C 
ATOM      3  C   UNL     1      43.040   5.855  11.012  0.00  0.00    +0.000 C 
ENDROOT
BRANCH   1   4
ATOM      4  C   UNL     1      45.383   5.281  12.027  0.00  0.00    +0.000 A 
ATOM      5  C   UNL     1      46.139   6.256  11.359  0.00  0.00    +0.000 A 
ATOM      6  C   UNL     1      47.307   6.771  11.917  0.00  0.00    +0.000 A 
ATOM      7  C   UNL     1      47.759   6.301  13.150  0.00  0.00    +0.000 A 
ATOM      8  C   UNL     1      47.055   5.307  13.849  0.00  0.00    +0.000 A 
ATOM      9  C   UNL     1      45.878   4.809  13.259  0.00  0.00    +0.000 A 
BRANCH   8  10
ATOM     10  C   UNL     1      47.492   4.840  15.175  0.00  0.00    +0.000 A 
ATOM     11  C   UNL     1      47.151   3.601  15.692  0.00  0.00    +0.000 A 
ATOM     12  N   UNL     1      47.553   3.123  16.889  0.00  0.00    +0.000 NA
ATOM     13  C   UNL     1      48.347   3.936  17.599  0.00  0.00    +0.000 A 
ATOM     14  N   UNL     1      48.755   5.156  17.225  0.00  0.00    +0.000 NA
ATOM     15  C   UNL     1      48.311   5.576  16.019  0.00  0.00    +0.000 A 
ENDBRANCH   8  10
ENDBRANCH   1   4
BRANCH   1  16
ATOM     16  C   UNL     1      43.962   3.384  10.954  0.00  0.00    +0.000 C 
BRANCH  16  20
ATOM     17  C   UNL     1      46.406   2.724   7.531  0.00  0.00    +0.000 A 
ATOM     18  C   UNL     1      45.917   4.009   7.767  0.00  0.00    +0.000 A 
ATOM     19  C   UNL     1      45.052   4.223   8.844  0.00  0.00    +0.000 A 
ATOM     20  C   UNL     1      44.707   3.149   9.662  0.00  0.00    +0.000 A 
ATOM     21  N   UNL     1      45.136   1.887   9.417  0.00  0.00    +0.000 NA
ATOM     22  C   UNL     1      45.964   1.700   8.357  0.00  0.00    +0.000 A 
BRANCH  17  24
ATOM     23  N   UNL     1      47.337   3.199   5.338  0.00  0.00    +0.000 N 
ATOM     24  C   UNL     1      47.367   2.413   6.459  0.00  0.00    +0.000 C 
ATOM     25  O   UNL     1      48.196   1.522   6.582  0.00  0.00    +0.000 OA
ATOM     26  H   UNL     1      48.084   3.051   4.669  0.00  0.00    +0.000 HD
ATOM     27  H   UNL     1      46.868   4.094   5.316  0.00  0.00    +0.000 HD
ENDBRANCH  17  24
ENDBRANCH  16  20
ENDBRANCH   1  16
TORSDOF 5
ENDMDL
MODEL 2
REMARK VINA RESULT:    -8.669      2.453      3.544
REMARK INTER + INTRA:         -11.801
REMARK INTER:                 -10.928
REMARK INTRA:                  -0.872
REMARK UNBOUND:                -0.597
REMARK  Name = 
REMARK  5 active torsions:
REMARK  status: ('A' for Active; 'I' for Inactive)
REMARK    1  A    between atoms: C_2  and  C_4
REMARK    2  A    between atoms: C_7  and  C_8
REMARK    3  A    between atoms: C_8  and  C_9
REMARK    4  A    between atoms: C_9  and  C_10
REMARK    5  A    between atoms: C_14  and  C_15
REMARK                            x       y       z     vdW  Elec       q    Type
REMARK                         _______ _______ _______ _____ _____    ______ ____
ROOT
ATOM      1  C   UNL     1      43.906   4.692  11.558  0.00  0.00    +0.000 C 
ATOM      2  C   UNL     1      42.632   5.133  12.280  0.00  0.00    +0.000 C 
ATOM      3  C   UNL     1      43.039   5.826  11.020  0.00  0.00    +0.000 C 
ENDROOT
BRANCH   1   4
ATOM      4  C   UNL     1      45.214   5.058  12.256  0.00  0.00    +0.000 A 
ATOM      5  C   UNL     1      45.868   4.169  13.122  0.00  0.00    +0.000 A 
ATOM      6  C   UNL     1      47.121   4.468  13.653  0.00  0.00    +0.000 A 
ATOM      7  C   UNL     1      47.738   5.680  13.347  0.00  0.00    +0.000 A 
ATOM      8  C   UNL     1      47.117   6.619  12.506  0.00  0.00    +0.000 A 
ATOM      9  C   UNL     1      45.853   6.285  11.985  0.00  0.00    +0.000 A 
BRANCH   8  10
ATOM     10  C   UNL     1      47.781   7.878  12.134  0.00  0.00    +0.000 A 
ATOM     11  C   UNL     1      47.152   9.111  12.191  0.00  0.00    +0.000 A 
ATOM     12  N   UNL     1      47.732  10.292  11.886  0.00  0.00    +0.000 NA
ATOM     13  C   UNL     1      49.016  10.226  11.509  0.00  0.00    +0.000 A 
ATOM     14  N   UNL     1      49.746   9.107  11.408  0.00  0.00    +0.000 NA
ATOM     15  C   UNL     1      49.103   7.960  11.722  0.00  0.00    +0.000 A 
ENDBRANCH   8  10
ENDBRANCH   1   4
BRANCH   1  16
ATOM     16  C   UNL     1      43.816   3.306  10.938  0.00  0.00    +0.000 C 
BRANCH  16  20
ATOM     17  C   UNL     1      46.402   2.720   7.607  0.00  0.00    +0.000 A 
ATOM     18  C   UNL     1      45.975   4.015   7.903  0.00  0.00    +0.000 A 
ATOM     19  C   UNL     1      45.066   4.211   8.947  0.00  0.00    +0.000 A 
ATOM     20  C   UNL     1      44.616   3.110   9.672  0.00  0.00    +0.000 A 
ATOM     21  N   UNL     1      44.986   1.842   9.366  0.00  0.00    +0.000 NA
ATOM     22  C   UNL     1      45.858   1.674   8.339  0.00  0.00    +0.000 A 
BRANCH  17  24
ATOM     23  N   UNL     1      47.352   3.161   5.414  0.00  0.00    +0.000 N 
ATOM     24  C   UNL     1      47.401   2.422   6.566  0.00  0.00    +0.000 C 
ATOM     25  O   UNL     1      48.274   1.583   6.740  0.00  0.00    +0.000 OA
ATOM     26  H   UNL     1      48.121   3.029   4.766  0.00  0.00    +0.000 HD
ATOM     27  H   UNL     1      46.837   4.028   5.348  0.00  0.00    +0.000 HD
ENDBRANCH  17  24
ENDBRANCH  16  20
ENDBRANCH   1  16
TORSDOF 5
ENDMDL
MODEL 3
REMARK VINA RESULT:    -7.684      2.053      2.747
REMARK INTER + INTRA:         -10.528
REMARK INTER:                 -10.727
REMARK INTRA:                   0.199
REMARK UNBOUND:                -0.597
REMARK  Name = 
REMARK  5 active torsions:
REMARK  status: ('A' for Active; 'I' for Inactive)
REMARK    1  A    between atoms: C_2  and  C_4
REMARK    2  A    between atoms: C_7  and  C_8
REMARK    3  A    between atoms: C_8  and  C_9
REMARK    4  A    between atoms: C_9  and  C_10
REMARK    5  A    between atoms: C_14  and  C_15
REMARK                            x       y       z     vdW  Elec       q    Type
REMARK                         _______ _______ _______ _____ _____    ______ ____
ROOT
ATOM      1  C   UNL     1      44.278   4.754  11.647  0.00  0.00    +0.000 C 
ATOM      2  C   UNL     1      44.958   3.625  12.423  0.00  0.00    +0.000 C 
ATOM      3  C   UNL     1      43.613   4.109  12.859  0.00  0.00    +0.000 C 
ENDROOT
BRANCH   1   4
ATOM      4  C   UNL     1      44.901   6.137  11.823  0.00  0.00    +0.000 A 
ATOM      5  C   UNL     1      44.326   7.288  11.263  0.00  0.00    +0.000 A 
ATOM      6  C   UNL     1      44.836   8.555  11.535  0.00  0.00    +0.000 A 
ATOM      7  C   UNL     1      45.952   8.698  12.358  0.00  0.00    +0.000 A 
ATOM      8  C   UNL     1      46.583   7.578  12.925  0.00  0.00    +0.000 A 
ATOM      9  C   UNL     1      46.042   6.312  12.631  0.00  0.00    +0.000 A 
BRANCH   8  10
ATOM     10  C   UNL     1      47.729   7.718  13.837  0.00  0.00    +0.000 A 
ATOM     11  C   UNL     1      47.996   8.878  14.545  0.00  0.00    +0.000 A 
ATOM     12  N   UNL     1      49.019   9.040  15.412  0.00  0.00    +0.000 NA
ATOM     13  C   UNL     1      49.810   7.972  15.579  0.00  0.00    +0.000 A 
ATOM     14  N   UNL     1      49.671   6.790  14.963  0.00  0.00    +0.000 NA
ATOM     15  C   UNL     1      48.631   6.698  14.103  0.00  0.00    +0.000 A 
ENDBRANCH   8  10
ENDBRANCH   1   4
BRANCH   1  16
ATOM     16  C   UNL     1      43.843   4.363  10.243  0.00  0.00    +0.000 C 
BRANCH  16  20
ATOM     17  C   UNL     1      46.627   2.714   7.477  0.00  0.00    +0.000 A 
ATOM     18  C   UNL     1      45.973   1.855   8.361  0.00  0.00    +0.000 A 
ATOM     19  C   UNL     1      45.115   2.392   9.324  0.00  0.00    +0.000 A 
ATOM     20  C   UNL     1      44.925   3.772   9.372  0.00  0.00    +0.000 A 
ATOM     21  N   UNL     1      45.588   4.622   8.549  0.00  0.00    +0.000 NA
ATOM     22  C   UNL     1      46.428   4.079   7.631  0.00  0.00    +0.000 A 
BRANCH  17  24
ATOM     23  N   UNL     1      47.715   3.081   5.336  0.00  0.00    +0.000 N 
ATOM     24  C   UNL     1      47.502   2.236   6.392  0.00  0.00    +0.000 C 
ATOM     25  O   UNL     1      48.060   1.149   6.453  0.00  0.00    +0.000 OA
ATOM     26  H   UNL     1      48.416   2.787   4.664  0.00  0.00    +0.000 HD
ATOM     27  H   UNL     1      47.503   4.068   5.380  0.00  0.00    +0.000 HD
ENDBRANCH  17  24
ENDBRANCH  16  20
ENDBRANCH   1  16
TORSDOF 5
ENDMDL
MODEL 4
REMARK VINA RESULT:    -7.669      2.623      7.535
REMARK INTER + INTRA:         -10.508
REMARK INTER:                  -9.764
REMARK INTRA:                  -0.744
REMARK UNBOUND:                -0.597
REMARK  Name = 
REMARK  5 active torsions:
REMARK  status: ('A' for Active; 'I' for Inactive)
REMARK    1  A    between atoms: C_2  and  C_4
REMARK    2  A    between atoms: C_7  and  C_8
REMARK    3  A    between atoms: C_8  and  C_9
REMARK    4  A    between atoms: C_9  and  C_10
REMARK    5  A    between atoms: C_14  and  C_15
REMARK                            x       y       z     vdW  Elec       q    Type
REMARK                         _______ _______ _______ _____ _____    ______ ____
ROOT
ATOM      1  C   UNL     1      46.361   7.363  12.336  0.00  0.00    +0.000 C 
ATOM      2  C   UNL     1      46.361   8.785  11.774  0.00  0.00    +0.000 C 
ATOM      3  C   UNL     1      45.774   8.529  13.125  0.00  0.00    +0.000 C 
ENDROOT
BRANCH   1   4
ATOM      4  C   UNL     1      45.392   6.393  11.662  0.00  0.00    +0.000 A 
ATOM      5  C   UNL     1      44.005   6.473  11.857  0.00  0.00    +0.000 A 
ATOM      6  C   UNL     1      43.127   5.663  11.139  0.00  0.00    +0.000 A 
ATOM      7  C   UNL     1      43.623   4.734  10.225  0.00  0.00    +0.000 A 
ATOM      8  C   UNL     1      45.004   4.594  10.009  0.00  0.00    +0.000 A 
ATOM      9  C   UNL     1      45.863   5.429  10.748  0.00  0.00    +0.000 A 
BRANCH   8  10
ATOM     10  C   UNL     1      45.537   3.655   9.009  0.00  0.00    +0.000 A 
ATOM     11  C   UNL     1      46.120   4.064   7.821  0.00  0.00    +0.000 A 
ATOM     12  N   UNL     1      46.646   3.239   6.891  0.00  0.00    +0.000 NA
ATOM     13  C   UNL     1      46.586   1.931   7.177  0.00  0.00    +0.000 A 
ATOM     14  N   UNL     1      46.052   1.395   8.283  0.00  0.00    +0.000 NA
ATOM     15  C   UNL     1      45.538   2.277   9.170  0.00  0.00    +0.000 A 
ENDBRANCH   8  10
ENDBRANCH   1   4
BRANCH   1  16
ATOM     16  C   UNL     1      47.746   6.834  12.677  0.00  0.00    +0.000 C 
BRANCH  16  20
ATOM     17  C   UNL     1      47.588   4.562  16.274  0.00  0.00    +0.000 A 
ATOM     18  C   UNL     1      48.263   5.783  16.282  0.00  0.00    +0.000 A 
ATOM     19  C   UNL     1      48.388   6.502  15.090  0.00  0.00    +0.000 A 
ATOM     20  C   UNL     1      47.825   5.987  13.924  0.00  0.00    +0.000 A 
ATOM     21  N   UNL     1      47.207   4.780  13.891  0.00  0.00    +0.000 NA
ATOM     22  C   UNL     1      47.111   4.093  15.058  0.00  0.00    +0.000 A 
BRANCH  17  24
ATOM     23  N   UNL     1      47.851   4.252  18.670  0.00  0.00    +0.000 N 
ATOM     24  C   UNL     1      47.355   3.764  17.491  0.00  0.00    +0.000 C 
ATOM     25  O   UNL     1      46.701   2.731  17.461  0.00  0.00    +0.000 OA
ATOM     26  H   UNL     1      47.575   3.756  19.509  0.00  0.00    +0.000 HD
ATOM     27  H   UNL     1      48.146   5.213  18.777  0.00  0.00    +0.000 HD
ENDBRANCH  17  24
ENDBRANCH  16  20
ENDBRANCH   1  16
TORSDOF 5
ENDMDL
MODEL 5
REMARK VINA RESULT:    -6.827      2.751      4.516
REMARK INTER + INTRA:          -9.420
REMARK INTER:                  -8.559
REMARK INTRA:                  -0.861
REMARK UNBOUND:                -0.597
REMARK  Name = 
REMARK  5 active torsions:
REMARK  status: ('A' for Active; 'I' for Inactive)
REMARK    1  A    between atoms: C_2  and  C_4
REMARK    2  A    between atoms: C_7  and  C_8
REMARK    3  A    between atoms: C_8  and  C_9
REMARK    4  A    between atoms: C_9  and  C_10
REMARK    5  A    between atoms: C_14  and  C_15
REMARK                            x       y       z     vdW  Elec       q    Type
REMARK                         _______ _______ _______ _____ _____    ______ ____
ROOT
ATOM      1  C   UNL     1      47.878   8.034  12.602  0.00  0.00    +0.000 C 
ATOM      2  C   UNL     1      48.621   9.079  11.768  0.00  0.00    +0.000 C 
ATOM      3  C   UNL     1      48.935   7.630  11.580  0.00  0.00    +0.000 C 
ENDROOT
BRANCH   1   4
ATOM      4  C   UNL     1      48.256   7.989  14.082  0.00  0.00    +0.000 A 
ATOM      5  C   UNL     1      48.233   9.136  14.889  0.00  0.00    +0.000 A 
ATOM      6  C   UNL     1      48.459   9.058  16.262  0.00  0.00    +0.000 A 
ATOM      7  C   UNL     1      48.738   7.827  16.855  0.00  0.00    +0.000 A 
ATOM      8  C   UNL     1      48.799   6.651  16.090  0.00  0.00    +0.000 A 
ATOM      9  C   UNL     1      48.564   6.764  14.706  0.00  0.00    +0.000 A 
BRANCH   8  10
ATOM     10  C   UNL     1      49.040   5.339  16.711  0.00  0.00    +0.000 A 
ATOM     11  C   UNL     1      48.125   4.300  16.668  0.00  0.00    +0.000 A 
ATOM     12  N   UNL     1      48.317   3.074  17.199  0.00  0.00    +0.000 NA
ATOM     13  C   UNL     1      49.499   2.883  17.800  0.00  0.00    +0.000 A 
ATOM     14  N   UNL     1      50.475   3.794  17.917  0.00  0.00    +0.000 NA
ATOM     15  C   UNL     1      50.215   5.002  17.369  0.00  0.00    +0.000 A 
ENDBRANCH   8  10
ENDBRANCH   1   4
BRANCH   1  16
ATOM     16  C   UNL     1      46.401   7.907  12.260  0.00  0.00    +0.000 C 
BRANCH  16  20
ATOM     17  C   UNL     1      44.678   4.111  11.398  0.00  0.00    +0.000 A 
ATOM     18  C   UNL     1      44.947   4.438  12.728  0.00  0.00    +0.000 A 
ATOM     19  C   UNL     1      45.582   5.648  13.017  0.00  0.00    +0.000 A 
ATOM     20  C   UNL     1      45.923   6.504  11.972  0.00  0.00    +0.000 A 
ATOM     21  N   UNL     1      45.709   6.180  10.673  0.00  0.00    +0.000 NA
ATOM     22  C   UNL     1      45.104   4.992  10.414  0.00  0.00    +0.000 A 
BRANCH  17  24
ATOM     23  N   UNL     1      44.472   2.168   9.954  0.00  0.00    +0.000 N 
ATOM     24  C   UNL     1      43.960   2.887  11.000  0.00  0.00    +0.000 C 
ATOM     25  O   UNL     1      42.974   2.498  11.611  0.00  0.00    +0.000 OA
ATOM     26  H   UNL     1      44.039   1.268   9.777  0.00  0.00    +0.000 HD
ATOM     27  H   UNL     1      45.414   2.302   9.614  0.00  0.00    +0.000 HD
ENDBRANCH  17  24
ENDBRANCH  16  20
ENDBRANCH   1  16
TORSDOF 5
ENDMDL
MODEL 6
REMARK VINA RESULT:    -6.692      3.013      7.609
REMARK INTER + INTRA:          -9.245
REMARK INTER:                  -8.724
REMARK INTRA:                  -0.521
REMARK UNBOUND:                -0.597
REMARK  Name = 
REMARK  5 active torsions:
REMARK  status: ('A' for Active; 'I' for Inactive)
REMARK    1  A    between atoms: C_2  and  C_4
REMARK    2  A    between atoms: C_7  and  C_8
REMARK    3  A    between atoms: C_8  and  C_9
REMARK    4  A    between atoms: C_9  and  C_10
REMARK    5  A    between atoms: C_14  and  C_15
REMARK                            x       y       z     vdW  Elec       q    Type
REMARK                         _______ _______ _______ _____ _____    ______ ____
ROOT
ATOM      1  C   UNL     1      48.158   8.037  12.588  0.00  0.00    +0.000 C 
ATOM      2  C   UNL     1      48.919   9.035  11.714  0.00  0.00    +0.000 C 
ATOM      3  C   UNL     1      48.454   9.452  13.072  0.00  0.00    +0.000 C 
ENDROOT
BRANCH   1   4
ATOM      4  C   UNL     1      46.736   7.717  12.130  0.00  0.00    +0.000 A 
ATOM      5  C   UNL     1      45.692   8.647  12.245  0.00  0.00    +0.000 A 
ATOM      6  C   UNL     1      44.432   8.388  11.710  0.00  0.00    +0.000 A 
ATOM      7  C   UNL     1      44.182   7.176  11.068  0.00  0.00    +0.000 A 
ATOM      8  C   UNL     1      45.183   6.198  10.947  0.00  0.00    +0.000 A 
ATOM      9  C   UNL     1      46.445   6.492  11.496  0.00  0.00    +0.000 A 
BRANCH   8  10
ATOM     10  C   UNL     1      44.947   4.938  10.225  0.00  0.00    +0.000 A 
ATOM     11  C   UNL     1      45.483   4.668   8.977  0.00  0.00    +0.000 A 
ATOM     12  N   UNL     1      45.315   3.515   8.293  0.00  0.00    +0.000 NA
ATOM     13  C   UNL     1      44.573   2.583   8.905  0.00  0.00    +0.000 A 
ATOM     14  N   UNL     1      43.994   2.706  10.108  0.00  0.00    +0.000 NA
ATOM     15  C   UNL     1      44.197   3.887  10.734  0.00  0.00    +0.000 A 
ENDBRANCH   8  10
ENDBRANCH   1   4
BRANCH   1  16
ATOM     16  C   UNL     1      49.007   6.873  13.078  0.00  0.00    +0.000 C 
BRANCH  16  20
ATOM     17  C   UNL     1      47.924   4.700  16.574  0.00  0.00    +0.000 A 
ATOM     18  C   UNL     1      47.188   4.499  15.406  0.00  0.00    +0.000 A 
ATOM     19  C   UNL     1      47.485   5.261  14.273  0.00  0.00    +0.000 A 
ATOM     20  C   UNL     1      48.515   6.197  14.335  0.00  0.00    +0.000 A 
ATOM     21  N   UNL     1      49.208   6.436  15.476  0.00  0.00    +0.000 NA
ATOM     22  C   UNL     1      48.893   5.694  16.568  0.00  0.00    +0.000 A 
BRANCH  17  24
ATOM     23  N   UNL     1      46.923   2.797  17.706  0.00  0.00    +0.000 N 
ATOM     24  C   UNL     1      47.725   3.903  17.798  0.00  0.00    +0.000 C 
ATOM     25  O   UNL     1      48.292   4.186  18.844  0.00  0.00    +0.000 OA
ATOM     26  H   UNL     1      46.899   2.195  18.522  0.00  0.00    +0.000 HD
ATOM     27  H   UNL     1      46.669   2.384  16.820  0.00  0.00    +0.000 HD
ENDBRANCH  17  24
ENDBRANCH  16  20
ENDBRANCH   1  16
TORSDOF 5
ENDMDL
MODEL 7
REMARK VINA RESULT:    -6.276      3.763      8.150
REMARK INTER + INTRA:          -8.708
REMARK INTER:                  -7.498
REMARK INTRA:                  -1.210
REMARK UNBOUND:                -0.597
REMARK  Name = 
REMARK  5 active torsions:
REMARK  status: ('A' for Active; 'I' for Inactive)
REMARK    1  A    between atoms: C_2  and  C_4
REMARK    2  A    between atoms: C_7  and  C_8
REMARK    3  A    between atoms: C_8  and  C_9
REMARK    4  A    between atoms: C_9  and  C_10
REMARK    5  A    between atoms: C_14  and  C_15
REMARK                            x       y       z     vdW  Elec       q    Type
REMARK                         _______ _______ _______ _____ _____    ______ ____
ROOT
ATOM      1  C   UNL     1      49.223   8.390  17.363  0.00  0.00    +0.000 C 
ATOM      2  C   UNL     1      49.076   9.878  17.685  0.00  0.00    +0.000 C 
ATOM      3  C   UNL     1      47.925   8.956  17.929  0.00  0.00    +0.000 C 
ENDROOT
BRANCH   1   4
ATOM      4  C   UNL     1      49.266   8.043  15.875  0.00  0.00    +0.000 A 
ATOM      5  C   UNL     1      50.350   8.400  15.060  0.00  0.00    +0.000 A 
ATOM      6  C   UNL     1      50.433   7.970  13.738  0.00  0.00    +0.000 A 
ATOM      7  C   UNL     1      49.414   7.189  13.193  0.00  0.00    +0.000 A 
ATOM      8  C   UNL     1      48.292   6.824  13.956  0.00  0.00    +0.000 A 
ATOM      9  C   UNL     1      48.241   7.274  15.289  0.00  0.00    +0.000 A 
BRANCH   8  10
ATOM     10  C   UNL     1      47.236   5.957  13.409  0.00  0.00    +0.000 A 
ATOM     11  C   UNL     1      46.638   6.176  12.179  0.00  0.00    +0.000 A 
ATOM     12  N   UNL     1      45.687   5.391  11.628  0.00  0.00    +0.000 NA
ATOM     13  C   UNL     1      45.326   4.325  12.354  0.00  0.00    +0.000 A 
ATOM     14  N   UNL     1      45.817   3.991  13.555  0.00  0.00    +0.000 NA
ATOM     15  C   UNL     1      46.761   4.823  14.051  0.00  0.00    +0.000 A 
ENDBRANCH   8  10
ENDBRANCH   1   4
BRANCH   1  16
ATOM     16  C   UNL     1      50.194   7.654  18.274  0.00  0.00    +0.000 C 
BRANCH  16  20
ATOM     17  C   UNL     1      50.184   3.474  17.468  0.00  0.00    +0.000 A 
ATOM     18  C   UNL     1      49.012   4.068  17.939  0.00  0.00    +0.000 A 
ATOM     19  C   UNL     1      49.024   5.423  18.279  0.00  0.00    +0.000 A 
ATOM     20  C   UNL     1      50.203   6.151  18.131  0.00  0.00    +0.000 A 
ATOM     21  N   UNL     1      51.360   5.577  17.719  0.00  0.00    +0.000 NA
ATOM     22  C   UNL     1      51.329   4.256  17.408  0.00  0.00    +0.000 A 
BRANCH  17  24
ATOM     23  N   UNL     1      51.089   1.233  17.719  0.00  0.00    +0.000 N 
ATOM     24  C   UNL     1      50.253   2.069  17.029  0.00  0.00    +0.000 C 
ATOM     25  O   UNL     1      49.553   1.650  16.117  0.00  0.00    +0.000 OA
ATOM     26  H   UNL     1      51.030   0.249  17.484  0.00  0.00    +0.000 HD
ATOM     27  H   UNL     1      51.463   1.469  18.628  0.00  0.00    +0.000 HD
ENDBRANCH  17  24
ENDBRANCH  16  20
ENDBRANCH   1  16
TORSDOF 5
ENDMDL
MODEL 8
REMARK VINA RESULT:    -6.250      3.668      8.378
REMARK INTER + INTRA:          -8.674
REMARK INTER:                  -8.438
REMARK INTRA:                  -0.236
REMARK UNBOUND:                -0.597
REMARK  Name = 
REMARK  5 active torsions:
REMARK  status: ('A' for Active; 'I' for Inactive)
REMARK    1  A    between atoms: C_2  and  C_4
REMARK    2  A    between atoms: C_7  and  C_8
REMARK    3  A    between atoms: C_8  and  C_9
REMARK    4  A    between atoms: C_9  and  C_10
REMARK    5  A    between atoms: C_14  and  C_15
REMARK                            x       y       z     vdW  Elec       q    Type
REMARK                         _______ _______ _______ _____ _____    ______ ____
ROOT
ATOM      1  C   UNL     1      48.320   4.878  17.212  0.00  0.00    +0.000 C 
ATOM      2  C   UNL     1      47.088   4.974  18.115  0.00  0.00    +0.000 C 
ATOM      3  C   UNL     1      47.443   3.662  17.493  0.00  0.00    +0.000 C 
ENDROOT
BRANCH   1   4
ATOM      4  C   UNL     1      48.188   5.559  15.851  0.00  0.00    +0.000 A 
ATOM      5  C   UNL     1      49.030   6.612  15.464  0.00  0.00    +0.000 A 
ATOM      6  C   UNL     1      48.981   7.139  14.175  0.00  0.00    +0.000 A 
ATOM      7  C   UNL     1      48.067   6.637  13.249  0.00  0.00    +0.000 A 
ATOM      8  C   UNL     1      47.184   5.600  13.591  0.00  0.00    +0.000 A 
ATOM      9  C   UNL     1      47.260   5.089  14.901  0.00  0.00    +0.000 A 
BRANCH   8  10
ATOM     10  C   UNL     1      46.252   5.025  12.608  0.00  0.00    +0.000 A 
ATOM     11  C   UNL     1      45.703   3.759  12.734  0.00  0.00    +0.000 A 
ATOM     12  N   UNL     1      44.824   3.205  11.871  0.00  0.00    +0.000 NA
ATOM     13  C   UNL     1      44.475   3.972  10.830  0.00  0.00    +0.000 A 
ATOM     14  N   UNL     1      44.925   5.210  10.582  0.00  0.00    +0.000 NA
ATOM     15  C   UNL     1      45.807   5.701  11.482  0.00  0.00    +0.000 A 
ENDBRANCH   8  10
ENDBRANCH   1   4
BRANCH   1  16
ATOM     16  C   UNL     1      49.639   5.049  17.949  0.00  0.00    +0.000 C 
BRANCH  16  20
ATOM     17  C   UNL     1      52.309   1.744  17.684  0.00  0.00    +0.000 A 
ATOM     18  C   UNL     1      52.768   2.932  18.255  0.00  0.00    +0.000 A 
ATOM     19  C   UNL     1      51.927   4.047  18.279  0.00  0.00    +0.000 A 
ATOM     20  C   UNL     1      50.645   3.943  17.741  0.00  0.00    +0.000 A 
ATOM     21  N   UNL     1      50.202   2.810  17.142  0.00  0.00    +0.000 NA
ATOM     22  C   UNL     1      51.043   1.744  17.117  0.00  0.00    +0.000 A 
BRANCH  17  24
ATOM     23  N   UNL     1      52.666  -0.534  18.450  0.00  0.00    +0.000 N 
ATOM     24  C   UNL     1      53.101   0.502  17.667  0.00  0.00    +0.000 C 
ATOM     25  O   UNL     1      54.080   0.378  16.944  0.00  0.00    +0.000 OA
ATOM     26  H   UNL     1      53.149  -1.417  18.330  0.00  0.00    +0.000 HD
ATOM     27  H   UNL     1      51.733  -0.567  18.836  0.00  0.00    +0.000 HD
ENDBRANCH  17  24
ENDBRANCH  16  20
ENDBRANCH   1  16
TORSDOF 5
ENDMDL
MODEL 9
REMARK VINA RESULT:    -6.147      4.032      6.655
REMARK INTER + INTRA:          -8.541
REMARK INTER:                  -7.820
REMARK INTRA:                  -0.722
REMARK UNBOUND:                -0.597
REMARK  Name = 
REMARK  5 active torsions:
REMARK  status: ('A' for Active; 'I' for Inactive)
REMARK    1  A    between atoms: C_2  and  C_4
REMARK    2  A    between atoms: C_7  and  C_8
REMARK    3  A    between atoms: C_8  and  C_9
REMARK    4  A    between atoms: C_9  and  C_10
REMARK    5  A    between atoms: C_14  and  C_15
REMARK                            x       y       z     vdW  Elec       q    Type
REMARK                         _______ _______ _______ _____ _____    ______ ____
ROOT
ATOM      1  C   UNL     1      47.982   3.741  16.671  0.00  0.00    +0.000 C 
ATOM      2  C   UNL     1      47.287   2.846  17.698  0.00  0.00    +0.000 C 
ATOM      3  C   UNL     1      46.881   4.280  17.578  0.00  0.00    +0.000 C 
ENDROOT
BRANCH   1   4
ATOM      4  C   UNL     1      49.427   4.113  16.998  0.00  0.00    +0.000 A 
ATOM      5  C   UNL     1      49.856   5.447  17.055  0.00  0.00    +0.000 A 
ATOM      6  C   UNL     1      51.143   5.775  17.476  0.00  0.00    +0.000 A 
ATOM      7  C   UNL     1      52.041   4.767  17.827  0.00  0.00    +0.000 A 
ATOM      8  C   UNL     1      51.672   3.413  17.764  0.00  0.00    +0.000 A 
ATOM      9  C   UNL     1      50.364   3.117  17.337  0.00  0.00    +0.000 A 
BRANCH   8  10
ATOM     10  C   UNL     1      52.592   2.343  18.183  0.00  0.00    +0.000 A 
ATOM     11  C   UNL     1      52.446   1.022  17.792  0.00  0.00    +0.000 A 
ATOM     12  N   UNL     1      53.281   0.017  18.130  0.00  0.00    +0.000 NA
ATOM     13  C   UNL     1      54.324   0.363  18.896  0.00  0.00    +0.000 A 
ATOM     14  N   UNL     1      54.590   1.597  19.346  0.00  0.00    +0.000 NA
ATOM     15  C   UNL     1      53.710   2.555  18.977  0.00  0.00    +0.000 A 
ENDBRANCH   8  10
ENDBRANCH   1   4
BRANCH   1  16
ATOM     16  C   UNL     1      47.669   3.381  15.226  0.00  0.00    +0.000 C 
BRANCH  16  20
ATOM     17  C   UNL     1      45.654   6.144  12.691  0.00  0.00    +0.000 A 
ATOM     18  C   UNL     1      46.883   6.512  13.239  0.00  0.00    +0.000 A 
ATOM     19  C   UNL     1      47.518   5.645  14.133  0.00  0.00    +0.000 A 
ATOM     20  C   UNL     1      46.913   4.430  14.447  0.00  0.00    +0.000 A 
ATOM     21  N   UNL     1      45.698   4.079  13.958  0.00  0.00    +0.000 NA
ATOM     22  C   UNL     1      45.093   4.943  13.103  0.00  0.00    +0.000 A 
BRANCH  17  24
ATOM     23  N   UNL     1      43.952   6.354  10.969  0.00  0.00    +0.000 N 
ATOM     24  C   UNL     1      44.940   6.963  11.696  0.00  0.00    +0.000 C 
ATOM     25  O   UNL     1      45.182   8.154  11.557  0.00  0.00    +0.000 OA
ATOM     26  H   UNL     1      43.390   6.961  10.383  0.00  0.00    +0.000 HD
ATOM     27  H   UNL     1      43.544   5.471  11.243  0.00  0.00    +0.000 HD
ENDBRANCH  17  24
ENDBRANCH  16  20
ENDBRANCH   1  16
TORSDOF 5
ENDMDL
