MODEL 1
REMARK VINA RESULT:    -8.673      0.000      0.000
REMARK INTER + INTRA:         -11.104
REMARK INTER:                 -10.701
REMARK INTRA:                  -0.403
REMARK UNBOUND:                -0.403
REMARK  Name = 
REMARK  4 active torsions:
REMARK  status: ('A' for Active; 'I' for Inactive)
REMARK    1  A    between atoms: C_2  and  C_4
REMARK    2  A    between atoms: N_8  and  C_9
REMARK    3  A    between atoms: C_9  and  C_10
REMARK    4  A    between atoms: C_14  and  C_15
REMARK                            x       y       z     vdW  Elec       q    Type
REMARK                         _______ _______ _______ _____ _____    ______ ____
ROOT
ATOM      1  C   UNL     1      43.473   6.297  11.390  0.00  0.00    +0.000 C 
ENDROOT
BRANCH   1   6
ATOM      2  C   UNL     1      47.880   6.876  13.610  0.00  0.00    +0.000 A 
ATOM      3  C   UNL     1      47.900   7.782  12.551  0.00  0.00    +0.000 A 
ATOM      4  C   UNL     1      46.798   7.853  11.697  0.00  0.00    +0.000 A 
ATOM      5  C   UNL     1      45.691   7.035  11.919  0.00  0.00    +0.000 A 
ATOM      6  N   UNL     1      44.628   7.094  11.002  0.00  0.00    +0.000 N 
ATOM      7  N   UNL     1      45.667   6.149  12.937  0.00  0.00    +0.000 NA
ATOM      8  C   UNL     1      46.755   6.081  13.750  0.00  0.00    +0.000 A 
ATOM      9  H   UNL     1      44.382   8.062  10.818  0.00  0.00    +0.000 HD
BRANCH   2  11
ATOM     10  N   UNL     1      50.170   7.362  14.272  0.00  0.00    +0.000 N 
ATOM     11  C   UNL     1      49.010   6.693  14.545  0.00  0.00    +0.000 C 
ATOM     12  O   UNL     1      48.907   5.990  15.541  0.00  0.00    +0.000 OA
ATOM     13  H   UNL     1      50.906   7.289  14.964  0.00  0.00    +0.000 HD
ATOM     14  H   UNL     1      50.228   8.122  13.609  0.00  0.00    +0.000 HD
ENDBRANCH   2  11
ENDBRANCH   1   6
BRANCH   1  15
ATOM     15  C   UNL     1      43.677   4.867  10.960  0.00  0.00    +0.000 A 
ATOM     16  C   UNL     1      43.069   3.821  11.641  0.00  0.00    +0.000 A 
ATOM     17  N   UNL     1      43.240   2.521  11.329  0.00  0.00    +0.000 NA
ATOM     18  C   UNL     1      44.069   2.248  10.290  0.00  0.00    +0.000 A 
ATOM     19  C   UNL     1      44.725   3.201   9.506  0.00  0.00    +0.000 A 
ATOM     20  C   UNL     1      44.488   4.539   9.864  0.00  0.00    +0.000 A 
BRANCH  19  21
ATOM     21  C   UNL     1      45.626   2.828   8.390  0.00  0.00    +0.000 A 
ATOM     22  C   UNL     1      46.161   1.529   8.271  0.00  0.00    +0.000 A 
ATOM     23  C   UNL     1      47.018   1.187   7.219  0.00  0.00    +0.000 A 
ATOM     24  C   UNL     1      47.343   2.136   6.261  0.00  0.00    +0.000 A 
ATOM     25  F   UNL     1      48.157   1.807   5.250  0.00  0.00    +0.000 F 
ATOM     26  C   UNL     1      46.834   3.422   6.340  0.00  0.00    +0.000 A 
ATOM     27  C   UNL     1      45.988   3.765   7.399  0.00  0.00    +0.000 A 
ENDBRANCH  19  21
ENDBRANCH   1  15
TORSDOF 4
ENDMDL
MODEL 2
REMARK VINA RESULT:    -8.567      1.509      1.894
REMARK INTER + INTRA:         -10.974
REMARK INTER:                 -10.250
REMARK INTRA:                  -0.724
REMARK UNBOUND:                -0.403
REMARK  Name = 
REMARK  4 active torsions:
REMARK  status: ('A' for Active; 'I' for Inactive)
REMARK    1  A    between atoms: C_2  and  C_4
REMARK    2  A    between atoms: N_8  and  C_9
REMARK    3  A    between atoms: C_9  and  C_10
REMARK    4  A    between atoms: C_14  and  C_15
REMARK                            x       y       z     vdW  Elec       q    Type
REMARK                         _______ _______ _______ _____ _____    ______ ____
ROOT
ATOM      1  C   UNL     1      44.448   6.267  12.207  0.00  0.00    +0.000 C 
ENDROOT
BRANCH   1   6
ATOM      2  C   UNL     1      49.233   7.586  12.443  0.00  0.00    +0.000 A 
ATOM      3  C   UNL     1      49.007   6.877  13.622  0.00  0.00    +0.000 A 
ATOM      4  C   UNL     1      47.728   6.381  13.880  0.00  0.00    +0.000 A 
ATOM      5  C   UNL     1      46.702   6.582  12.958  0.00  0.00    +0.000 A 
ATOM      6  N   UNL     1      45.416   6.118  13.283  0.00  0.00    +0.000 N 
ATOM      7  N   UNL     1      46.911   7.274  11.818  0.00  0.00    +0.000 NA
ATOM      8  C   UNL     1      48.158   7.766  11.588  0.00  0.00    +0.000 A 
ATOM      9  H   UNL     1      45.468   5.163  13.624  0.00  0.00    +0.000 HD
BRANCH   2  11
ATOM     10  N   UNL     1      51.414   7.423  11.379  0.00  0.00    +0.000 N 
ATOM     11  C   UNL     1      50.536   8.189  12.093  0.00  0.00    +0.000 C 
ATOM     12  O   UNL     1      50.813   9.338  12.408  0.00  0.00    +0.000 OA
ATOM     13  H   UNL     1      52.268   7.878  11.079  0.00  0.00    +0.000 HD
ATOM     14  H   UNL     1      51.147   6.573  10.902  0.00  0.00    +0.000 HD
ENDBRANCH   2  11
ENDBRANCH   1   6
BRANCH   1  15
ATOM     15  C   UNL     1      44.254   4.945  11.511  0.00  0.00    +0.000 A 
ATOM     16  C   UNL     1      43.334   4.017  11.979  0.00  0.00    +0.000 A 
ATOM     17  N   UNL     1      43.140   2.805  11.424  0.00  0.00    +0.000 NA
ATOM     18  C   UNL     1      43.911   2.497  10.350  0.00  0.00    +0.000 A 
ATOM     19  C   UNL     1      44.857   3.341   9.763  0.00  0.00    +0.000 A 
ATOM     20  C   UNL     1      44.996   4.601  10.371  0.00  0.00    +0.000 A 
BRANCH  19  21
ATOM     21  C   UNL     1      45.673   2.931   8.596  0.00  0.00    +0.000 A 
ATOM     22  C   UNL     1      46.085   1.597   8.411  0.00  0.00    +0.000 A 
ATOM     23  C   UNL     1      46.863   1.219   7.310  0.00  0.00    +0.000 A 
ATOM     24  C   UNL     1      47.229   2.170   6.369  0.00  0.00    +0.000 A 
ATOM     25  F   UNL     1      47.966   1.808   5.312  0.00  0.00    +0.000 F 
ATOM     26  C   UNL     1      46.838   3.492   6.512  0.00  0.00    +0.000 A 
ATOM     27  C   UNL     1      46.073   3.869   7.620  0.00  0.00    +0.000 A 
ENDBRANCH  19  21
ENDBRANCH   1  15
TORSDOF 4
ENDMDL
MODEL 3
REMARK VINA RESULT:    -8.563      3.622      6.931
REMARK INTER + INTRA:         -10.969
REMARK INTER:                 -10.560
REMARK INTRA:                  -0.409
REMARK UNBOUND:                -0.403
REMARK  Name = 
REMARK  4 active torsions:
REMARK  status: ('A' for Active; 'I' for Inactive)
REMARK    1  A    between atoms: C_2  and  C_4
REMARK    2  A    between atoms: N_8  and  C_9
REMARK    3  A    between atoms: C_9  and  C_10
REMARK    4  A    between atoms: C_14  and  C_15
REMARK                            x       y       z     vdW  Elec       q    Type
REMARK                         _______ _______ _______ _____ _____    ______ ____
ROOT
ATOM      1  C   UNL     1      43.385   4.559  10.950  0.00  0.00    +0.000 C 
ENDROOT
BRANCH   1   6
ATOM      2  C   UNL     1      46.243   1.996   7.795  0.00  0.00    +0.000 A 
ATOM      3  C   UNL     1      45.946   3.177   7.117  0.00  0.00    +0.000 A 
ATOM      4  C   UNL     1      45.123   4.123   7.731  0.00  0.00    +0.000 A 
ATOM      5  C   UNL     1      44.623   3.887   9.011  0.00  0.00    +0.000 A 
ATOM      6  N   UNL     1      43.751   4.837   9.568  0.00  0.00    +0.000 N 
ATOM      7  N   UNL     1      44.900   2.742   9.671  0.00  0.00    +0.000 NA
ATOM      8  C   UNL     1      45.690   1.823   9.053  0.00  0.00    +0.000 A 
ATOM      9  H   UNL     1      44.133   5.770   9.453  0.00  0.00    +0.000 HD
BRANCH   2  11
ATOM     10  N   UNL     1      46.794  -0.366   7.613  0.00  0.00    +0.000 N 
ATOM     11  C   UNL     1      47.069   0.913   7.220  0.00  0.00    +0.000 C 
ATOM     12  O   UNL     1      47.950   1.147   6.404  0.00  0.00    +0.000 OA
ATOM     13  H   UNL     1      47.314  -1.102   7.150  0.00  0.00    +0.000 HD
ATOM     14  H   UNL     1      45.943  -0.628   8.091  0.00  0.00    +0.000 HD
ENDBRANCH   2  11
ENDBRANCH   1   6
BRANCH   1  15
ATOM     15  C   UNL     1      44.523   4.936  11.862  0.00  0.00    +0.000 A 
ATOM     16  C   UNL     1      44.776   4.222  13.025  0.00  0.00    +0.000 A 
ATOM     17  N   UNL     1      45.754   4.530  13.899  0.00  0.00    +0.000 NA
ATOM     18  C   UNL     1      46.515   5.614  13.603  0.00  0.00    +0.000 A 
ATOM     19  C   UNL     1      46.386   6.407  12.459  0.00  0.00    +0.000 A 
ATOM     20  C   UNL     1      45.365   6.020  11.575  0.00  0.00    +0.000 A 
BRANCH  19  21
ATOM     21  C   UNL     1      47.248   7.586  12.208  0.00  0.00    +0.000 A 
ATOM     22  C   UNL     1      48.613   7.451  11.885  0.00  0.00    +0.000 A 
ATOM     23  C   UNL     1      49.423   8.570  11.657  0.00  0.00    +0.000 A 
ATOM     24  C   UNL     1      48.875   9.841  11.735  0.00  0.00    +0.000 A 
ATOM     25  F   UNL     1      49.647  10.911  11.509  0.00  0.00    +0.000 F 
ATOM     26  C   UNL     1      47.535  10.016  12.044  0.00  0.00    +0.000 A 
ATOM     27  C   UNL     1      46.732   8.897  12.285  0.00  0.00    +0.000 A 
ENDBRANCH  19  21
ENDBRANCH   1  15
TORSDOF 4
ENDMDL
MODEL 4
REMARK VINA RESULT:    -8.210      1.509      2.023
REMARK INTER + INTRA:         -10.532
REMARK INTER:                 -10.407
REMARK INTRA:                  -0.126
REMARK UNBOUND:                -0.403
REMARK  Name = 
REMARK  4 active torsions:
REMARK  status: ('A' for Active; 'I' for Inactive)
REMARK    1  A    between atoms: C_2  and  C_4
REMARK    2  A    between atoms: N_8  and  C_9
REMARK    3  A    between atoms: C_9  and  C_10
REMARK    4  A    between atoms: C_14  and  C_15
REMARK                            x       y       z     vdW  Elec       q    Type
REMARK                         _______ _______ _______ _____ _____    ______ ____
ROOT
ATOM      1  C   UNL     1      44.286   6.449  11.554  0.00  0.00    +0.000 C 
ENDROOT
BRANCH   1   6
ATOM      2  C   UNL     1      47.409   4.960  15.121  0.00  0.00    +0.000 A 
ATOM      3  C   UNL     1      48.108   5.953  14.436  0.00  0.00    +0.000 A 
ATOM      4  C   UNL     1      47.507   6.571  13.338  0.00  0.00    +0.000 A 
ATOM      5  C   UNL     1      46.220   6.204  12.948  0.00  0.00    +0.000 A 
ATOM      6  N   UNL     1      45.675   6.808  11.803  0.00  0.00    +0.000 N 
ATOM      7  N   UNL     1      45.539   5.238  13.601  0.00  0.00    +0.000 NA
ATOM      8  C   UNL     1      46.144   4.634  14.659  0.00  0.00    +0.000 A 
ATOM      9  H   UNL     1      45.811   7.813  11.842  0.00  0.00    +0.000 HD
BRANCH   2  11
ATOM     10  N   UNL     1      47.172   3.274  16.857  0.00  0.00    +0.000 N 
ATOM     11  C   UNL     1      47.968   4.215  16.269  0.00  0.00    +0.000 C 
ATOM     12  O   UNL     1      49.109   4.414  16.663  0.00  0.00    +0.000 OA
ATOM     13  H   UNL     1      47.598   2.717  17.589  0.00  0.00    +0.000 HD
ATOM     14  H   UNL     1      46.330   2.915  16.430  0.00  0.00    +0.000 HD
ENDBRANCH   2  11
ENDBRANCH   1   6
BRANCH   1  15
ATOM     15  C   UNL     1      44.217   5.061  10.973  0.00  0.00    +0.000 A 
ATOM     16  C   UNL     1      43.379   4.098  11.517  0.00  0.00    +0.000 A 
ATOM     17  N   UNL     1      43.298   2.830  11.067  0.00  0.00    +0.000 NA
ATOM     18  C   UNL     1      44.102   2.503  10.023  0.00  0.00    +0.000 A 
ATOM     19  C   UNL     1      44.973   3.376   9.367  0.00  0.00    +0.000 A 
ATOM     20  C   UNL     1      44.994   4.690   9.866  0.00  0.00    +0.000 A 
BRANCH  19  21
ATOM     21  C   UNL     1      45.831   2.944   8.238  0.00  0.00    +0.000 A 
ATOM     22  C   UNL     1      46.199   3.828   7.205  0.00  0.00    +0.000 A 
ATOM     23  C   UNL     1      47.003   3.410   6.138  0.00  0.00    +0.000 A 
ATOM     24  C   UNL     1      47.462   2.102   6.097  0.00  0.00    +0.000 A 
ATOM     25  F   UNL     1      48.238   1.703   5.081  0.00  0.00    +0.000 F 
ATOM     26  C   UNL     1      47.127   1.203   7.097  0.00  0.00    +0.000 A 
ATOM     27  C   UNL     1      46.313   1.620   8.154  0.00  0.00    +0.000 A 
ENDBRANCH  19  21
ENDBRANCH   1  15
TORSDOF 4
ENDMDL
MODEL 5
REMARK VINA RESULT:    -8.159      1.939      2.266
REMARK INTER + INTRA:         -10.469
REMARK INTER:                  -9.781
REMARK INTRA:                  -0.688
REMARK UNBOUND:                -0.403
REMARK  Name = 
REMARK  4 active torsions:
REMARK  status: ('A' for Active; 'I' for Inactive)
REMARK    1  A    between atoms: C_2  and  C_4
REMARK    2  A    between atoms: N_8  and  C_9
REMARK    3  A    between atoms: C_9  and  C_10
REMARK    4  A    between atoms: C_14  and  C_15
REMARK                            x       y       z     vdW  Elec       q    Type
REMARK                         _______ _______ _______ _____ _____    ______ ____
ROOT
ATOM      1  C   UNL     1      44.961   5.243  13.248  0.00  0.00    +0.000 C 
ENDROOT
BRANCH   1   6
ATOM      2  C   UNL     1      47.600   9.280  12.054  0.00  0.00    +0.000 A 
ATOM      3  C   UNL     1      46.276   9.712  12.042  0.00  0.00    +0.000 A 
ATOM      4  C   UNL     1      45.260   8.795  12.317  0.00  0.00    +0.000 A 
ATOM      5  C   UNL     1      45.578   7.470  12.613  0.00  0.00    +0.000 A 
ATOM      6  N   UNL     1      44.524   6.566  12.825  0.00  0.00    +0.000 N 
ATOM      7  N   UNL     1      46.858   7.042  12.619  0.00  0.00    +0.000 NA
ATOM      8  C   UNL     1      47.835   7.944  12.333  0.00  0.00    +0.000 A 
ATOM      9  H   UNL     1      43.844   6.968  13.464  0.00  0.00    +0.000 HD
BRANCH   2  11
ATOM     10  N   UNL     1      48.577  11.079  10.740  0.00  0.00    +0.000 N 
ATOM     11  C   UNL     1      48.746  10.159  11.736  0.00  0.00    +0.000 C 
ATOM     12  O   UNL     1      49.798  10.085  12.356  0.00  0.00    +0.000 OA
ATOM     13  H   UNL     1      49.343  11.726  10.590  0.00  0.00    +0.000 HD
ATOM     14  H   UNL     1      47.673  11.333  10.369  0.00  0.00    +0.000 HD
ENDBRANCH   2  11
ENDBRANCH   1   6
BRANCH   1  15
ATOM     15  C   UNL     1      44.553   4.221  12.220  0.00  0.00    +0.000 A 
ATOM     16  C   UNL     1      43.475   3.374  12.440  0.00  0.00    +0.000 A 
ATOM     17  N   UNL     1      43.083   2.416  11.577  0.00  0.00    +0.000 NA
ATOM     18  C   UNL     1      43.809   2.290  10.437  0.00  0.00    +0.000 A 
ATOM     19  C   UNL     1      44.899   3.087  10.078  0.00  0.00    +0.000 A 
ATOM     20  C   UNL     1      45.244   4.084  11.007  0.00  0.00    +0.000 A 
BRANCH  19  21
ATOM     21  C   UNL     1      45.652   2.883   8.818  0.00  0.00    +0.000 A 
ATOM     22  C   UNL     1      46.093   1.607   8.416  0.00  0.00    +0.000 A 
ATOM     23  C   UNL     1      46.812   1.423   7.229  0.00  0.00    +0.000 A 
ATOM     24  C   UNL     1      47.089   2.514   6.419  0.00  0.00    +0.000 A 
ATOM     25  F   UNL     1      47.769   2.338   5.280  0.00  0.00    +0.000 F 
ATOM     26  C   UNL     1      46.668   3.785   6.776  0.00  0.00    +0.000 A 
ATOM     27  C   UNL     1      45.961   3.967   7.969  0.00  0.00    +0.000 A 
ENDBRANCH  19  21
ENDBRANCH   1  15
TORSDOF 4
ENDMDL
MODEL 6
REMARK VINA RESULT:    -7.784      3.981      7.540
REMARK INTER + INTRA:         -10.007
REMARK INTER:                  -9.397
REMARK INTRA:                  -0.611
REMARK UNBOUND:                -0.403
REMARK  Name = 
REMARK  4 active torsions:
REMARK  status: ('A' for Active; 'I' for Inactive)
REMARK    1  A    between atoms: C_2  and  C_4
REMARK    2  A    between atoms: N_8  and  C_9
REMARK    3  A    between atoms: C_9  and  C_10
REMARK    4  A    between atoms: C_14  and  C_15
REMARK                            x       y       z     vdW  Elec       q    Type
REMARK                         _______ _______ _______ _____ _____    ______ ____
ROOT
ATOM      1  C   UNL     1      43.661   4.658  11.239  0.00  0.00    +0.000 C 
ENDROOT
BRANCH   1   6
ATOM      2  C   UNL     1      46.187   2.016   7.874  0.00  0.00    +0.000 A 
ATOM      3  C   UNL     1      45.686   3.103   7.160  0.00  0.00    +0.000 A 
ATOM      4  C   UNL     1      44.893   4.042   7.822  0.00  0.00    +0.000 A 
ATOM      5  C   UNL     1      44.626   3.895   9.183  0.00  0.00    +0.000 A 
ATOM      6  N   UNL     1      43.776   4.829   9.798  0.00  0.00    +0.000 N 
ATOM      7  N   UNL     1      45.102   2.840   9.880  0.00  0.00    +0.000 NA
ATOM      8  C   UNL     1      45.858   1.925   9.216  0.00  0.00    +0.000 A 
ATOM      9  H   UNL     1      44.055   5.772   9.544  0.00  0.00    +0.000 HD
BRANCH   2  11
ATOM     10  N   UNL     1      46.727  -0.343   7.628  0.00  0.00    +0.000 N 
ATOM     11  C   UNL     1      47.000   0.944   7.260  0.00  0.00    +0.000 C 
ATOM     12  O   UNL     1      47.867   1.195   6.435  0.00  0.00    +0.000 OA
ATOM     13  H   UNL     1      47.237  -1.069   7.139  0.00  0.00    +0.000 HD
ATOM     14  H   UNL     1      45.883  -0.613   8.114  0.00  0.00    +0.000 HD
ENDBRANCH   2  11
ENDBRANCH   1   6
BRANCH   1  15
ATOM     15  C   UNL     1      44.697   5.502  11.935  0.00  0.00    +0.000 A 
ATOM     16  C   UNL     1      45.001   6.780  11.486  0.00  0.00    +0.000 A 
ATOM     17  N   UNL     1      45.941   7.569  12.041  0.00  0.00    +0.000 NA
ATOM     18  C   UNL     1      46.623   7.053  13.095  0.00  0.00    +0.000 A 
ATOM     19  C   UNL     1      46.406   5.795  13.663  0.00  0.00    +0.000 A 
ATOM     20  C   UNL     1      45.396   5.029  13.056  0.00  0.00    +0.000 A 
BRANCH  19  21
ATOM     21  C   UNL     1      47.200   5.292  14.810  0.00  0.00    +0.000 A 
ATOM     22  C   UNL     1      48.196   6.077  15.423  0.00  0.00    +0.000 A 
ATOM     23  C   UNL     1      48.948   5.593  16.499  0.00  0.00    +0.000 A 
ATOM     24  C   UNL     1      48.702   4.318  16.989  0.00  0.00    +0.000 A 
ATOM     25  F   UNL     1      49.415   3.857  18.024  0.00  0.00    +0.000 F 
ATOM     26  C   UNL     1      47.727   3.517  16.417  0.00  0.00    +0.000 A 
ATOM     27  C   UNL     1      46.987   3.999  15.333  0.00  0.00    +0.000 A 
ENDBRANCH  19  21
ENDBRANCH   1  15
TORSDOF 4
ENDMDL
MODEL 7
REMARK VINA RESULT:    -7.673      2.692      3.270
REMARK INTER + INTRA:          -9.870
REMARK INTER:                  -9.382
REMARK INTRA:                  -0.488
REMARK UNBOUND:                -0.403
REMARK  Name = 
REMARK  4 active torsions:
REMARK  status: ('A' for Active; 'I' for Inactive)
REMARK    1  A    between atoms: C_2  and  C_4
REMARK    2  A    between atoms: N_8  and  C_9
REMARK    3  A    between atoms: C_9  and  C_10
REMARK    4  A    between atoms: C_14  and  C_15
REMARK                            x       y       z     vdW  Elec       q    Type
REMARK                         _______ _______ _______ _____ _____    ______ ____
ROOT
ATOM      1  C   UNL     1      45.254   4.192  13.680  0.00  0.00    +0.000 C 
ENDROOT
BRANCH   1   6
ATOM      2  C   UNL     1      48.380   4.465  17.533  0.00  0.00    +0.000 A 
ATOM      3  C   UNL     1      48.803   5.472  16.668  0.00  0.00    +0.000 A 
ATOM      4  C   UNL     1      48.136   5.648  15.454  0.00  0.00    +0.000 A 
ATOM      5  C   UNL     1      47.053   4.833  15.128  0.00  0.00    +0.000 A 
ATOM      6  N   UNL     1      46.447   5.003  13.872  0.00  0.00    +0.000 N 
ATOM      7  N   UNL     1      46.643   3.849  15.957  0.00  0.00    +0.000 NA
ATOM      8  C   UNL     1      47.313   3.680  17.129  0.00  0.00    +0.000 A 
ATOM      9  H   UNL     1      46.273   5.989  13.702  0.00  0.00    +0.000 HD
BRANCH   2  11
ATOM     10  N   UNL     1      48.492   3.191  19.602  0.00  0.00    +0.000 N 
ATOM     11  C   UNL     1      49.042   4.167  18.821  0.00  0.00    +0.000 C 
ATOM     12  O   UNL     1      50.059   4.753  19.166  0.00  0.00    +0.000 OA
ATOM     13  H   UNL     1      49.002   2.944  20.442  0.00  0.00    +0.000 HD
ATOM     14  H   UNL     1      47.807   2.530  19.262  0.00  0.00    +0.000 HD
ENDBRANCH   2  11
ENDBRANCH   1   6
BRANCH   1  15
ATOM     15  C   UNL     1      44.767   4.333  12.262  0.00  0.00    +0.000 A 
ATOM     16  C   UNL     1      43.582   4.997  11.974  0.00  0.00    +0.000 A 
ATOM     17  N   UNL     1      43.075   5.126  10.733  0.00  0.00    +0.000 NA
ATOM     18  C   UNL     1      43.781   4.555   9.724  0.00  0.00    +0.000 A 
ATOM     19  C   UNL     1      44.996   3.879   9.868  0.00  0.00    +0.000 A 
ATOM     20  C   UNL     1      45.486   3.800  11.183  0.00  0.00    +0.000 A 
BRANCH  19  21
ATOM     21  C   UNL     1      45.707   3.270   8.719  0.00  0.00    +0.000 A 
ATOM     22  C   UNL     1      45.959   1.885   8.653  0.00  0.00    +0.000 A 
ATOM     23  C   UNL     1      46.639   1.318   7.569  0.00  0.00    +0.000 A 
ATOM     24  C   UNL     1      47.065   2.128   6.527  0.00  0.00    +0.000 A 
ATOM     25  F   UNL     1      47.708   1.584   5.485  0.00  0.00    +0.000 F 
ATOM     26  C   UNL     1      46.832   3.493   6.551  0.00  0.00    +0.000 A 
ATOM     27  C   UNL     1      46.164   4.059   7.642  0.00  0.00    +0.000 A 
ENDBRANCH  19  21
ENDBRANCH   1  15
TORSDOF 4
ENDMDL
MODEL 8
REMARK VINA RESULT:    -7.091      5.508      9.053
REMARK INTER + INTRA:          -9.152
REMARK INTER:                  -8.654
REMARK INTRA:                  -0.498
REMARK UNBOUND:                -0.403
REMARK  Name = 
REMARK  4 active torsions:
REMARK  status: ('A' for Active; 'I' for Inactive)
REMARK    1  A    between atoms: C_2  and  C_4
REMARK    2  A    between atoms: N_8  and  C_9
REMARK    3  A    between atoms: C_9  and  C_10
REMARK    4  A    between atoms: C_14  and  C_15
REMARK                            x       y       z     vdW  Elec       q    Type
REMARK                         _______ _______ _______ _____ _____    ______ ____
ROOT
ATOM      1  C   UNL     1      47.138   4.091  15.881  0.00  0.00    +0.000 C 
ENDROOT
BRANCH   1   6
ATOM      2  C   UNL     1      45.136   4.245  11.336  0.00  0.00    +0.000 A 
ATOM      3  C   UNL     1      45.764   5.481  11.483  0.00  0.00    +0.000 A 
ATOM      4  C   UNL     1      46.413   5.773  12.684  0.00  0.00    +0.000 A 
ATOM      5  C   UNL     1      46.441   4.829  13.710  0.00  0.00    +0.000 A 
ATOM      6  N   UNL     1      47.053   5.184  14.923  0.00  0.00    +0.000 N 
ATOM      7  N   UNL     1      45.828   3.633  13.577  0.00  0.00    +0.000 NA
ATOM      8  C   UNL     1      45.186   3.370  12.408  0.00  0.00    +0.000 A 
ATOM      9  H   UNL     1      47.958   5.609  14.744  0.00  0.00    +0.000 HD
BRANCH   2  11
ATOM     10  N   UNL     1      44.317   4.760   9.104  0.00  0.00    +0.000 N 
ATOM     11  C   UNL     1      44.386   3.853  10.123  0.00  0.00    +0.000 C 
ATOM     12  O   UNL     1      43.868   2.750  10.023  0.00  0.00    +0.000 OA
ATOM     13  H   UNL     1      43.869   4.447   8.251  0.00  0.00    +0.000 HD
ATOM     14  H   UNL     1      44.913   5.574   9.045  0.00  0.00    +0.000 HD
ENDBRANCH   2  11
ENDBRANCH   1   6
BRANCH   1  15
ATOM     15  C   UNL     1      48.267   4.347  16.844  0.00  0.00    +0.000 A 
ATOM     16  C   UNL     1      48.272   5.470  17.660  0.00  0.00    +0.000 A 
ATOM     17  N   UNL     1      49.269   5.774  18.515  0.00  0.00    +0.000 NA
ATOM     18  C   UNL     1      50.321   4.917  18.553  0.00  0.00    +0.000 A 
ATOM     19  C   UNL     1      50.435   3.741  17.807  0.00  0.00    +0.000 A 
ATOM     20  C   UNL     1      49.353   3.466  16.952  0.00  0.00    +0.000 A 
BRANCH  19  21
ATOM     21  C   UNL     1      51.621   2.858  17.892  0.00  0.00    +0.000 A 
ATOM     22  C   UNL     1      51.582   1.518  17.456  0.00  0.00    +0.000 A 
ATOM     23  C   UNL     1      52.705   0.687  17.548  0.00  0.00    +0.000 A 
ATOM     24  C   UNL     1      53.889   1.190  18.066  0.00  0.00    +0.000 A 
ATOM     25  F   UNL     1      54.966   0.398  18.147  0.00  0.00    +0.000 F 
ATOM     26  C   UNL     1      53.971   2.503  18.500  0.00  0.00    +0.000 A 
ATOM     27  C   UNL     1      52.843   3.327  18.419  0.00  0.00    +0.000 A 
ENDBRANCH  19  21
ENDBRANCH   1  15
TORSDOF 4
ENDMDL
MODEL 9
REMARK VINA RESULT:    -7.026      3.036      5.255
REMARK INTER + INTRA:          -9.071
REMARK INTER:                  -8.476
REMARK INTRA:                  -0.596
REMARK UNBOUND:                -0.403
REMARK  Name = 
REMARK  4 active torsions:
REMARK  status: ('A' for Active; 'I' for Inactive)
REMARK    1  A    between atoms: C_2  and  C_4
REMARK    2  A    between atoms: N_8  and  C_9
REMARK    3  A    between atoms: C_9  and  C_10
REMARK    4  A    between atoms: C_14  and  C_15
REMARK                            x       y       z     vdW  Elec       q    Type
REMARK                         _______ _______ _______ _____ _____    ______ ____
ROOT
ATOM      1  C   UNL     1      49.083   7.348  13.896  0.00  0.00    +0.000 C 
ENDROOT
BRANCH   1   6
ATOM      2  C   UNL     1      48.753   5.374  18.444  0.00  0.00    +0.000 A 
ATOM      3  C   UNL     1      48.606   6.745  18.647  0.00  0.00    +0.000 A 
ATOM      4  C   UNL     1      48.678   7.605  17.549  0.00  0.00    +0.000 A 
ATOM      5  C   UNL     1      48.877   7.087  16.270  0.00  0.00    +0.000 A 
ATOM      6  N   UNL     1      49.002   7.990  15.201  0.00  0.00    +0.000 N 
ATOM      7  N   UNL     1      49.028   5.761  16.066  0.00  0.00    +0.000 NA
ATOM      8  C   UNL     1      48.973   4.938  17.148  0.00  0.00    +0.000 A 
ATOM      9  H   UNL     1      48.261   8.683  15.242  0.00  0.00    +0.000 HD
BRANCH   2  11
ATOM     10  N   UNL     1      48.331   3.114  19.238  0.00  0.00    +0.000 N 
ATOM     11  C   UNL     1      48.736   4.383  19.541  0.00  0.00    +0.000 C 
ATOM     12  O   UNL     1      49.094   4.678  20.673  0.00  0.00    +0.000 OA
ATOM     13  H   UNL     1      48.402   2.428  19.980  0.00  0.00    +0.000 HD
ATOM     14  H   UNL     1      48.254   2.768  18.291  0.00  0.00    +0.000 HD
ENDBRANCH   2  11
ENDBRANCH   1   6
BRANCH   1  15
ATOM     15  C   UNL     1      47.734   7.386  13.227  0.00  0.00    +0.000 A 
ATOM     16  C   UNL     1      46.862   8.447  13.431  0.00  0.00    +0.000 A 
ATOM     17  N   UNL     1      45.630   8.522  12.891  0.00  0.00    +0.000 NA
ATOM     18  C   UNL     1      45.241   7.479  12.114  0.00  0.00    +0.000 A 
ATOM     19  C   UNL     1      46.023   6.362  11.807  0.00  0.00    +0.000 A 
ATOM     20  C   UNL     1      47.307   6.353  12.379  0.00  0.00    +0.000 A 
BRANCH  19  21
ATOM     21  C   UNL     1      45.526   5.253  10.958  0.00  0.00    +0.000 A 
ATOM     22  C   UNL     1      45.640   5.286   9.554  0.00  0.00    +0.000 A 
ATOM     23  C   UNL     1      45.161   4.239   8.758  0.00  0.00    +0.000 A 
ATOM     24  C   UNL     1      44.573   3.136   9.358  0.00  0.00    +0.000 A 
ATOM     25  F   UNL     1      44.121   2.130   8.598  0.00  0.00    +0.000 F 
ATOM     26  C   UNL     1      44.447   3.062  10.736  0.00  0.00    +0.000 A 
ATOM     27  C   UNL     1      44.915   4.116  11.528  0.00  0.00    +0.000 A 
ENDBRANCH  19  21
ENDBRANCH   1  15
TORSDOF 4
ENDMDL
