MODEL 1
REMARK VINA RESULT:    -8.785      0.000      0.000
REMARK INTER + INTRA:         -12.198
REMARK INTER:                 -11.610
REMARK INTRA:                  -0.588
REMARK UNBOUND:                -0.588
REMARK  Name = 
REMARK  7 active torsions:
REMARK  status: ('A' for Active; 'I' for Inactive)
REMARK    1  A    between atoms: C_1  and  C_2
REMARK    2  A    between atoms: C_2  and  O_3
REMARK    3  A    between atoms: C_5  and  N_6
REMARK    4  A    between atoms: C_9  and  C_10
REMARK    5  A    between atoms: C_10  and  C_13
REMARK    6  A    between atoms: C_13  and  N_14
REMARK    7  A    between atoms: C_18  and  C_19
REMARK                            x       y       z     vdW  Elec       q    Type
REMARK                         _______ _______ _______ _____ _____    ______ ____
ROOT
ATOM      1  C   UNL     1      43.773   5.904  11.936  0.00  0.00    +0.000 C 
ATOM      2  F   UNL     1      42.848   5.529  12.871  0.00  0.00    +0.000 F 
ATOM      3  F   UNL     1      43.539   7.239  11.725  0.00  0.00    +0.000 F 
ENDROOT
BRANCH   1   7
ATOM      4  N   UNL     1      46.768   3.781  15.202  0.00  0.00    +0.000 N 
ATOM      5  C   UNL     1      46.638   4.619  14.075  0.00  0.00    +0.000 A 
ATOM      6  C   UNL     1      45.371   4.795  13.526  0.00  0.00    +0.000 A 
ATOM      7  C   UNL     1      45.185   5.679  12.453  0.00  0.00    +0.000 A 
ATOM      8  C   UNL     1      46.319   6.314  11.937  0.00  0.00    +0.000 A 
ATOM      9  C   UNL     1      47.548   6.066  12.528  0.00  0.00    +0.000 A 
ATOM     10  N   UNL     1      47.720   5.255  13.588  0.00  0.00    +0.000 NA
ATOM     11  H   UNL     1      46.533   2.832  14.919  0.00  0.00    +0.000 HD
BRANCH   4  15
ATOM     12  C   UNL     1      47.835   5.185  19.234  0.00  0.00    +0.000 C 
ATOM     13  C   UNL     1      48.445   4.525  18.008  0.00  0.00    +0.000 C 
ATOM     14  C   UNL     1      48.124   5.235  16.667  0.00  0.00    +0.000 C 
ATOM     15  C   UNL     1      47.932   3.834  16.038  0.00  0.00    +0.000 C 
ATOM     16  C   UNL     1      47.655   3.302  17.461  0.00  0.00    +0.000 C 
BRANCH  13  17
ATOM     17  O   UNL     1      49.847   4.277  18.251  0.00  0.00    +0.000 OA
ATOM     18  H   UNL     1      50.157   3.786  17.470  0.00  0.00    +0.000 HD
ENDBRANCH  13  17
ENDBRANCH   4  15
ENDBRANCH   1   7
BRANCH   1  19
ATOM     19  C   UNL     1      43.463   5.173  10.610  0.00  0.00    +0.000 C 
BRANCH  19  20
ATOM     20  N   UNL     1      43.758   3.722  10.619  0.00  0.00    +0.000 N 
ATOM     21  C   UNL     1      44.635   3.349   9.583  0.00  0.00    +0.000 A 
ATOM     22  C   UNL     1      45.023   2.018   9.429  0.00  0.00    +0.000 A 
ATOM     23  N   UNL     1      45.868   1.585   8.456  0.00  0.00    +0.000 NA
ATOM     24  C   UNL     1      46.354   2.544   7.621  0.00  0.00    +0.000 A 
ATOM     25  C   UNL     1      45.990   3.871   7.787  0.00  0.00    +0.000 A 
ATOM     26  N   UNL     1      45.142   4.293   8.757  0.00  0.00    +0.000 NA
ATOM     27  H   UNL     1      42.909   3.159  10.586  0.00  0.00    +0.000 HD
BRANCH  24  28
ATOM     28  C   UNL     1      47.283   2.205   6.478  0.00  0.00    +0.000 C 
ATOM     29  F   UNL     1      48.570   2.619   6.646  0.00  0.00    +0.000 F 
ATOM     30  F   UNL     1      47.351   0.860   6.251  0.00  0.00    +0.000 F 
ATOM     31  F   UNL     1      46.870   2.745   5.293  0.00  0.00    +0.000 F 
ENDBRANCH  24  28
ENDBRANCH  19  20
ENDBRANCH   1  19
TORSDOF 6
ENDMDL
MODEL 2
REMARK VINA RESULT:    -8.745      2.495      3.673
REMARK INTER + INTRA:         -12.145
REMARK INTER:                 -11.187
REMARK INTRA:                  -0.958
REMARK UNBOUND:                -0.588
REMARK  Name = 
REMARK  7 active torsions:
REMARK  status: ('A' for Active; 'I' for Inactive)
REMARK    1  A    between atoms: C_1  and  C_2
REMARK    2  A    between atoms: C_2  and  O_3
REMARK    3  A    between atoms: C_5  and  N_6
REMARK    4  A    between atoms: C_9  and  C_10
REMARK    5  A    between atoms: C_10  and  C_13
REMARK    6  A    between atoms: C_13  and  N_14
REMARK    7  A    between atoms: C_18  and  C_19
REMARK                            x       y       z     vdW  Elec       q    Type
REMARK                         _______ _______ _______ _____ _____    ______ ____
ROOT
ATOM      1  C   UNL     1      43.458   5.145  12.437  0.00  0.00    +0.000 C 
ATOM      2  F   UNL     1      42.617   4.655  13.397  0.00  0.00    +0.000 F 
ATOM      3  F   UNL     1      43.072   6.451  12.265  0.00  0.00    +0.000 F 
ENDROOT
BRANCH   1   7
ATOM      4  N   UNL     1      47.739   7.412  13.263  0.00  0.00    +0.000 N 
ATOM      5  C   UNL     1      47.004   6.208  13.292  0.00  0.00    +0.000 A 
ATOM      6  C   UNL     1      45.655   6.250  12.951  0.00  0.00    +0.000 A 
ATOM      7  C   UNL     1      44.906   5.066  12.894  0.00  0.00    +0.000 A 
ATOM      8  C   UNL     1      45.552   3.877  13.246  0.00  0.00    +0.000 A 
ATOM      9  C   UNL     1      46.892   3.926  13.597  0.00  0.00    +0.000 A 
ATOM     10  N   UNL     1      47.624   5.056  13.606  0.00  0.00    +0.000 NA
ATOM     11  H   UNL     1      47.364   8.029  13.979  0.00  0.00    +0.000 HD
BRANCH   4  15
ATOM     12  C   UNL     1      50.978   9.708  11.364  0.00  0.00    +0.000 C 
ATOM     13  C   UNL     1      50.748   8.533  12.301  0.00  0.00    +0.000 C 
ATOM     14  C   UNL     1      49.719   7.492  11.789  0.00  0.00    +0.000 C 
ATOM     15  C   UNL     1      49.173   7.407  13.235  0.00  0.00    +0.000 C 
ATOM     16  C   UNL     1      49.767   8.813  13.475  0.00  0.00    +0.000 C 
BRANCH  13  17
ATOM     17  O   UNL     1      52.026   7.988  12.700  0.00  0.00    +0.000 OA
ATOM     18  H   UNL     1      52.468   8.708  13.184  0.00  0.00    +0.000 HD
ENDBRANCH  13  17
ENDBRANCH   4  15
ENDBRANCH   1   7
BRANCH   1  19
ATOM     19  C   UNL     1      43.176   4.409  11.108  0.00  0.00    +0.000 C 
BRANCH  19  20
ATOM     20  N   UNL     1      43.868   4.973   9.927  0.00  0.00    +0.000 N 
ATOM     21  C   UNL     1      44.659   4.016   9.264  0.00  0.00    +0.000 A 
ATOM     22  C   UNL     1      45.392   4.368   8.130  0.00  0.00    +0.000 A 
ATOM     23  N   UNL     1      46.173   3.498   7.435  0.00  0.00    +0.000 NA
ATOM     24  C   UNL     1      46.193   2.217   7.899  0.00  0.00    +0.000 A 
ATOM     25  C   UNL     1      45.446   1.860   9.010  0.00  0.00    +0.000 A 
ATOM     26  N   UNL     1      44.674   2.736   9.700  0.00  0.00    +0.000 NA
ATOM     27  H   UNL     1      44.427   5.791  10.167  0.00  0.00    +0.000 HD
BRANCH  24  28
ATOM     28  C   UNL     1      47.037   1.150   7.242  0.00  0.00    +0.000 C 
ATOM     29  F   UNL     1      48.380   1.371   7.292  0.00  0.00    +0.000 F 
ATOM     30  F   UNL     1      46.841  -0.080   7.804  0.00  0.00    +0.000 F 
ATOM     31  F   UNL     1      46.736   0.988   5.920  0.00  0.00    +0.000 F 
ENDBRANCH  24  28
ENDBRANCH  19  20
ENDBRANCH   1  19
TORSDOF 6
ENDMDL
MODEL 3
REMARK VINA RESULT:    -7.978      2.106      2.708
REMARK INTER + INTRA:         -11.132
REMARK INTER:                 -10.967
REMARK INTRA:                  -0.164
REMARK UNBOUND:                -0.588
REMARK  Name = 
REMARK  7 active torsions:
REMARK  status: ('A' for Active; 'I' for Inactive)
REMARK    1  A    between atoms: C_1  and  C_2
REMARK    2  A    between atoms: C_2  and  O_3
REMARK    3  A    between atoms: C_5  and  N_6
REMARK    4  A    between atoms: C_9  and  C_10
REMARK    5  A    between atoms: C_10  and  C_13
REMARK    6  A    between atoms: C_13  and  N_14
REMARK    7  A    between atoms: C_18  and  C_19
REMARK                            x       y       z     vdW  Elec       q    Type
REMARK                         _______ _______ _______ _____ _____    ______ ____
ROOT
ATOM      1  C   UNL     1      43.901   4.105  12.547  0.00  0.00    +0.000 C 
ATOM      2  F   UNL     1      44.602   2.936  12.661  0.00  0.00    +0.000 F 
ATOM      3  F   UNL     1      42.946   4.040  13.530  0.00  0.00    +0.000 F 
ENDROOT
BRANCH   1   7
ATOM      4  N   UNL     1      47.975   5.992  14.545  0.00  0.00    +0.000 N 
ATOM      5  C   UNL     1      46.827   6.207  13.755  0.00  0.00    +0.000 A 
ATOM      6  C   UNL     1      46.003   5.120  13.477  0.00  0.00    +0.000 A 
ATOM      7  C   UNL     1      44.813   5.304  12.759  0.00  0.00    +0.000 A 
ATOM      8  C   UNL     1      44.531   6.593  12.298  0.00  0.00    +0.000 A 
ATOM      9  C   UNL     1      45.415   7.617  12.599  0.00  0.00    +0.000 A 
ATOM     10  N   UNL     1      46.534   7.449  13.329  0.00  0.00    +0.000 NA
ATOM     11  H   UNL     1      48.606   5.384  14.028  0.00  0.00    +0.000 HD
BRANCH   4  15
ATOM     12  C   UNL     1      52.008   6.880  16.067  0.00  0.00    +0.000 C 
ATOM     13  C   UNL     1      50.630   7.507  15.921  0.00  0.00    +0.000 C 
ATOM     14  C   UNL     1      49.461   6.616  16.416  0.00  0.00    +0.000 C 
ATOM     15  C   UNL     1      48.658   7.082  15.178  0.00  0.00    +0.000 C 
ATOM     16  C   UNL     1      50.009   7.400  14.500  0.00  0.00    +0.000 C 
BRANCH  13  17
ATOM     17  O   UNL     1      50.657   8.844  16.468  0.00  0.00    +0.000 OA
ATOM     18  H   UNL     1      51.399   8.845  17.098  0.00  0.00    +0.000 HD
ENDBRANCH  13  17
ENDBRANCH   4  15
ENDBRANCH   1   7
BRANCH   1  19
ATOM     19  C   UNL     1      43.160   4.109  11.191  0.00  0.00    +0.000 C 
BRANCH  19  20
ATOM     20  N   UNL     1      43.856   4.838  10.107  0.00  0.00    +0.000 N 
ATOM     21  C   UNL     1      44.672   3.992   9.333  0.00  0.00    +0.000 A 
ATOM     22  C   UNL     1      45.412   4.505   8.267  0.00  0.00    +0.000 A 
ATOM     23  N   UNL     1      46.217   3.749   7.473  0.00  0.00    +0.000 NA
ATOM     24  C   UNL     1      46.256   2.418   7.762  0.00  0.00    +0.000 A 
ATOM     25  C   UNL     1      45.503   1.903   8.805  0.00  0.00    +0.000 A 
ATOM     26  N   UNL     1      44.706   2.666   9.594  0.00  0.00    +0.000 NA
ATOM     27  H   UNL     1      44.396   5.626  10.461  0.00  0.00    +0.000 HD
BRANCH  24  28
ATOM     28  C   UNL     1      47.128   1.463   6.981  0.00  0.00    +0.000 C 
ATOM     29  F   UNL     1      48.464   1.711   7.063  0.00  0.00    +0.000 F 
ATOM     30  F   UNL     1      46.964   0.168   7.384  0.00  0.00    +0.000 F 
ATOM     31  F   UNL     1      46.832   1.460   5.647  0.00  0.00    +0.000 F 
ENDBRANCH  24  28
ENDBRANCH  19  20
ENDBRANCH   1  19
TORSDOF 6
ENDMDL
MODEL 4
REMARK VINA RESULT:    -7.401      3.447      4.192
REMARK INTER + INTRA:         -10.369
REMARK INTER:                  -9.569
REMARK INTRA:                  -0.800
REMARK UNBOUND:                -0.588
REMARK  Name = 
REMARK  7 active torsions:
REMARK  status: ('A' for Active; 'I' for Inactive)
REMARK    1  A    between atoms: C_1  and  C_2
REMARK    2  A    between atoms: C_2  and  O_3
REMARK    3  A    between atoms: C_5  and  N_6
REMARK    4  A    between atoms: C_9  and  C_10
REMARK    5  A    between atoms: C_10  and  C_13
REMARK    6  A    between atoms: C_13  and  N_14
REMARK    7  A    between atoms: C_18  and  C_19
REMARK                            x       y       z     vdW  Elec       q    Type
REMARK                         _______ _______ _______ _____ _____    ______ ____
ROOT
ATOM      1  C   UNL     1      44.874   5.772  12.340  0.00  0.00    +0.000 C 
ATOM      2  F   UNL     1      45.646   4.707  12.712  0.00  0.00    +0.000 F 
ATOM      3  F   UNL     1      43.974   5.928  13.363  0.00  0.00    +0.000 F 
ENDROOT
BRANCH   1   7
ATOM      4  N   UNL     1      49.292   7.786  11.579  0.00  0.00    +0.000 N 
ATOM      5  C   UNL     1      47.913   7.988  11.796  0.00  0.00    +0.000 A 
ATOM      6  C   UNL     1      47.087   6.870  11.883  0.00  0.00    +0.000 A 
ATOM      7  C   UNL     1      45.724   7.023  12.173  0.00  0.00    +0.000 A 
ATOM      8  C   UNL     1      45.236   8.326  12.309  0.00  0.00    +0.000 A 
ATOM      9  C   UNL     1      46.121   9.385  12.186  0.00  0.00    +0.000 A 
ATOM     10  N   UNL     1      47.438   9.237  11.954  0.00  0.00    +0.000 NA
ATOM     11  H   UNL     1      49.410   7.372  10.657  0.00  0.00    +0.000 HD
BRANCH   4  15
ATOM     12  C   UNL     1      53.338   8.153  13.270  0.00  0.00    +0.000 C 
ATOM     13  C   UNL     1      52.221   8.994  12.671  0.00  0.00    +0.000 C 
ATOM     14  C   UNL     1      50.819   8.727  13.276  0.00  0.00    +0.000 C 
ATOM     15  C   UNL     1      50.246   8.824  11.842  0.00  0.00    +0.000 C 
ATOM     16  C   UNL     1      51.656   8.468  11.322  0.00  0.00    +0.000 C 
BRANCH  13  17
ATOM     17  O   UNL     1      52.629  10.380  12.654  0.00  0.00    +0.000 OA
ATOM     18  H   UNL     1      52.454  10.707  13.554  0.00  0.00    +0.000 HD
ENDBRANCH  13  17
ENDBRANCH   4  15
ENDBRANCH   1   7
BRANCH   1  19
ATOM     19  C   UNL     1      44.068   5.385  11.079  0.00  0.00    +0.000 C 
BRANCH  19  20
ATOM     20  N   UNL     1      43.981   3.930  10.822  0.00  0.00    +0.000 N 
ATOM     21  C   UNL     1      44.763   3.534   9.721  0.00  0.00    +0.000 A 
ATOM     22  C   UNL     1      44.800   2.197   9.324  0.00  0.00    +0.000 A 
ATOM     23  N   UNL     1      45.536   1.740   8.275  0.00  0.00    +0.000 NA
ATOM     24  C   UNL     1      46.277   2.674   7.618  0.00  0.00    +0.000 A 
ATOM     25  C   UNL     1      46.261   3.999   8.027  0.00  0.00    +0.000 A 
ATOM     26  N   UNL     1      45.521   4.446   9.071  0.00  0.00    +0.000 NA
ATOM     27  H   UNL     1      43.017   3.621  10.702  0.00  0.00    +0.000 HD
BRANCH  24  28
ATOM     28  C   UNL     1      47.122   2.316   6.418  0.00  0.00    +0.000 C 
ATOM     29  F   UNL     1      48.438   2.650   6.524  0.00  0.00    +0.000 F 
ATOM     30  F   UNL     1      47.099   0.976   6.154  0.00  0.00    +0.000 F 
ATOM     31  F   UNL     1      46.678   2.912   5.272  0.00  0.00    +0.000 F 
ENDBRANCH  24  28
ENDBRANCH  19  20
ENDBRANCH   1  19
TORSDOF 6
ENDMDL
MODEL 5
REMARK VINA RESULT:    -6.658      4.664      8.348
REMARK INTER + INTRA:          -9.387
REMARK INTER:                  -8.511
REMARK INTRA:                  -0.876
REMARK UNBOUND:                -0.588
REMARK  Name = 
REMARK  7 active torsions:
REMARK  status: ('A' for Active; 'I' for Inactive)
REMARK    1  A    between atoms: C_1  and  C_2
REMARK    2  A    between atoms: C_2  and  O_3
REMARK    3  A    between atoms: C_5  and  N_6
REMARK    4  A    between atoms: C_9  and  C_10
REMARK    5  A    between atoms: C_10  and  C_13
REMARK    6  A    between atoms: C_13  and  N_14
REMARK    7  A    between atoms: C_18  and  C_19
REMARK                            x       y       z     vdW  Elec       q    Type
REMARK                         _______ _______ _______ _____ _____    ______ ____
ROOT
ATOM      1  C   UNL     1      48.268   8.962  13.543  0.00  0.00    +0.000 C 
ATOM      2  F   UNL     1      49.410   8.406  13.037  0.00  0.00    +0.000 F 
ATOM      3  F   UNL     1      48.422  10.313  13.358  0.00  0.00    +0.000 F 
ENDROOT
BRANCH   1   7
ATOM      4  N   UNL     1      45.931   5.240  11.344  0.00  0.00    +0.000 N 
ATOM      5  C   UNL     1      45.914   6.599  11.723  0.00  0.00    +0.000 A 
ATOM      6  C   UNL     1      46.983   7.090  12.467  0.00  0.00    +0.000 A 
ATOM      7  C   UNL     1      47.043   8.451  12.801  0.00  0.00    +0.000 A 
ATOM      8  C   UNL     1      45.972   9.258  12.407  0.00  0.00    +0.000 A 
ATOM      9  C   UNL     1      44.935   8.685  11.688  0.00  0.00    +0.000 A 
ATOM     10  N   UNL     1      44.900   7.389  11.328  0.00  0.00    +0.000 NA
ATOM     11  H   UNL     1      45.871   4.675  12.188  0.00  0.00    +0.000 HD
BRANCH   4  15
ATOM     12  C   UNL     1      46.214   2.434   7.966  0.00  0.00    +0.000 C 
ATOM     13  C   UNL     1      45.236   3.380   8.644  0.00  0.00    +0.000 C 
ATOM     14  C   UNL     1      45.797   4.799   8.918  0.00  0.00    +0.000 C 
ATOM     15  C   UNL     1      45.087   4.751  10.293  0.00  0.00    +0.000 C 
ATOM     16  C   UNL     1      45.121   3.210  10.185  0.00  0.00    +0.000 C 
BRANCH  13  17
ATOM     17  O   UNL     1      43.975   3.344   7.938  0.00  0.00    +0.000 OA
ATOM     18  H   UNL     1      43.432   4.036   8.353  0.00  0.00    +0.000 HD
ENDBRANCH  13  17
ENDBRANCH   4  15
ENDBRANCH   1   7
BRANCH   1  19
ATOM     19  C   UNL     1      48.229   8.714  15.068  0.00  0.00    +0.000 C 
BRANCH  19  20
ATOM     20  N   UNL     1      49.492   8.202  15.646  0.00  0.00    +0.000 N 
ATOM     21  C   UNL     1      49.376   6.872  16.090  0.00  0.00    +0.000 A 
ATOM     22  C   UNL     1      50.466   6.222  16.671  0.00  0.00    +0.000 A 
ATOM     23  N   UNL     1      50.430   4.939  17.119  0.00  0.00    +0.000 NA
ATOM     24  C   UNL     1      49.247   4.284  16.951  0.00  0.00    +0.000 A 
ATOM     25  C   UNL     1      48.171   4.920  16.352  0.00  0.00    +0.000 A 
ATOM     26  N   UNL     1      48.215   6.202  15.913  0.00  0.00    +0.000 NA
ATOM     27  H   UNL     1      49.838   8.799  16.397  0.00  0.00    +0.000 HD
BRANCH  24  28
ATOM     28  C   UNL     1      49.054   2.863  17.424  0.00  0.00    +0.000 C 
ATOM     29  F   UNL     1      48.236   2.726  18.505  0.00  0.00    +0.000 F 
ATOM     30  F   UNL     1      48.523   2.063  16.453  0.00  0.00    +0.000 F 
ATOM     31  F   UNL     1      50.232   2.264  17.772  0.00  0.00    +0.000 F 
ENDBRANCH  24  28
ENDBRANCH  19  20
ENDBRANCH   1  19
TORSDOF 6
ENDMDL
MODEL 6
REMARK VINA RESULT:    -6.578      4.173      6.112
REMARK INTER + INTRA:          -9.282
REMARK INTER:                  -8.638
REMARK INTRA:                  -0.644
REMARK UNBOUND:                -0.588
REMARK  Name = 
REMARK  7 active torsions:
REMARK  status: ('A' for Active; 'I' for Inactive)
REMARK    1  A    between atoms: C_1  and  C_2
REMARK    2  A    between atoms: C_2  and  O_3
REMARK    3  A    between atoms: C_5  and  N_6
REMARK    4  A    between atoms: C_9  and  C_10
REMARK    5  A    between atoms: C_10  and  C_13
REMARK    6  A    between atoms: C_13  and  N_14
REMARK    7  A    between atoms: C_18  and  C_19
REMARK                            x       y       z     vdW  Elec       q    Type
REMARK                         _______ _______ _______ _____ _____    ______ ____
ROOT
ATOM      1  C   UNL     1      47.567   3.704  17.114  0.00  0.00    +0.000 C 
ATOM      2  F   UNL     1      47.084   2.609  17.774  0.00  0.00    +0.000 F 
ATOM      3  F   UNL     1      46.877   4.766  17.643  0.00  0.00    +0.000 F 
ENDROOT
BRANCH   1   7
ATOM      4  N   UNL     1      51.483   6.652  17.464  0.00  0.00    +0.000 N 
ATOM      5  C   UNL     1      50.974   5.337  17.516  0.00  0.00    +0.000 A 
ATOM      6  C   UNL     1      49.601   5.155  17.378  0.00  0.00    +0.000 A 
ATOM      7  C   UNL     1      49.061   3.861  17.349  0.00  0.00    +0.000 A 
ATOM      8  C   UNL     1      49.944   2.791  17.518  0.00  0.00    +0.000 A 
ATOM      9  C   UNL     1      51.295   3.060  17.672  0.00  0.00    +0.000 A 
ATOM     10  N   UNL     1      51.819   4.299  17.654  0.00  0.00    +0.000 NA
ATOM     11  H   UNL     1      51.127   7.161  18.269  0.00  0.00    +0.000 HD
BRANCH   4  15
ATOM     12  C   UNL     1      53.950   9.449  15.129  0.00  0.00    +0.000 C 
ATOM     13  C   UNL     1      54.072   8.270  16.081  0.00  0.00    +0.000 C 
ATOM     14  C   UNL     1      53.182   7.054  15.717  0.00  0.00    +0.000 C 
ATOM     15  C   UNL     1      52.875   6.901  17.227  0.00  0.00    +0.000 C 
ATOM     16  C   UNL     1      53.238   8.394  17.387  0.00  0.00    +0.000 C 
BRANCH  13  17
ATOM     17  O   UNL     1      55.471   7.969  16.285  0.00  0.00    +0.000 OA
ATOM     18  H   UNL     1      55.948   8.542  15.659  0.00  0.00    +0.000 HD
ENDBRANCH  13  17
ENDBRANCH   4  15
ENDBRANCH   1   7
BRANCH   1  19
ATOM     19  C   UNL     1      47.171   3.600  15.624  0.00  0.00    +0.000 C 
BRANCH  19  20
ATOM     20  N   UNL     1      46.914   4.898  14.959  0.00  0.00    +0.000 N 
ATOM     21  C   UNL     1      46.287   4.743  13.709  0.00  0.00    +0.000 A 
ATOM     22  C   UNL     1      45.972   5.858  12.931  0.00  0.00    +0.000 A 
ATOM     23  N   UNL     1      45.363   5.786  11.718  0.00  0.00    +0.000 NA
ATOM     24  C   UNL     1      45.043   4.534  11.287  0.00  0.00    +0.000 A 
ATOM     25  C   UNL     1      45.332   3.427  12.069  0.00  0.00    +0.000 A 
ATOM     26  N   UNL     1      45.945   3.508  13.276  0.00  0.00    +0.000 NA
ATOM     27  H   UNL     1      47.764   5.453  14.863  0.00  0.00    +0.000 HD
BRANCH  24  28
ATOM     28  C   UNL     1      44.386   4.300   9.947  0.00  0.00    +0.000 C 
ATOM     29  F   UNL     1      45.150   4.635   8.870  0.00  0.00    +0.000 F 
ATOM     30  F   UNL     1      44.039   2.992   9.764  0.00  0.00    +0.000 F 
ATOM     31  F   UNL     1      43.221   5.000   9.808  0.00  0.00    +0.000 F 
ENDBRANCH  24  28
ENDBRANCH  19  20
ENDBRANCH   1  19
TORSDOF 6
ENDMDL
MODEL 7
REMARK VINA RESULT:    -6.483      4.610      8.852
REMARK INTER + INTRA:          -9.156
REMARK INTER:                  -8.340
REMARK INTRA:                  -0.816
REMARK UNBOUND:                -0.588
REMARK  Name = 
REMARK  7 active torsions:
REMARK  status: ('A' for Active; 'I' for Inactive)
REMARK    1  A    between atoms: C_1  and  C_2
REMARK    2  A    between atoms: C_2  and  O_3
REMARK    3  A    between atoms: C_5  and  N_6
REMARK    4  A    between atoms: C_9  and  C_10
REMARK    5  A    between atoms: C_10  and  C_13
REMARK    6  A    between atoms: C_13  and  N_14
REMARK    7  A    between atoms: C_18  and  C_19
REMARK                            x       y       z     vdW  Elec       q    Type
REMARK                         _______ _______ _______ _____ _____    ______ ____
ROOT
ATOM      1  C   UNL     1      49.959   8.625  11.999  0.00  0.00    +0.000 C 
ATOM      2  F   UNL     1      50.590   7.606  11.340  0.00  0.00    +0.000 F 
ATOM      3  F   UNL     1      50.086   9.712  11.171  0.00  0.00    +0.000 F 
ENDROOT
BRANCH   1   7
ATOM      4  N   UNL     1      46.456   5.225  12.567  0.00  0.00    +0.000 N 
ATOM      5  C   UNL     1      46.787   6.595  12.508  0.00  0.00    +0.000 A 
ATOM      6  C   UNL     1      48.127   6.945  12.369  0.00  0.00    +0.000 A 
ATOM      7  C   UNL     1      48.493   8.292  12.231  0.00  0.00    +0.000 A 
ATOM      8  C   UNL     1      47.473   9.246  12.296  0.00  0.00    +0.000 A 
ATOM      9  C   UNL     1      46.166   8.815  12.459  0.00  0.00    +0.000 A 
ATOM     10  N   UNL     1      45.810   7.520  12.545  0.00  0.00    +0.000 NA
ATOM     11  H   UNL     1      46.858   4.839  13.418  0.00  0.00    +0.000 HD
BRANCH   4  15
ATOM     12  C   UNL     1      44.341   2.530   9.806  0.00  0.00    +0.000 C 
ATOM     13  C   UNL     1      44.089   3.457  10.984  0.00  0.00    +0.000 C 
ATOM     14  C   UNL     1      44.725   4.864  10.843  0.00  0.00    +0.000 C 
ATOM     15  C   UNL     1      45.114   4.774  12.339  0.00  0.00    +0.000 C 
ATOM     16  C   UNL     1      45.028   3.237  12.203  0.00  0.00    +0.000 C 
BRANCH  13  17
ATOM     17  O   UNL     1      42.679   3.449  11.301  0.00  0.00    +0.000 OA
ATOM     18  H   UNL     1      42.535   2.624  11.797  0.00  0.00    +0.000 HD
ENDBRANCH  13  17
ENDBRANCH   4  15
ENDBRANCH   1   7
BRANCH   1  19
ATOM     19  C   UNL     1      50.744   8.942  13.291  0.00  0.00    +0.000 C 
BRANCH  19  20
ATOM     20  N   UNL     1      51.091   7.760  14.112  0.00  0.00    +0.000 N 
ATOM     21  C   UNL     1      50.324   7.684  15.290  0.00  0.00    +0.000 A 
ATOM     22  C   UNL     1      50.517   6.638  16.193  0.00  0.00    +0.000 A 
ATOM     23  N   UNL     1      49.812   6.496  17.347  0.00  0.00    +0.000 NA
ATOM     24  C   UNL     1      48.861   7.442  17.582  0.00  0.00    +0.000 A 
ATOM     25  C   UNL     1      48.651   8.468  16.674  0.00  0.00    +0.000 A 
ATOM     26  N   UNL     1      49.363   8.604  15.528  0.00  0.00    +0.000 NA
ATOM     27  H   UNL     1      52.086   7.727  14.333  0.00  0.00    +0.000 HD
BRANCH  24  28
ATOM     28  C   UNL     1      48.020   7.426  18.836  0.00  0.00    +0.000 C 
ATOM     29  F   UNL     1      47.021   8.352  18.867  0.00  0.00    +0.000 F 
ATOM     30  F   UNL     1      47.413   6.219  19.035  0.00  0.00    +0.000 F 
ATOM     31  F   UNL     1      48.761   7.641  19.964  0.00  0.00    +0.000 F 
ENDBRANCH  24  28
ENDBRANCH  19  20
ENDBRANCH   1  19
TORSDOF 6
ENDMDL
MODEL 8
REMARK VINA RESULT:    -5.980      5.176      8.500
REMARK INTER + INTRA:          -8.491
REMARK INTER:                  -7.415
REMARK INTRA:                  -1.076
REMARK UNBOUND:                -0.588
REMARK  Name = 
REMARK  7 active torsions:
REMARK  status: ('A' for Active; 'I' for Inactive)
REMARK    1  A    between atoms: C_1  and  C_2
REMARK    2  A    between atoms: C_2  and  O_3
REMARK    3  A    between atoms: C_5  and  N_6
REMARK    4  A    between atoms: C_9  and  C_10
REMARK    5  A    between atoms: C_10  and  C_13
REMARK    6  A    between atoms: C_13  and  N_14
REMARK    7  A    between atoms: C_18  and  C_19
REMARK                            x       y       z     vdW  Elec       q    Type
REMARK                         _______ _______ _______ _____ _____    ______ ____
ROOT
ATOM      1  C   UNL     1      49.555  10.002  16.738  0.00  0.00    +0.000 C 
ATOM      2  F   UNL     1      50.500  10.987  16.651  0.00  0.00    +0.000 F 
ATOM      3  F   UNL     1      48.412  10.646  17.140  0.00  0.00    +0.000 F 
ENDROOT
BRANCH   1   7
ATOM      4  N   UNL     1      46.542   7.759  13.570  0.00  0.00    +0.000 N 
ATOM      5  C   UNL     1      47.843   8.228  13.846  0.00  0.00    +0.000 A 
ATOM      6  C   UNL     1      48.058   8.913  15.039  0.00  0.00    +0.000 A 
ATOM      7  C   UNL     1      49.350   9.331  15.388  0.00  0.00    +0.000 A 
ATOM      8  C   UNL     1      50.377   9.082  14.473  0.00  0.00    +0.000 A 
ATOM      9  C   UNL     1      50.074   8.414  13.297  0.00  0.00    +0.000 A 
ATOM     10  N   UNL     1      48.842   7.971  12.983  0.00  0.00    +0.000 NA
ATOM     11  H   UNL     1      45.932   8.566  13.457  0.00  0.00    +0.000 HD
BRANCH   4  15
ATOM     12  C   UNL     1      43.124   5.563  11.878  0.00  0.00    +0.000 C 
ATOM     13  C   UNL     1      44.635   5.681  11.758  0.00  0.00    +0.000 C 
ATOM     14  C   UNL     1      45.394   5.621  13.109  0.00  0.00    +0.000 C 
ATOM     15  C   UNL     1      46.310   6.751  12.577  0.00  0.00    +0.000 C 
ATOM     16  C   UNL     1      45.169   7.133  11.608  0.00  0.00    +0.000 C 
BRANCH  13  17
ATOM     17  O   UNL     1      45.104   4.759  10.749  0.00  0.00    +0.000 OA
ATOM     18  H   UNL     1      44.398   4.095  10.665  0.00  0.00    +0.000 HD
ENDBRANCH  13  17
ENDBRANCH   4  15
ENDBRANCH   1   7
BRANCH   1  19
ATOM     19  C   UNL     1      49.953   9.030  17.871  0.00  0.00    +0.000 C 
BRANCH  19  20
ATOM     20  N   UNL     1      48.813   8.417  18.590  0.00  0.00    +0.000 N 
ATOM     21  C   UNL     1      48.587   7.085  18.197  0.00  0.00    +0.000 A 
ATOM     22  C   UNL     1      47.548   6.346  18.764  0.00  0.00    +0.000 A 
ATOM     23  N   UNL     1      47.273   5.055  18.438  0.00  0.00    +0.000 NA
ATOM     24  C   UNL     1      48.098   4.487  17.515  0.00  0.00    +0.000 A 
ATOM     25  C   UNL     1      49.146   5.211  16.969  0.00  0.00    +0.000 A 
ATOM     26  N   UNL     1      49.409   6.500  17.296  0.00  0.00    +0.000 NA
ATOM     27  H   UNL     1      47.960   8.966  18.492  0.00  0.00    +0.000 HD
BRANCH  24  28
ATOM     28  C   UNL     1      47.895   3.068  17.038  0.00  0.00    +0.000 C 
ATOM     29  F   UNL     1      47.631   2.945  15.707  0.00  0.00    +0.000 F 
ATOM     30  F   UNL     1      48.988   2.284  17.274  0.00  0.00    +0.000 F 
ATOM     31  F   UNL     1      46.864   2.444  17.681  0.00  0.00    +0.000 F 
ENDBRANCH  24  28
ENDBRANCH  19  20
ENDBRANCH   1  19
TORSDOF 6
ENDMDL
