MODEL 1
REMARK VINA RESULT:    -7.990      0.000      0.000
REMARK INTER + INTRA:         -10.296
REMARK INTER:                 -10.092
REMARK INTRA:                  -0.204
REMARK UNBOUND:                -0.204
REMARK  Name = 
REMARK  5 active torsions:
REMARK  status: ('A' for Active; 'I' for Inactive)
REMARK    1  A    between atoms: N_1  and  C_2
REMARK    2  A    between atoms: C_2  and  C_3
REMARK    3  A    between atoms: C_6  and  C_7
REMARK    4  A    between atoms: C_7  and  N_8
REMARK    5  A    between atoms: C_13  and  C_14
REMARK                            x       y       z     vdW  Elec       q    Type
REMARK                         _______ _______ _______ _____ _____    ______ ____
ROOT
ATOM      1  N   UNL     1      44.026   4.269  10.415  0.00  0.00    +0.000 N 
ATOM      2  N   UNL     1      43.427   3.139  10.855  0.00  0.00    +0.000 NA
ATOM      3  N   UNL     1      43.951   2.117  10.184  0.00  0.00    +0.000 NA
ATOM      4  C   UNL     1      44.863   2.618   9.297  0.00  0.00    +0.000 A 
ATOM      5  C   UNL     1      45.645   2.002   8.313  0.00  0.00    +0.000 A 
ATOM      6  C   UNL     1      46.456   2.836   7.533  0.00  0.00    +0.000 A 
ATOM      7  C   UNL     1      46.465   4.212   7.804  0.00  0.00    +0.000 A 
ATOM      8  N   UNL     1      45.725   4.853   8.753  0.00  0.00    +0.000 NA
ATOM      9  C   UNL     1      44.947   3.995   9.444  0.00  0.00    +0.000 A 
ENDROOT
BRANCH   6  10
ATOM     10  C   UNL     1      47.288   2.352   6.407  0.00  0.00    +0.000 C 
ATOM     11  N   UNL     1      47.253   3.030   5.222  0.00  0.00    +0.000 N 
ATOM     12  O   UNL     1      48.012   1.371   6.532  0.00  0.00    +0.000 OA
ATOM     13  H   UNL     1      46.715   3.861   5.032  0.00  0.00    +0.000 HD
ATOM     14  H   UNL     1      47.862   2.690   4.487  0.00  0.00    +0.000 HD
ENDBRANCH   6  10
BRANCH   1  15
ATOM     15  C   UNL     1      43.551   5.565  10.841  0.00  0.00    +0.000 C 
BRANCH  15  19
ATOM     16  C   UNL     1      46.894   7.079  13.243  0.00  0.00    +0.000 C 
ATOM     17  C   UNL     1      45.772   8.058  12.875  0.00  0.00    +0.000 C 
ATOM     18  C   UNL     1      44.887   7.540  11.746  0.00  0.00    +0.000 C 
ATOM     19  C   UNL     1      44.282   6.160  12.059  0.00  0.00    +0.000 C 
ATOM     20  C   UNL     1      45.361   5.163  12.527  0.00  0.00    +0.000 C 
ATOM     21  C   UNL     1      46.269   5.726  13.622  0.00  0.00    +0.000 C 
BRANCH  16  22
ATOM     22  C   UNL     1      47.967   6.906  12.145  0.00  0.00    +0.000 C 
BRANCH  22  23
ATOM     23  N   UNL     1      49.284   6.552  12.664  0.00  0.00    +0.000 NA
ATOM     24  H   UNL     1      49.183   5.981  13.503  0.00  0.00    +0.000 HD
ATOM     25  H   UNL     1      49.783   5.975  11.988  0.00  0.00    +0.000 HD
ENDBRANCH  22  23
ENDBRANCH  16  22
ENDBRANCH  15  19
ENDBRANCH   1  15
TORSDOF 5
ENDMDL
MODEL 2
REMARK VINA RESULT:    -6.595      5.193      8.346
REMARK INTER + INTRA:          -8.534
REMARK INTER:                  -8.355
REMARK INTRA:                  -0.179
REMARK UNBOUND:                -0.204
REMARK  Name = 
REMARK  5 active torsions:
REMARK  status: ('A' for Active; 'I' for Inactive)
REMARK    1  A    between atoms: N_1  and  C_2
REMARK    2  A    between atoms: C_2  and  C_3
REMARK    3  A    between atoms: C_6  and  C_7
REMARK    4  A    between atoms: C_7  and  N_8
REMARK    5  A    between atoms: C_13  and  C_14
REMARK                            x       y       z     vdW  Elec       q    Type
REMARK                         _______ _______ _______ _____ _____    ______ ____
ROOT
ATOM      1  N   UNL     1      47.172   4.298  14.994  0.00  0.00    +0.000 N 
ATOM      2  N   UNL     1      47.558   3.082  14.547  0.00  0.00    +0.000 NA
ATOM      3  N   UNL     1      48.143   2.446  15.559  0.00  0.00    +0.000 NA
ATOM      4  C   UNL     1      48.147   3.287  16.638  0.00  0.00    +0.000 A 
ATOM      5  C   UNL     1      48.689   3.156  17.922  0.00  0.00    +0.000 A 
ATOM      6  C   UNL     1      48.550   4.252  18.784  0.00  0.00    +0.000 A 
ATOM      7  C   UNL     1      47.856   5.383  18.329  0.00  0.00    +0.000 A 
ATOM      8  N   UNL     1      47.311   5.551  17.091  0.00  0.00    +0.000 NA
ATOM      9  C   UNL     1      47.507   4.473  16.307  0.00  0.00    +0.000 A 
ENDROOT
BRANCH   6  10
ATOM     10  C   UNL     1      49.126   4.301  20.147  0.00  0.00    +0.000 C 
ATOM     11  N   UNL     1      50.482   4.396  20.288  0.00  0.00    +0.000 N 
ATOM     12  O   UNL     1      48.406   4.274  21.139  0.00  0.00    +0.000 OA
ATOM     13  H   UNL     1      51.151   4.454  19.537  0.00  0.00    +0.000 HD
ATOM     14  H   UNL     1      50.835   4.463  21.235  0.00  0.00    +0.000 HD
ENDBRANCH   6  10
BRANCH   1  15
ATOM     15  C   UNL     1      46.651   5.285  14.077  0.00  0.00    +0.000 C 
BRANCH  15  19
ATOM     16  C   UNL     1      43.543   4.750  11.030  0.00  0.00    +0.000 C 
ATOM     17  C   UNL     1      44.907   5.289  10.578  0.00  0.00    +0.000 C 
ATOM     18  C   UNL     1      45.756   5.788  11.742  0.00  0.00    +0.000 C 
ATOM     19  C   UNL     1      45.960   4.714  12.825  0.00  0.00    +0.000 C 
ATOM     20  C   UNL     1      44.622   4.072  13.245  0.00  0.00    +0.000 C 
ATOM     21  C   UNL     1      43.767   3.629  12.058  0.00  0.00    +0.000 C 
BRANCH  16  22
ATOM     22  C   UNL     1      42.590   5.831  11.586  0.00  0.00    +0.000 C 
BRANCH  22  23
ATOM     23  N   UNL     1      42.780   7.146  10.985  0.00  0.00    +0.000 NA
ATOM     24  H   UNL     1      43.662   7.167  10.472  0.00  0.00    +0.000 HD
ATOM     25  H   UNL     1      42.050   7.325  10.297  0.00  0.00    +0.000 HD
ENDBRANCH  22  23
ENDBRANCH  16  22
ENDBRANCH  15  19
ENDBRANCH   1  15
TORSDOF 5
ENDMDL
MODEL 3
REMARK VINA RESULT:    -6.454      4.784      8.270
REMARK INTER + INTRA:          -8.355
REMARK INTER:                  -8.452
REMARK INTRA:                   0.097
REMARK UNBOUND:                -0.204
REMARK  Name = 
REMARK  5 active torsions:
REMARK  status: ('A' for Active; 'I' for Inactive)
REMARK    1  A    between atoms: N_1  and  C_2
REMARK    2  A    between atoms: C_2  and  C_3
REMARK    3  A    between atoms: C_6  and  C_7
REMARK    4  A    between atoms: C_7  and  N_8
REMARK    5  A    between atoms: C_13  and  C_14
REMARK                            x       y       z     vdW  Elec       q    Type
REMARK                         _______ _______ _______ _____ _____    ______ ____
ROOT
ATOM      1  N   UNL     1      47.356   4.458  14.388  0.00  0.00    +0.000 N 
ATOM      2  N   UNL     1      47.904   5.590  13.895  0.00  0.00    +0.000 NA
ATOM      3  N   UNL     1      48.477   6.237  14.907  0.00  0.00    +0.000 NA
ATOM      4  C   UNL     1      48.256   5.515  16.047  0.00  0.00    +0.000 A 
ATOM      5  C   UNL     1      48.573   5.764  17.387  0.00  0.00    +0.000 A 
ATOM      6  C   UNL     1      48.147   4.816  18.327  0.00  0.00    +0.000 A 
ATOM      7  C   UNL     1      47.472   3.674  17.873  0.00  0.00    +0.000 A 
ATOM      8  N   UNL     1      47.147   3.389  16.580  0.00  0.00    +0.000 NA
ATOM      9  C   UNL     1      47.559   4.355  15.736  0.00  0.00    +0.000 A 
ENDROOT
BRANCH   6  10
ATOM     10  C   UNL     1      48.341   4.966  19.788  0.00  0.00    +0.000 C 
ATOM     11  N   UNL     1      48.519   3.844  20.547  0.00  0.00    +0.000 N 
ATOM     12  O   UNL     1      48.361   6.072  20.313  0.00  0.00    +0.000 OA
ATOM     13  H   UNL     1      48.549   2.897  20.205  0.00  0.00    +0.000 HD
ATOM     14  H   UNL     1      48.684   3.988  21.537  0.00  0.00    +0.000 HD
ENDBRANCH   6  10
BRANCH   1  15
ATOM     15  C   UNL     1      46.520   3.624  13.557  0.00  0.00    +0.000 C 
BRANCH  15  19
ATOM     16  C   UNL     1      43.692   4.835  10.431  0.00  0.00    +0.000 C 
ATOM     17  C   UNL     1      43.152   4.017  11.611  0.00  0.00    +0.000 C 
ATOM     18  C   UNL     1      44.258   3.340  12.412  0.00  0.00    +0.000 C 
ATOM     19  C   UNL     1      45.314   4.338  12.919  0.00  0.00    +0.000 C 
ATOM     20  C   UNL     1      45.820   5.251  11.784  0.00  0.00    +0.000 C 
ATOM     21  C   UNL     1      44.691   5.876  10.963  0.00  0.00    +0.000 C 
BRANCH  16  22
ATOM     22  C   UNL     1      44.325   3.983   9.309  0.00  0.00    +0.000 C 
BRANCH  22  23
ATOM     23  N   UNL     1      45.201   4.740   8.421  0.00  0.00    +0.000 NA
ATOM     24  H   UNL     1      46.107   4.882   8.868  0.00  0.00    +0.000 HD
ATOM     25  H   UNL     1      45.385   4.207   7.573  0.00  0.00    +0.000 HD
ENDBRANCH  22  23
ENDBRANCH  16  22
ENDBRANCH  15  19
ENDBRANCH   1  15
TORSDOF 5
ENDMDL
MODEL 4
REMARK VINA RESULT:    -6.155      3.133      5.215
REMARK INTER + INTRA:          -7.978
REMARK INTER:                  -7.626
REMARK INTRA:                  -0.351
REMARK UNBOUND:                -0.204
REMARK  Name = 
REMARK  5 active torsions:
REMARK  status: ('A' for Active; 'I' for Inactive)
REMARK    1  A    between atoms: N_1  and  C_2
REMARK    2  A    between atoms: C_2  and  C_3
REMARK    3  A    between atoms: C_6  and  C_7
REMARK    4  A    between atoms: C_7  and  N_8
REMARK    5  A    between atoms: C_13  and  C_14
REMARK                            x       y       z     vdW  Elec       q    Type
REMARK                         _______ _______ _______ _____ _____    ______ ____
ROOT
ATOM      1  N   UNL     1      47.452   6.527  13.377  0.00  0.00    +0.000 N 
ATOM      2  N   UNL     1      47.885   5.843  14.460  0.00  0.00    +0.000 NA
ATOM      3  N   UNL     1      47.368   4.619  14.398  0.00  0.00    +0.000 NA
ATOM      4  C   UNL     1      46.582   4.549  13.282  0.00  0.00    +0.000 A 
ATOM      5  C   UNL     1      45.761   3.533  12.779  0.00  0.00    +0.000 A 
ATOM      6  C   UNL     1      45.042   3.817  11.611  0.00  0.00    +0.000 A 
ATOM      7  C   UNL     1      45.212   5.070  11.004  0.00  0.00    +0.000 A 
ATOM      8  N   UNL     1      46.002   6.086  11.455  0.00  0.00    +0.000 NA
ATOM      9  C   UNL     1      46.639   5.754  12.596  0.00  0.00    +0.000 A 
ENDROOT
BRANCH   6  10
ATOM     10  C   UNL     1      44.079   2.878  10.991  0.00  0.00    +0.000 C 
ATOM     11  N   UNL     1      44.472   2.155   9.900  0.00  0.00    +0.000 N 
ATOM     12  O   UNL     1      42.954   2.731  11.452  0.00  0.00    +0.000 OA
ATOM     13  H   UNL     1      45.382   2.184   9.468  0.00  0.00    +0.000 HD
ATOM     14  H   UNL     1      43.799   1.498   9.525  0.00  0.00    +0.000 HD
ENDBRANCH   6  10
BRANCH   1  15
ATOM     15  C   UNL     1      47.714   7.941  13.248  0.00  0.00    +0.000 C 
BRANCH  15  19
ATOM     16  C   UNL     1      51.459   9.152  11.314  0.00  0.00    +0.000 C 
ATOM     17  C   UNL     1      50.882   7.774  10.963  0.00  0.00    +0.000 C 
ATOM     18  C   UNL     1      49.821   7.311  11.956  0.00  0.00    +0.000 C 
ATOM     19  C   UNL     1      48.674   8.326  12.107  0.00  0.00    +0.000 C 
ATOM     20  C   UNL     1      49.208   9.749  12.367  0.00  0.00    +0.000 C 
ATOM     21  C   UNL     1      50.308  10.169  11.391  0.00  0.00    +0.000 C 
BRANCH  16  22
ATOM     22  C   UNL     1      52.304   9.172  12.606  0.00  0.00    +0.000 C 
BRANCH  22  23
ATOM     23  N   UNL     1      53.175   8.011  12.755  0.00  0.00    +0.000 NA
ATOM     24  H   UNL     1      52.645   7.157  12.580  0.00  0.00    +0.000 HD
ATOM     25  H   UNL     1      53.913   8.035  12.053  0.00  0.00    +0.000 HD
ENDBRANCH  22  23
ENDBRANCH  16  22
ENDBRANCH  15  19
ENDBRANCH   1  15
TORSDOF 5
ENDMDL
MODEL 5
REMARK VINA RESULT:    -6.081      3.970      7.090
REMARK INTER + INTRA:          -7.885
REMARK INTER:                  -8.120
REMARK INTRA:                   0.234
REMARK UNBOUND:                -0.204
REMARK  Name = 
REMARK  5 active torsions:
REMARK  status: ('A' for Active; 'I' for Inactive)
REMARK    1  A    between atoms: N_1  and  C_2
REMARK    2  A    between atoms: C_2  and  C_3
REMARK    3  A    between atoms: C_6  and  C_7
REMARK    4  A    between atoms: C_7  and  N_8
REMARK    5  A    between atoms: C_13  and  C_14
REMARK                            x       y       z     vdW  Elec       q    Type
REMARK                         _______ _______ _______ _____ _____    ______ ____
ROOT
ATOM      1  N   UNL     1      47.566   6.509  13.042  0.00  0.00    +0.000 N 
ATOM      2  N   UNL     1      47.926   7.691  13.590  0.00  0.00    +0.000 NA
ATOM      3  N   UNL     1      48.223   7.469  14.868  0.00  0.00    +0.000 NA
ATOM      4  C   UNL     1      48.016   6.142  15.125  0.00  0.00    +0.000 A 
ATOM      5  C   UNL     1      48.106   5.394  16.304  0.00  0.00    +0.000 A 
ATOM      6  C   UNL     1      47.773   4.036  16.221  0.00  0.00    +0.000 A 
ATOM      7  C   UNL     1      47.409   3.507  14.974  0.00  0.00    +0.000 A 
ATOM      8  N   UNL     1      47.312   4.196  13.802  0.00  0.00    +0.000 NA
ATOM      9  C   UNL     1      47.617   5.499  13.962  0.00  0.00    +0.000 A 
ENDROOT
BRANCH   6  10
ATOM     10  C   UNL     1      47.749   3.124  17.388  0.00  0.00    +0.000 C 
ATOM     11  N   UNL     1      48.906   2.910  18.081  0.00  0.00    +0.000 N 
ATOM     12  O   UNL     1      46.710   2.580  17.744  0.00  0.00    +0.000 OA
ATOM     13  H   UNL     1      49.799   3.333  17.885  0.00  0.00    +0.000 HD
ATOM     14  H   UNL     1      48.843   2.308  18.894  0.00  0.00    +0.000 HD
ENDBRANCH   6  10
BRANCH   1  15
ATOM     15  C   UNL     1      47.030   6.454  11.702  0.00  0.00    +0.000 C 
BRANCH  15  19
ATOM     16  C   UNL     1      43.110   4.500  11.924  0.00  0.00    +0.000 C 
ATOM     17  C   UNL     1      43.392   5.656  12.892  0.00  0.00    +0.000 C 
ATOM     18  C   UNL     1      44.876   5.993  12.989  0.00  0.00    +0.000 C 
ATOM     19  C   UNL     1      45.499   6.307  11.617  0.00  0.00    +0.000 C 
ATOM     20  C   UNL     1      45.162   5.217  10.580  0.00  0.00    +0.000 C 
ATOM     21  C   UNL     1      43.675   4.860  10.540  0.00  0.00    +0.000 C 
BRANCH  16  22
ATOM     22  C   UNL     1      43.644   3.132  12.402  0.00  0.00    +0.000 C 
BRANCH  22  23
ATOM     23  N   UNL     1      43.011   1.994  11.744  0.00  0.00    +0.000 NA
ATOM     24  H   UNL     1      42.659   1.341  12.445  0.00  0.00    +0.000 HD
ATOM     25  H   UNL     1      42.198   2.303  11.213  0.00  0.00    +0.000 HD
ENDBRANCH  22  23
ENDBRANCH  16  22
ENDBRANCH  15  19
ENDBRANCH   1  15
TORSDOF 5
ENDMDL
MODEL 6
REMARK VINA RESULT:    -5.920      5.173      8.446
REMARK INTER + INTRA:          -7.682
REMARK INTER:                  -7.387
REMARK INTRA:                  -0.294
REMARK UNBOUND:                -0.204
REMARK  Name = 
REMARK  5 active torsions:
REMARK  status: ('A' for Active; 'I' for Inactive)
REMARK    1  A    between atoms: N_1  and  C_2
REMARK    2  A    between atoms: C_2  and  C_3
REMARK    3  A    between atoms: C_6  and  C_7
REMARK    4  A    between atoms: C_7  and  N_8
REMARK    5  A    between atoms: C_13  and  C_14
REMARK                            x       y       z     vdW  Elec       q    Type
REMARK                         _______ _______ _______ _____ _____    ______ ____
ROOT
ATOM      1  N   UNL     1      47.226   4.698  15.550  0.00  0.00    +0.000 N 
ATOM      2  N   UNL     1      46.394   3.833  16.172  0.00  0.00    +0.000 NA
ATOM      3  N   UNL     1      46.895   3.589  17.380  0.00  0.00    +0.000 NA
ATOM      4  C   UNL     1      48.066   4.285  17.500  0.00  0.00    +0.000 A 
ATOM      5  C   UNL     1      49.023   4.337  18.520  0.00  0.00    +0.000 A 
ATOM      6  C   UNL     1      50.152   5.134  18.292  0.00  0.00    +0.000 A 
ATOM      7  C   UNL     1      50.239   5.850  17.089  0.00  0.00    +0.000 A 
ATOM      8  N   UNL     1      49.331   5.833  16.072  0.00  0.00    +0.000 NA
ATOM      9  C   UNL     1      48.288   5.025  16.346  0.00  0.00    +0.000 A 
ENDROOT
BRANCH   6  10
ATOM     10  C   UNL     1      51.286   5.240  19.238  0.00  0.00    +0.000 C 
ATOM     11  N   UNL     1      52.503   5.647  18.768  0.00  0.00    +0.000 N 
ATOM     12  O   UNL     1      51.142   4.987  20.429  0.00  0.00    +0.000 OA
ATOM     13  H   UNL     1      52.712   5.906  17.817  0.00  0.00    +0.000 HD
ATOM     14  H   UNL     1      53.244   5.742  19.451  0.00  0.00    +0.000 HD
ENDBRANCH   6  10
BRANCH   1  15
ATOM     15  C   UNL     1      47.035   5.028  14.157  0.00  0.00    +0.000 C 
BRANCH  15  19
ATOM     16  C   UNL     1      43.877   4.417  11.176  0.00  0.00    +0.000 C 
ATOM     17  C   UNL     1      44.253   3.233  12.076  0.00  0.00    +0.000 C 
ATOM     18  C   UNL     1      45.588   3.436  12.786  0.00  0.00    +0.000 C 
ATOM     19  C   UNL     1      45.626   4.739  13.605  0.00  0.00    +0.000 C 
ATOM     20  C   UNL     1      45.163   5.948  12.768  0.00  0.00    +0.000 C 
ATOM     21  C   UNL     1      43.850   5.699  12.024  0.00  0.00    +0.000 C 
BRANCH  16  22
ATOM     22  C   UNL     1      44.791   4.588   9.942  0.00  0.00    +0.000 C 
BRANCH  22  23
ATOM     23  N   UNL     1      44.110   4.359   8.672  0.00  0.00    +0.000 NA
ATOM     24  H   UNL     1      44.717   3.832   8.045  0.00  0.00    +0.000 HD
ATOM     25  H   UNL     1      43.283   3.782   8.817  0.00  0.00    +0.000 HD
ENDBRANCH  22  23
ENDBRANCH  16  22
ENDBRANCH  15  19
ENDBRANCH   1  15
TORSDOF 5
ENDMDL
MODEL 7
REMARK VINA RESULT:    -5.777      3.720      5.760
REMARK INTER + INTRA:          -7.501
REMARK INTER:                  -8.048
REMARK INTRA:                   0.547
REMARK UNBOUND:                -0.204
REMARK  Name = 
REMARK  5 active torsions:
REMARK  status: ('A' for Active; 'I' for Inactive)
REMARK    1  A    between atoms: N_1  and  C_2
REMARK    2  A    between atoms: C_2  and  C_3
REMARK    3  A    between atoms: C_6  and  C_7
REMARK    4  A    between atoms: C_7  and  N_8
REMARK    5  A    between atoms: C_13  and  C_14
REMARK                            x       y       z     vdW  Elec       q    Type
REMARK                         _______ _______ _______ _____ _____    ______ ____
ROOT
ATOM      1  N   UNL     1      47.339   6.671  13.889  0.00  0.00    +0.000 N 
ATOM      2  N   UNL     1      47.041   7.972  13.673  0.00  0.00    +0.000 NA
ATOM      3  N   UNL     1      46.024   8.017  12.818  0.00  0.00    +0.000 NA
ATOM      4  C   UNL     1      45.705   6.732  12.474  0.00  0.00    +0.000 A 
ATOM      5  C   UNL     1      44.772   6.211  11.570  0.00  0.00    +0.000 A 
ATOM      6  C   UNL     1      44.739   4.817  11.425  0.00  0.00    +0.000 A 
ATOM      7  C   UNL     1      45.603   4.038  12.209  0.00  0.00    +0.000 A 
ATOM      8  N   UNL     1      46.522   4.502  13.103  0.00  0.00    +0.000 NA
ATOM      9  C   UNL     1      46.520   5.848  13.168  0.00  0.00    +0.000 A 
ENDROOT
BRANCH   6  10
ATOM     10  C   UNL     1      43.861   4.114  10.462  0.00  0.00    +0.000 C 
ATOM     11  N   UNL     1      43.825   4.545   9.166  0.00  0.00    +0.000 N 
ATOM     12  O   UNL     1      43.189   3.149  10.807  0.00  0.00    +0.000 OA
ATOM     13  H   UNL     1      44.361   5.306   8.782  0.00  0.00    +0.000 HD
ATOM     14  H   UNL     1      43.240   4.017   8.529  0.00  0.00    +0.000 HD
ENDBRANCH   6  10
BRANCH   1  15
ATOM     15  C   UNL     1      48.510   6.302  14.650  0.00  0.00    +0.000 C 
BRANCH  15  19
ATOM     16  C   UNL     1      48.849   3.406  17.925  0.00  0.00    +0.000 C 
ATOM     17  C   UNL     1      49.250   4.859  18.207  0.00  0.00    +0.000 C 
ATOM     18  C   UNL     1      49.457   5.669  16.932  0.00  0.00    +0.000 C 
ATOM     19  C   UNL     1      48.223   5.646  16.013  0.00  0.00    +0.000 C 
ATOM     20  C   UNL     1      47.722   4.207  15.776  0.00  0.00    +0.000 C 
ATOM     21  C   UNL     1      47.574   3.400  17.066  0.00  0.00    +0.000 C 
BRANCH  16  22
ATOM     22  C   UNL     1      49.962   2.558  17.271  0.00  0.00    +0.000 C 
BRANCH  22  23
ATOM     23  N   UNL     1      49.488   1.706  16.186  0.00  0.00    +0.000 NA
ATOM     24  H   UNL     1      50.100   0.895  16.091  0.00  0.00    +0.000 HD
ATOM     25  H   UNL     1      48.564   1.338  16.408  0.00  0.00    +0.000 HD
ENDBRANCH  22  23
ENDBRANCH  16  22
ENDBRANCH  15  19
ENDBRANCH   1  15
TORSDOF 5
ENDMDL
MODEL 8
REMARK VINA RESULT:    -5.722      3.604      5.558
REMARK INTER + INTRA:          -7.432
REMARK INTER:                  -6.984
REMARK INTRA:                  -0.448
REMARK UNBOUND:                -0.204
REMARK  Name = 
REMARK  5 active torsions:
REMARK  status: ('A' for Active; 'I' for Inactive)
REMARK    1  A    between atoms: N_1  and  C_2
REMARK    2  A    between atoms: C_2  and  C_3
REMARK    3  A    between atoms: C_6  and  C_7
REMARK    4  A    between atoms: C_7  and  N_8
REMARK    5  A    between atoms: C_13  and  C_14
REMARK                            x       y       z     vdW  Elec       q    Type
REMARK                         _______ _______ _______ _____ _____    ______ ____
ROOT
ATOM      1  N   UNL     1      46.198   8.255  12.514  0.00  0.00    +0.000 N 
ATOM      2  N   UNL     1      45.398   9.079  11.802  0.00  0.00    +0.000 NA
ATOM      3  N   UNL     1      44.415   8.344  11.288  0.00  0.00    +0.000 NA
ATOM      4  C   UNL     1      44.623   7.044  11.659  0.00  0.00    +0.000 A 
ATOM      5  C   UNL     1      43.942   5.862  11.344  0.00  0.00    +0.000 A 
ATOM      6  C   UNL     1      44.463   4.672  11.868  0.00  0.00    +0.000 A 
ATOM      7  C   UNL     1      45.595   4.737  12.693  0.00  0.00    +0.000 A 
ATOM      8  N   UNL     1      46.285   5.863  13.029  0.00  0.00    +0.000 NA
ATOM      9  C   UNL     1      45.748   6.965  12.467  0.00  0.00    +0.000 A 
ENDROOT
BRANCH   6  10
ATOM     10  C   UNL     1      43.903   3.332  11.573  0.00  0.00    +0.000 C 
ATOM     11  N   UNL     1      43.788   2.427  12.590  0.00  0.00    +0.000 N 
ATOM     12  O   UNL     1      43.531   3.037  10.443  0.00  0.00    +0.000 OA
ATOM     13  H   UNL     1      44.037   2.586  13.553  0.00  0.00    +0.000 HD
ATOM     14  H   UNL     1      43.368   1.535  12.357  0.00  0.00    +0.000 HD
ENDBRANCH   6  10
BRANCH   1  15
ATOM     15  C   UNL     1      47.447   8.734  13.058  0.00  0.00    +0.000 C 
BRANCH  15  19
ATOM     16  C   UNL     1      51.576   8.875  11.588  0.00  0.00    +0.000 C 
ATOM     17  C   UNL     1      50.686   7.717  11.120  0.00  0.00    +0.000 C 
ATOM     18  C   UNL     1      49.433   7.557  11.973  0.00  0.00    +0.000 C 
ATOM     19  C   UNL     1      48.600   8.849  12.044  0.00  0.00    +0.000 C 
ATOM     20  C   UNL     1      49.472  10.064  12.419  0.00  0.00    +0.000 C 
ATOM     21  C   UNL     1      50.749  10.171  11.585  0.00  0.00    +0.000 C 
BRANCH  16  22
ATOM     22  C   UNL     1      52.240   8.646  12.964  0.00  0.00    +0.000 C 
BRANCH  22  23
ATOM     23  N   UNL     1      53.458   7.845  12.900  0.00  0.00    +0.000 NA
ATOM     24  H   UNL     1      53.714   7.531  13.836  0.00  0.00    +0.000 HD
ATOM     25  H   UNL     1      53.294   7.001  12.354  0.00  0.00    +0.000 HD
ENDBRANCH  22  23
ENDBRANCH  16  22
ENDBRANCH  15  19
ENDBRANCH   1  15
TORSDOF 5
ENDMDL
MODEL 9
REMARK VINA RESULT:    -5.500      4.099      6.806
REMARK INTER + INTRA:          -7.151
REMARK INTER:                  -6.829
REMARK INTRA:                  -0.322
REMARK UNBOUND:                -0.204
REMARK  Name = 
REMARK  5 active torsions:
REMARK  status: ('A' for Active; 'I' for Inactive)
REMARK    1  A    between atoms: N_1  and  C_2
REMARK    2  A    between atoms: C_2  and  C_3
REMARK    3  A    between atoms: C_6  and  C_7
REMARK    4  A    between atoms: C_7  and  N_8
REMARK    5  A    between atoms: C_13  and  C_14
REMARK                            x       y       z     vdW  Elec       q    Type
REMARK                         _______ _______ _______ _____ _____    ______ ____
ROOT
ATOM      1  N   UNL     1      48.650   7.448  14.230  0.00  0.00    +0.000 N 
ATOM      2  N   UNL     1      48.231   8.613  13.689  0.00  0.00    +0.000 NA
ATOM      3  N   UNL     1      47.051   8.392  13.115  0.00  0.00    +0.000 NA
ATOM      4  C   UNL     1      46.747   7.068  13.275  0.00  0.00    +0.000 A 
ATOM      5  C   UNL     1      45.676   6.293  12.815  0.00  0.00    +0.000 A 
ATOM      6  C   UNL     1      45.700   4.928  13.127  0.00  0.00    +0.000 A 
ATOM      7  C   UNL     1      46.761   4.433  13.901  0.00  0.00    +0.000 A 
ATOM      8  N   UNL     1      47.820   5.150  14.372  0.00  0.00    +0.000 NA
ATOM      9  C   UNL     1      47.747   6.446  14.009  0.00  0.00    +0.000 A 
ENDROOT
BRANCH   6  10
ATOM     10  C   UNL     1      44.681   3.961  12.658  0.00  0.00    +0.000 C 
ATOM     11  N   UNL     1      45.081   2.896  11.902  0.00  0.00    +0.000 N 
ATOM     12  O   UNL     1      43.499   4.095  12.953  0.00  0.00    +0.000 OA
ATOM     13  H   UNL     1      46.029   2.684  11.634  0.00  0.00    +0.000 HD
ATOM     14  H   UNL     1      44.361   2.237  11.630  0.00  0.00    +0.000 HD
ENDBRANCH   6  10
BRANCH   1  15
ATOM     15  C   UNL     1      49.978   7.331  14.784  0.00  0.00    +0.000 C 
BRANCH  15  19
ATOM     16  C   UNL     1      48.880   5.983  18.810  0.00  0.00    +0.000 C 
ATOM     17  C   UNL     1      50.270   5.607  18.281  0.00  0.00    +0.000 C 
ATOM     18  C   UNL     1      50.392   5.787  16.772  0.00  0.00    +0.000 C 
ATOM     19  C   UNL     1      50.038   7.215  16.319  0.00  0.00    +0.000 C 
ATOM     20  C   UNL     1      48.689   7.676  16.905  0.00  0.00    +0.000 C 
ATOM     21  C   UNL     1      48.572   7.436  18.411  0.00  0.00    +0.000 C 
BRANCH  16  22
ATOM     22  C   UNL     1      47.752   5.032  18.355  0.00  0.00    +0.000 C 
BRANCH  22  23
ATOM     23  N   UNL     1      46.420   5.462  18.768  0.00  0.00    +0.000 NA
ATOM     24  H   UNL     1      46.392   6.479  18.837  0.00  0.00    +0.000 HD
ATOM     25  H   UNL     1      45.734   5.207  18.059  0.00  0.00    +0.000 HD
ENDBRANCH  22  23
ENDBRANCH  16  22
ENDBRANCH  15  19
ENDBRANCH   1  15
TORSDOF 5
ENDMDL
