MODEL 1
REMARK VINA RESULT:    -8.462      0.000      0.000
REMARK INTER + INTRA:         -11.164
REMARK INTER:                 -10.440
REMARK INTRA:                  -0.724
REMARK UNBOUND:                -0.724
REMARK  Name = 
REMARK  4 active torsions:
REMARK  status: ('A' for Active; 'I' for Inactive)
REMARK    1  A    between atoms: C_2  and  C_4
REMARK    2  A    between atoms: C_7  and  C_8
REMARK    3  A    between atoms: C_8  and  C_9
REMARK    4  A    between atoms: C_9  and  C_10
REMARK                            x       y       z     vdW  Elec       q    Type
REMARK                         _______ _______ _______ _____ _____    ______ ____
ROOT
ATOM      1  C   UNL     1      46.469   2.455   7.746  0.00  0.00    +0.000 A 
ATOM      2  C   UNL     1      45.671   1.796   8.678  0.00  0.00    +0.000 A 
ATOM      3  C   UNL     1      44.804   2.537   9.483  0.00  0.00    +0.000 A 
ATOM      4  C   UNL     1      44.780   3.926   9.373  0.00  0.00    +0.000 A 
ATOM      5  N   UNL     1      45.565   4.579   8.477  0.00  0.00    +0.000 NA
ATOM      6  C   UNL     1      46.393   3.838   7.695  0.00  0.00    +0.000 A 
ENDROOT
BRANCH   1   8
ATOM      7  N   UNL     1      48.468   2.434   6.368  0.00  0.00    +0.000 N 
ATOM      8  C   UNL     1      47.375   1.746   6.817  0.00  0.00    +0.000 C 
ATOM      9  O   UNL     1      47.183   0.581   6.498  0.00  0.00    +0.000 OA
ATOM     10  H   UNL     1      49.139   1.902   5.825  0.00  0.00    +0.000 HD
ATOM     11  H   UNL     1      48.797   3.282   6.807  0.00  0.00    +0.000 HD
ENDBRANCH   1   8
BRANCH   4  12
ATOM     12  C   UNL     1      43.801   4.788  10.146  0.00  0.00    +0.000 C 
BRANCH  12  13
ATOM     13  C   UNL     1      44.030   4.854  11.656  0.00  0.00    +0.000 C 
ATOM     14  C   UNL     1      43.336   3.814  12.527  0.00  0.00    +0.000 C 
ATOM     15  C   UNL     1      42.819   5.216  12.517  0.00  0.00    +0.000 C 
BRANCH  13  16
ATOM     16  C   UNL     1      45.358   5.455  12.117  0.00  0.00    +0.000 A 
ATOM     17  C   UNL     1      46.093   4.871  13.166  0.00  0.00    +0.000 A 
ATOM     18  C   UNL     1      47.329   5.388  13.569  0.00  0.00    +0.000 A 
ATOM     19  C   UNL     1      47.845   6.512  12.937  0.00  0.00    +0.000 A 
ATOM     20 CL   UNL     1      49.370   7.145  13.417  0.00  0.00    +0.000 Cl
ATOM     21  C   UNL     1      47.137   7.122  11.907  0.00  0.00    +0.000 A 
ATOM     22  C   UNL     1      45.910   6.592  11.501  0.00  0.00    +0.000 A 
ENDBRANCH  13  16
ENDBRANCH  12  13
ENDBRANCH   4  12
TORSDOF 4
ENDMDL
MODEL 2
REMARK VINA RESULT:    -6.798      4.190      6.517
REMARK INTER + INTRA:          -9.112
REMARK INTER:                  -8.772
REMARK INTRA:                  -0.341
REMARK UNBOUND:                -0.724
REMARK  Name = 
REMARK  4 active torsions:
REMARK  status: ('A' for Active; 'I' for Inactive)
REMARK    1  A    between atoms: C_2  and  C_4
REMARK    2  A    between atoms: C_7  and  C_8
REMARK    3  A    between atoms: C_8  and  C_9
REMARK    4  A    between atoms: C_9  and  C_10
REMARK                            x       y       z     vdW  Elec       q    Type
REMARK                         _______ _______ _______ _____ _____    ______ ____
ROOT
ATOM      1  C   UNL     1      47.947   5.866  14.776  0.00  0.00    +0.000 A 
ATOM      2  C   UNL     1      47.658   6.257  13.471  0.00  0.00    +0.000 A 
ATOM      3  C   UNL     1      46.725   5.531  12.729  0.00  0.00    +0.000 A 
ATOM      4  C   UNL     1      46.128   4.403  13.289  0.00  0.00    +0.000 A 
ATOM      5  N   UNL     1      46.413   4.006  14.556  0.00  0.00    +0.000 NA
ATOM      6  C   UNL     1      47.315   4.733  15.265  0.00  0.00    +0.000 A 
ENDROOT
BRANCH   1   8
ATOM      7  N   UNL     1      48.369   7.664  16.352  0.00  0.00    +0.000 N 
ATOM      8  C   UNL     1      48.880   6.608  15.651  0.00  0.00    +0.000 C 
ATOM      9  O   UNL     1      50.047   6.266  15.779  0.00  0.00    +0.000 OA
ATOM     10  H   UNL     1      48.988   8.091  17.032  0.00  0.00    +0.000 HD
ATOM     11  H   UNL     1      47.377   7.808  16.476  0.00  0.00    +0.000 HD
ENDBRANCH   1   8
BRANCH   4  12
ATOM     12  C   UNL     1      45.040   3.621  12.579  0.00  0.00    +0.000 C 
BRANCH  12  13
ATOM     13  C   UNL     1      44.466   4.279  11.324  0.00  0.00    +0.000 C 
ATOM     14  C   UNL     1      43.864   5.673  11.463  0.00  0.00    +0.000 C 
ATOM     15  C   UNL     1      42.953   4.500  11.297  0.00  0.00    +0.000 C 
BRANCH  13  16
ATOM     16  C   UNL     1      45.084   3.856   9.991  0.00  0.00    +0.000 A 
ATOM     17  C   UNL     1      45.137   2.500   9.615  0.00  0.00    +0.000 A 
ATOM     18  C   UNL     1      45.663   2.104   8.381  0.00  0.00    +0.000 A 
ATOM     19  C   UNL     1      46.160   3.060   7.504  0.00  0.00    +0.000 A 
ATOM     20 CL   UNL     1      46.794   2.583   5.979  0.00  0.00    +0.000 Cl
ATOM     21  C   UNL     1      46.136   4.407   7.851  0.00  0.00    +0.000 A 
ATOM     22  C   UNL     1      45.597   4.796   9.080  0.00  0.00    +0.000 A 
ENDBRANCH  13  16
ENDBRANCH  12  13
ENDBRANCH   4  12
TORSDOF 4
ENDMDL
MODEL 3
REMARK VINA RESULT:    -6.409      4.138      6.466
REMARK INTER + INTRA:          -8.632
REMARK INTER:                  -8.185
REMARK INTRA:                  -0.447
REMARK UNBOUND:                -0.724
REMARK  Name = 
REMARK  4 active torsions:
REMARK  status: ('A' for Active; 'I' for Inactive)
REMARK    1  A    between atoms: C_2  and  C_4
REMARK    2  A    between atoms: C_7  and  C_8
REMARK    3  A    between atoms: C_8  and  C_9
REMARK    4  A    between atoms: C_9  and  C_10
REMARK                            x       y       z     vdW  Elec       q    Type
REMARK                         _______ _______ _______ _____ _____    ______ ____
ROOT
ATOM      1  C   UNL     1      46.998   8.679  12.392  0.00  0.00    +0.000 A 
ATOM      2  C   UNL     1      47.770   7.628  11.904  0.00  0.00    +0.000 A 
ATOM      3  C   UNL     1      47.245   6.335  11.902  0.00  0.00    +0.000 A 
ATOM      4  C   UNL     1      45.974   6.107  12.429  0.00  0.00    +0.000 A 
ATOM      5  N   UNL     1      45.219   7.123  12.920  0.00  0.00    +0.000 NA
ATOM      6  C   UNL     1      45.745   8.376  12.901  0.00  0.00    +0.000 A 
ENDROOT
BRANCH   1   8
ATOM      7  N   UNL     1      46.639  10.998  11.769  0.00  0.00    +0.000 N 
ATOM      8  C   UNL     1      47.453  10.086  12.382  0.00  0.00    +0.000 C 
ATOM      9  O   UNL     1      48.488  10.429  12.934  0.00  0.00    +0.000 OA
ATOM     10  H   UNL     1      46.905  11.971  11.869  0.00  0.00    +0.000 HD
ATOM     11  H   UNL     1      45.673  10.803  11.544  0.00  0.00    +0.000 HD
ENDBRANCH   1   8
BRANCH   4  12
ATOM     12  C   UNL     1      45.303   4.748  12.378  0.00  0.00    +0.000 C 
BRANCH  12  13
ATOM     13  C   UNL     1      44.366   4.520  11.192  0.00  0.00    +0.000 C 
ATOM     14  C   UNL     1      43.163   5.445  11.048  0.00  0.00    +0.000 C 
ATOM     15  C   UNL     1      42.950   4.043  11.520  0.00  0.00    +0.000 C 
BRANCH  13  16
ATOM     16  C   UNL     1      44.988   3.895   9.944  0.00  0.00    +0.000 A 
ATOM     17  C   UNL     1      45.555   4.699   8.936  0.00  0.00    +0.000 A 
ATOM     18  C   UNL     1      46.164   4.138   7.808  0.00  0.00    +0.000 A 
ATOM     19  C   UNL     1      46.204   2.757   7.662  0.00  0.00    +0.000 A 
ATOM     20 CL   UNL     1      46.964   2.059   6.287  0.00  0.00    +0.000 Cl
ATOM     21  C   UNL     1      45.641   1.935   8.632  0.00  0.00    +0.000 A 
ATOM     22  C   UNL     1      45.046   2.502   9.761  0.00  0.00    +0.000 A 
ENDBRANCH  13  16
ENDBRANCH  12  13
ENDBRANCH   4  12
TORSDOF 4
ENDMDL
MODEL 4
REMARK VINA RESULT:    -6.199      4.031      6.357
REMARK INTER + INTRA:          -8.372
REMARK INTER:                  -8.831
REMARK INTRA:                   0.459
REMARK UNBOUND:                -0.724
REMARK  Name = 
REMARK  4 active torsions:
REMARK  status: ('A' for Active; 'I' for Inactive)
REMARK    1  A    between atoms: C_2  and  C_4
REMARK    2  A    between atoms: C_7  and  C_8
REMARK    3  A    between atoms: C_8  and  C_9
REMARK    4  A    between atoms: C_9  and  C_10
REMARK                            x       y       z     vdW  Elec       q    Type
REMARK                         _______ _______ _______ _____ _____    ______ ____
ROOT
ATOM      1  C   UNL     1      46.749   7.910  12.986  0.00  0.00    +0.000 A 
ATOM      2  C   UNL     1      47.185   6.644  12.602  0.00  0.00    +0.000 A 
ATOM      3  C   UNL     1      46.318   5.804  11.901  0.00  0.00    +0.000 A 
ATOM      4  C   UNL     1      45.017   6.226  11.634  0.00  0.00    +0.000 A 
ATOM      5  N   UNL     1      44.577   7.453  12.016  0.00  0.00    +0.000 NA
ATOM      6  C   UNL     1      45.441   8.260  12.687  0.00  0.00    +0.000 A 
ENDROOT
BRANCH   1   8
ATOM      7  N   UNL     1      47.419   9.042  15.026  0.00  0.00    +0.000 N 
ATOM      8  C   UNL     1      47.616   8.885  13.683  0.00  0.00    +0.000 C 
ATOM      9  O   UNL     1      48.500   9.490  13.095  0.00  0.00    +0.000 OA
ATOM     10  H   UNL     1      48.093   9.625  15.511  0.00  0.00    +0.000 HD
ATOM     11  H   UNL     1      46.895   8.381  15.583  0.00  0.00    +0.000 HD
ENDBRANCH   1   8
BRANCH   4  12
ATOM     12  C   UNL     1      44.051   5.408  10.799  0.00  0.00    +0.000 C 
BRANCH  12  13
ATOM     13  C   UNL     1      44.377   3.919  10.684  0.00  0.00    +0.000 C 
ATOM     14  C   UNL     1      43.406   2.927  11.314  0.00  0.00    +0.000 C 
ATOM     15  C   UNL     1      44.716   3.189  11.985  0.00  0.00    +0.000 C 
BRANCH  13  16
ATOM     16  C   UNL     1      45.202   3.496   9.469  0.00  0.00    +0.000 A 
ATOM     17  C   UNL     1      45.426   2.135   9.184  0.00  0.00    +0.000 A 
ATOM     18  C   UNL     1      46.145   1.734   8.053  0.00  0.00    +0.000 A 
ATOM     19  C   UNL     1      46.665   2.691   7.191  0.00  0.00    +0.000 A 
ATOM     20 CL   UNL     1      47.537   2.206   5.791  0.00  0.00    +0.000 Cl
ATOM     21  C   UNL     1      46.473   4.044   7.451  0.00  0.00    +0.000 A 
ATOM     22  C   UNL     1      45.744   4.436   8.576  0.00  0.00    +0.000 A 
ENDBRANCH  13  16
ENDBRANCH  12  13
ENDBRANCH   4  12
TORSDOF 4
ENDMDL
