MODEL 1
REMARK VINA RESULT:    -8.081      0.000      0.000
REMARK INTER + INTRA:         -11.888
REMARK INTER:                 -10.915
REMARK INTRA:                  -0.973
REMARK UNBOUND:                -0.973
REMARK  Name = 
REMARK  7 active torsions:
REMARK  status: ('A' for Active; 'I' for Inactive)
REMARK    1  A    between atoms: C_1  and  C_2
REMARK    2  A    between atoms: C_2  and  N_3
REMARK    3  A    between atoms: C_2  and  C_16
REMARK    4  A    between atoms: C_4  and  C_6
REMARK    5  A    between atoms: C_19  and  C_20
REMARK    6  A    between atoms: C_20  and  N_21
REMARK    7  A    between atoms: C_22  and  C_24
REMARK                            x       y       z     vdW  Elec       q    Type
REMARK                         _______ _______ _______ _____ _____    ______ ____
ROOT
ATOM      1  C   UNL     1      47.753   8.799  13.154  0.00  0.00    +0.000 C 
ATOM      2  C   UNL     1      48.058   7.394  13.686  0.00  0.00    +0.000 C 
ENDROOT
BRANCH   2   3
ATOM      3  C   UNL     1      47.074   6.383  13.109  0.00  0.00    +0.000 A 
ATOM      4  C   UNL     1      46.244   6.723  12.032  0.00  0.00    +0.000 A 
ATOM      5  C   UNL     1      45.388   5.771  11.463  0.00  0.00    +0.000 A 
ATOM      6  C   UNL     1      45.335   4.463  11.963  0.00  0.00    +0.000 A 
ATOM      7  C   UNL     1      46.154   4.125  13.046  0.00  0.00    +0.000 A 
ATOM      8  C   UNL     1      47.007   5.074  13.616  0.00  0.00    +0.000 A 
BRANCH   6   9
ATOM      9  C   UNL     1      44.434   3.428  11.341  0.00  0.00    +0.000 C 
BRANCH   9  10
ATOM     10  N   UNL     1      45.015   2.838  10.162  0.00  0.00    +0.000 N 
ATOM     11  C   UNL     1      44.820   3.391   8.916  0.00  0.00    +0.000 C 
ATOM     12  O   UNL     1      44.053   4.328   8.706  0.00  0.00    +0.000 OA
ATOM     13  H   UNL     1      45.780   2.171  10.235  0.00  0.00    +0.000 HD
BRANCH  11  14
ATOM     14  C   UNL     1      45.589   2.697   7.783  0.00  0.00    +0.000 C 
ATOM     15  C   UNL     1      46.185   1.373   8.219  0.00  0.00    +0.000 C 
ATOM     16  C   UNL     1      47.285   1.145   7.199  0.00  0.00    +0.000 C 
ATOM     17  C   UNL     1      47.735   2.541   6.795  0.00  0.00    +0.000 C 
ATOM     18  N   UNL     1      46.784   3.487   7.385  0.00  0.00    +0.000 NA
ATOM     19  H   UNL     1      46.507   4.189   6.698  0.00  0.00    +0.000 HD
ENDBRANCH  11  14
ENDBRANCH   9  10
ENDBRANCH   6   9
ENDBRANCH   2   3
BRANCH   2  20
ATOM     20  N   UNL     1      48.008   7.318  15.141  0.00  0.00    +0.000 N 
ATOM     21  C   UNL     1      49.075   6.942  15.916  0.00  0.00    +0.000 C 
ATOM     22  O   UNL     1      50.178   6.679  15.449  0.00  0.00    +0.000 OA
ATOM     23  H   UNL     1      47.079   7.213  15.539  0.00  0.00    +0.000 HD
BRANCH  21  24
ATOM     24  C   UNL     1      48.850   6.942  17.366  0.00  0.00    +0.000 A 
ATOM     25  C   UNL     1      48.613   8.141  18.024  0.00  0.00    +0.000 A 
ATOM     26  S   UNL     1      48.365   7.962  19.702  0.00  0.00    +0.000 S 
ATOM     27  C   UNL     1      48.609   6.280  19.614  0.00  0.00    +0.000 A 
ATOM     28  N   UNL     1      48.577   5.509  20.733  0.00  0.00    +0.000 NA
ATOM     29  C   UNL     1      48.810   4.255  20.522  0.00  0.00    +0.000 A 
ATOM     30  N   UNL     1      49.060   3.703  19.292  0.00  0.00    +0.000 N 
ATOM     31  C   UNL     1      49.061   4.437  18.132  0.00  0.00    +0.000 A 
ATOM     32  O   UNL     1      49.216   3.902  17.038  0.00  0.00    +0.000 OA
ATOM     33  C   UNL     1      48.840   5.858  18.317  0.00  0.00    +0.000 A 
ATOM     34  H   UNL     1      49.213   2.711  19.193  0.00  0.00    +0.000 HD
ENDBRANCH  21  24
ENDBRANCH   2  20
TORSDOF 6
ENDMDL
MODEL 2
REMARK VINA RESULT:    -7.948      1.517      2.255
REMARK INTER + INTRA:         -11.709
REMARK INTER:                 -10.524
REMARK INTRA:                  -1.185
REMARK UNBOUND:                -0.973
REMARK  Name = 
REMARK  7 active torsions:
REMARK  status: ('A' for Active; 'I' for Inactive)
REMARK    1  A    between atoms: C_1  and  C_2
REMARK    2  A    between atoms: C_2  and  N_3
REMARK    3  A    between atoms: C_2  and  C_16
REMARK    4  A    between atoms: C_4  and  C_6
REMARK    5  A    between atoms: C_19  and  C_20
REMARK    6  A    between atoms: C_20  and  N_21
REMARK    7  A    between atoms: C_22  and  C_24
REMARK                            x       y       z     vdW  Elec       q    Type
REMARK                         _______ _______ _______ _____ _____    ______ ____
ROOT
ATOM      1  C   UNL     1      48.487   8.186  13.518  0.00  0.00    +0.000 C 
ATOM      2  C   UNL     1      48.459   6.778  14.124  0.00  0.00    +0.000 C 
ENDROOT
BRANCH   2   3
ATOM      3  C   UNL     1      47.382   5.933  13.453  0.00  0.00    +0.000 A 
ATOM      4  C   UNL     1      46.714   6.396  12.312  0.00  0.00    +0.000 A 
ATOM      5  C   UNL     1      45.772   5.589  11.661  0.00  0.00    +0.000 A 
ATOM      6  C   UNL     1      45.471   4.306  12.141  0.00  0.00    +0.000 A 
ATOM      7  C   UNL     1      46.129   3.847  13.287  0.00  0.00    +0.000 A 
ATOM      8  C   UNL     1      47.067   4.652  13.938  0.00  0.00    +0.000 A 
BRANCH   6   9
ATOM      9  C   UNL     1      44.476   3.425  11.432  0.00  0.00    +0.000 C 
BRANCH   9  10
ATOM     10  N   UNL     1      45.025   2.837  10.236  0.00  0.00    +0.000 N 
ATOM     11  C   UNL     1      44.835   3.419   9.002  0.00  0.00    +0.000 C 
ATOM     12  O   UNL     1      44.098   4.385   8.817  0.00  0.00    +0.000 OA
ATOM     13  H   UNL     1      45.768   2.144  10.288  0.00  0.00    +0.000 HD
BRANCH  11  14
ATOM     14  C   UNL     1      45.568   2.720   7.848  0.00  0.00    +0.000 C 
ATOM     15  C   UNL     1      46.155   1.386   8.263  0.00  0.00    +0.000 C 
ATOM     16  C   UNL     1      47.228   1.147   7.218  0.00  0.00    +0.000 C 
ATOM     17  C   UNL     1      47.689   2.539   6.812  0.00  0.00    +0.000 C 
ATOM     18  N   UNL     1      46.766   3.495   7.428  0.00  0.00    +0.000 NA
ATOM     19  H   UNL     1      46.484   4.205   6.751  0.00  0.00    +0.000 HD
ENDBRANCH  11  14
ENDBRANCH   9  10
ENDBRANCH   6   9
ENDBRANCH   2   3
BRANCH   2  20
ATOM     20  N   UNL     1      48.218   6.788  15.562  0.00  0.00    +0.000 N 
ATOM     21  C   UNL     1      49.129   6.343  16.485  0.00  0.00    +0.000 C 
ATOM     22  O   UNL     1      50.245   5.938  16.177  0.00  0.00    +0.000 OA
ATOM     23  H   UNL     1      47.241   6.805  15.839  0.00  0.00    +0.000 HD
BRANCH  21  24
ATOM     24  C   UNL     1      48.726   6.446  17.892  0.00  0.00    +0.000 A 
ATOM     25  C   UNL     1      48.827   5.336  18.718  0.00  0.00    +0.000 A 
ATOM     26  S   UNL     1      48.325   5.630  20.321  0.00  0.00    +0.000 S 
ATOM     27  C   UNL     1      47.913   7.240  19.955  0.00  0.00    +0.000 A 
ATOM     28  N   UNL     1      47.370   8.055  20.898  0.00  0.00    +0.000 NA
ATOM     29  C   UNL     1      47.077   9.239  20.472  0.00  0.00    +0.000 A 
ATOM     30  N   UNL     1      47.290   9.685  19.194  0.00  0.00    +0.000 N 
ATOM     31  C   UNL     1      47.874   8.911  18.222  0.00  0.00    +0.000 A 
ATOM     32  O   UNL     1      48.118   9.362  17.107  0.00  0.00    +0.000 OA
ATOM     33  C   UNL     1      48.190   7.558  18.638  0.00  0.00    +0.000 A 
ATOM     34  H   UNL     1      47.058  10.631  18.931  0.00  0.00    +0.000 HD
ENDBRANCH  21  24
ENDBRANCH   2  20
TORSDOF 6
ENDMDL
MODEL 3
REMARK VINA RESULT:    -7.913      2.586      4.108
REMARK INTER + INTRA:         -11.662
REMARK INTER:                 -10.548
REMARK INTRA:                  -1.114
REMARK UNBOUND:                -0.973
REMARK  Name = 
REMARK  7 active torsions:
REMARK  status: ('A' for Active; 'I' for Inactive)
REMARK    1  A    between atoms: C_1  and  C_2
REMARK    2  A    between atoms: C_2  and  N_3
REMARK    3  A    between atoms: C_2  and  C_16
REMARK    4  A    between atoms: C_4  and  C_6
REMARK    5  A    between atoms: C_19  and  C_20
REMARK    6  A    between atoms: C_20  and  N_21
REMARK    7  A    between atoms: C_22  and  C_24
REMARK                            x       y       z     vdW  Elec       q    Type
REMARK                         _______ _______ _______ _____ _____    ______ ____
ROOT
ATOM      1  C   UNL     1      47.531   3.381  15.094  0.00  0.00    +0.000 C 
ATOM      2  C   UNL     1      46.903   4.762  14.868  0.00  0.00    +0.000 C 
ENDROOT
BRANCH   2   3
ATOM      3  C   UNL     1      46.027   4.748  13.621  0.00  0.00    +0.000 A 
ATOM      4  C   UNL     1      45.611   5.944  13.022  0.00  0.00    +0.000 A 
ATOM      5  C   UNL     1      44.861   5.927  11.839  0.00  0.00    +0.000 A 
ATOM      6  C   UNL     1      44.502   4.714  11.234  0.00  0.00    +0.000 A 
ATOM      7  C   UNL     1      44.906   3.518  11.837  0.00  0.00    +0.000 A 
ATOM      8  C   UNL     1      45.653   3.534  13.018  0.00  0.00    +0.000 A 
BRANCH   6   9
ATOM      9  C   UNL     1      43.715   4.688   9.949  0.00  0.00    +0.000 C 
BRANCH   9  10
ATOM     10  N   UNL     1      44.287   3.790   8.978  0.00  0.00    +0.000 N 
ATOM     11  C   UNL     1      45.448   4.106   8.309  0.00  0.00    +0.000 C 
ATOM     12  O   UNL     1      45.998   5.202   8.392  0.00  0.00    +0.000 OA
ATOM     13  H   UNL     1      44.012   2.811   8.948  0.00  0.00    +0.000 HD
BRANCH  11  14
ATOM     14  C   UNL     1      45.973   2.999   7.384  0.00  0.00    +0.000 C 
ATOM     15  C   UNL     1      46.228   1.702   8.127  0.00  0.00    +0.000 C 
ATOM     16  C   UNL     1      47.196   0.973   7.215  0.00  0.00    +0.000 C 
ATOM     17  C   UNL     1      47.972   2.077   6.512  0.00  0.00    +0.000 C 
ATOM     18  N   UNL     1      47.316   3.344   6.845  0.00  0.00    +0.000 NA
ATOM     19  H   UNL     1      47.202   3.918   6.009  0.00  0.00    +0.000 HD
ENDBRANCH  11  14
ENDBRANCH   9  10
ENDBRANCH   6   9
ENDBRANCH   2   3
BRANCH   2  20
ATOM     20  N   UNL     1      47.898   5.817  14.729  0.00  0.00    +0.000 N 
ATOM     21  C   UNL     1      48.636   6.305  15.777  0.00  0.00    +0.000 C 
ATOM     22  O   UNL     1      48.549   5.859  16.917  0.00  0.00    +0.000 OA
ATOM     23  H   UNL     1      47.786   6.417  13.917  0.00  0.00    +0.000 HD
BRANCH  21  24
ATOM     24  C   UNL     1      49.608   7.354  15.450  0.00  0.00    +0.000 A 
ATOM     25  C   UNL     1      50.942   7.187  15.795  0.00  0.00    +0.000 A 
ATOM     26  S   UNL     1      51.935   8.494  15.335  0.00  0.00    +0.000 S 
ATOM     27  C   UNL     1      50.609   9.349  14.697  0.00  0.00    +0.000 A 
ATOM     28  N   UNL     1      50.765  10.594  14.174  0.00  0.00    +0.000 NA
ATOM     29  C   UNL     1      49.670  11.137  13.757  0.00  0.00    +0.000 A 
ATOM     30  N   UNL     1      48.435  10.542  13.805  0.00  0.00    +0.000 N 
ATOM     31  C   UNL     1      48.238   9.272  14.286  0.00  0.00    +0.000 A 
ATOM     32  O   UNL     1      47.133   8.740  14.250  0.00  0.00    +0.000 OA
ATOM     33  C   UNL     1      49.432   8.630  14.801  0.00  0.00    +0.000 A 
ATOM     34  H   UNL     1      47.621  11.014  13.441  0.00  0.00    +0.000 HD
ENDBRANCH  21  24
ENDBRANCH   2  20
TORSDOF 6
ENDMDL
MODEL 4
REMARK VINA RESULT:    -7.563      2.614      3.462
REMARK INTER + INTRA:         -11.189
REMARK INTER:                 -10.359
REMARK INTRA:                  -0.830
REMARK UNBOUND:                -0.973
REMARK  Name = 
REMARK  7 active torsions:
REMARK  status: ('A' for Active; 'I' for Inactive)
REMARK    1  A    between atoms: C_1  and  C_2
REMARK    2  A    between atoms: C_2  and  N_3
REMARK    3  A    between atoms: C_2  and  C_16
REMARK    4  A    between atoms: C_4  and  C_6
REMARK    5  A    between atoms: C_19  and  C_20
REMARK    6  A    between atoms: C_20  and  N_21
REMARK    7  A    between atoms: C_22  and  C_24
REMARK                            x       y       z     vdW  Elec       q    Type
REMARK                         _______ _______ _______ _____ _____    ______ ____
ROOT
ATOM      1  C   UNL     1      47.524   3.399  15.092  0.00  0.00    +0.000 C 
ATOM      2  C   UNL     1      46.871   4.768  14.869  0.00  0.00    +0.000 C 
ENDROOT
BRANCH   2   3
ATOM      3  C   UNL     1      45.996   4.742  13.621  0.00  0.00    +0.000 A 
ATOM      4  C   UNL     1      45.570   5.933  13.017  0.00  0.00    +0.000 A 
ATOM      5  C   UNL     1      44.822   5.905  11.834  0.00  0.00    +0.000 A 
ATOM      6  C   UNL     1      44.475   4.687  11.232  0.00  0.00    +0.000 A 
ATOM      7  C   UNL     1      44.889   3.497  11.840  0.00  0.00    +0.000 A 
ATOM      8  C   UNL     1      45.634   3.524  13.022  0.00  0.00    +0.000 A 
BRANCH   6   9
ATOM      9  C   UNL     1      43.690   4.650   9.947  0.00  0.00    +0.000 C 
BRANCH   9  10
ATOM     10  N   UNL     1      44.288   3.777   8.969  0.00  0.00    +0.000 N 
ATOM     11  C   UNL     1      45.451   4.124   8.317  0.00  0.00    +0.000 C 
ATOM     12  O   UNL     1      45.981   5.228   8.424  0.00  0.00    +0.000 OA
ATOM     13  H   UNL     1      44.030   2.794   8.920  0.00  0.00    +0.000 HD
BRANCH  11  14
ATOM     14  C   UNL     1      46.005   3.041   7.382  0.00  0.00    +0.000 C 
ATOM     15  C   UNL     1      46.243   1.727   8.100  0.00  0.00    +0.000 C 
ATOM     16  C   UNL     1      47.239   1.023   7.198  0.00  0.00    +0.000 C 
ATOM     17  C   UNL     1      48.031   2.145   6.544  0.00  0.00    +0.000 C 
ATOM     18  N   UNL     1      47.361   3.402   6.889  0.00  0.00    +0.000 NA
ATOM     19  H   UNL     1      47.270   3.996   6.064  0.00  0.00    +0.000 HD
ENDBRANCH  11  14
ENDBRANCH   9  10
ENDBRANCH   6   9
ENDBRANCH   2   3
BRANCH   2  20
ATOM     20  N   UNL     1      47.846   5.843  14.735  0.00  0.00    +0.000 N 
ATOM     21  C   UNL     1      48.520   6.391  15.796  0.00  0.00    +0.000 C 
ATOM     22  O   UNL     1      48.387   5.990  16.948  0.00  0.00    +0.000 OA
ATOM     23  H   UNL     1      47.760   6.406  13.894  0.00  0.00    +0.000 HD
BRANCH  21  24
ATOM     24  C   UNL     1      49.481   7.451  15.473  0.00  0.00    +0.000 A 
ATOM     25  C   UNL     1      49.038   8.619  14.869  0.00  0.00    +0.000 A 
ATOM     26  S   UNL     1      50.280   9.748  14.570  0.00  0.00    +0.000 S 
ATOM     27  C   UNL     1      51.462   8.696  15.199  0.00  0.00    +0.000 A 
ATOM     28  N   UNL     1      52.776   9.041  15.200  0.00  0.00    +0.000 NA
ATOM     29  C   UNL     1      53.564   8.135  15.677  0.00  0.00    +0.000 A 
ATOM     30  N   UNL     1      53.154   6.921  16.164  0.00  0.00    +0.000 N 
ATOM     31  C   UNL     1      51.833   6.548  16.221  0.00  0.00    +0.000 A 
ATOM     32  O   UNL     1      51.492   5.485  16.728  0.00  0.00    +0.000 OA
ATOM     33  C   UNL     1      50.909   7.516  15.663  0.00  0.00    +0.000 A 
ATOM     34  H   UNL     1      53.820   6.265  16.543  0.00  0.00    +0.000 HD
ENDBRANCH  21  24
ENDBRANCH   2  20
TORSDOF 6
ENDMDL
MODEL 5
REMARK VINA RESULT:    -7.513      3.474      4.823
REMARK INTER + INTRA:         -11.121
REMARK INTER:                  -9.876
REMARK INTRA:                  -1.245
REMARK UNBOUND:                -0.973
REMARK  Name = 
REMARK  7 active torsions:
REMARK  status: ('A' for Active; 'I' for Inactive)
REMARK    1  A    between atoms: C_1  and  C_2
REMARK    2  A    between atoms: C_2  and  N_3
REMARK    3  A    between atoms: C_2  and  C_16
REMARK    4  A    between atoms: C_4  and  C_6
REMARK    5  A    between atoms: C_19  and  C_20
REMARK    6  A    between atoms: C_20  and  N_21
REMARK    7  A    between atoms: C_22  and  C_24
REMARK                            x       y       z     vdW  Elec       q    Type
REMARK                         _______ _______ _______ _____ _____    ______ ____
ROOT
ATOM      1  C   UNL     1      47.698   2.951  17.858  0.00  0.00    +0.000 C 
ATOM      2  C   UNL     1      48.544   4.188  17.533  0.00  0.00    +0.000 C 
ENDROOT
BRANCH   2   3
ATOM      3  C   UNL     1      48.080   4.819  16.225  0.00  0.00    +0.000 A 
ATOM      4  C   UNL     1      48.614   6.038  15.787  0.00  0.00    +0.000 A 
ATOM      5  C   UNL     1      48.233   6.582  14.554  0.00  0.00    +0.000 A 
ATOM      6  C   UNL     1      47.304   5.924  13.735  0.00  0.00    +0.000 A 
ATOM      7  C   UNL     1      46.760   4.712  14.176  0.00  0.00    +0.000 A 
ATOM      8  C   UNL     1      47.138   4.170  15.408  0.00  0.00    +0.000 A 
BRANCH   6   9
ATOM      9  C   UNL     1      46.907   6.491  12.397  0.00  0.00    +0.000 C 
BRANCH   9  10
ATOM     10  N   UNL     1      46.204   5.531  11.585  0.00  0.00    +0.000 N 
ATOM     11  C   UNL     1      44.965   5.814  11.054  0.00  0.00    +0.000 C 
ATOM     12  O   UNL     1      44.328   6.828  11.330  0.00  0.00    +0.000 OA
ATOM     13  H   UNL     1      46.693   4.742  11.169  0.00  0.00    +0.000 HD
BRANCH  11  14
ATOM     14  C   UNL     1      44.401   4.723  10.133  0.00  0.00    +0.000 C 
ATOM     15  C   UNL     1      44.840   3.334  10.553  0.00  0.00    +0.000 C 
ATOM     16  C   UNL     1      44.651   2.522   9.285  0.00  0.00    +0.000 C 
ATOM     17  C   UNL     1      44.872   3.514   8.153  0.00  0.00    +0.000 C 
ATOM     18  N   UNL     1      44.952   4.846   8.758  0.00  0.00    +0.000 NA
ATOM     19  H   UNL     1      44.387   5.512   8.230  0.00  0.00    +0.000 HD
ENDBRANCH  11  14
ENDBRANCH   9  10
ENDBRANCH   6   9
ENDBRANCH   2   3
BRANCH   2  20
ATOM     20  N   UNL     1      49.966   3.887  17.429  0.00  0.00    +0.000 N 
ATOM     21  C   UNL     1      50.871   4.154  18.423  0.00  0.00    +0.000 C 
ATOM     22  O   UNL     1      50.549   4.633  19.506  0.00  0.00    +0.000 OA
ATOM     23  H   UNL     1      50.323   3.796  16.482  0.00  0.00    +0.000 HD
BRANCH  21  24
ATOM     24  C   UNL     1      52.260   3.765  18.154  0.00  0.00    +0.000 A 
ATOM     25  C   UNL     1      53.269   4.713  18.248  0.00  0.00    +0.000 A 
ATOM     26  S   UNL     1      54.822   4.093  17.912  0.00  0.00    +0.000 S 
ATOM     27  C   UNL     1      54.193   2.545  17.587  0.00  0.00    +0.000 A 
ATOM     28  N   UNL     1      55.005   1.530  17.189  0.00  0.00    +0.000 NA
ATOM     29  C   UNL     1      54.389   0.420  16.946  0.00  0.00    +0.000 A 
ATOM     30  N   UNL     1      53.038   0.232  17.077  0.00  0.00    +0.000 N 
ATOM     31  C   UNL     1      52.187   1.217  17.515  0.00  0.00    +0.000 A 
ATOM     32  O   UNL     1      50.993   0.997  17.691  0.00  0.00    +0.000 OA
ATOM     33  C   UNL     1      52.823   2.495  17.768  0.00  0.00    +0.000 A 
ATOM     34  H   UNL     1      52.621  -0.668  16.891  0.00  0.00    +0.000 HD
ENDBRANCH  21  24
ENDBRANCH   2  20
TORSDOF 6
ENDMDL
MODEL 6
REMARK VINA RESULT:    -7.280      2.135      2.824
REMARK INTER + INTRA:         -10.807
REMARK INTER:                  -9.560
REMARK INTRA:                  -1.247
REMARK UNBOUND:                -0.973
REMARK  Name = 
REMARK  7 active torsions:
REMARK  status: ('A' for Active; 'I' for Inactive)
REMARK    1  A    between atoms: C_1  and  C_2
REMARK    2  A    between atoms: C_2  and  N_3
REMARK    3  A    between atoms: C_2  and  C_16
REMARK    4  A    between atoms: C_4  and  C_6
REMARK    5  A    between atoms: C_19  and  C_20
REMARK    6  A    between atoms: C_20  and  N_21
REMARK    7  A    between atoms: C_22  and  C_24
REMARK                            x       y       z     vdW  Elec       q    Type
REMARK                         _______ _______ _______ _____ _____    ______ ____
ROOT
ATOM      1  C   UNL     1      47.898   3.019  15.692  0.00  0.00    +0.000 C 
ATOM      2  C   UNL     1      47.215   4.386  15.816  0.00  0.00    +0.000 C 
ENDROOT
BRANCH   2   3
ATOM      3  C   UNL     1      46.767   4.882  14.446  0.00  0.00    +0.000 A 
ATOM      4  C   UNL     1      47.507   5.853  13.756  0.00  0.00    +0.000 A 
ATOM      5  C   UNL     1      47.128   6.257  12.470  0.00  0.00    +0.000 A 
ATOM      6  C   UNL     1      45.998   5.708  11.848  0.00  0.00    +0.000 A 
ATOM      7  C   UNL     1      45.251   4.748  12.540  0.00  0.00    +0.000 A 
ATOM      8  C   UNL     1      45.627   4.345  13.824  0.00  0.00    +0.000 A 
BRANCH   6   9
ATOM      9  C   UNL     1      45.598   6.122  10.456  0.00  0.00    +0.000 C 
BRANCH   9  10
ATOM     10  N   UNL     1      45.972   5.141   9.468  0.00  0.00    +0.000 N 
ATOM     11  C   UNL     1      45.033   4.313   8.893  0.00  0.00    +0.000 C 
ATOM     12  O   UNL     1      43.862   4.261   9.262  0.00  0.00    +0.000 OA
ATOM     13  H   UNL     1      46.863   5.204   8.982  0.00  0.00    +0.000 HD
BRANCH  11  14
ATOM     14  C   UNL     1      45.582   3.397   7.790  0.00  0.00    +0.000 C 
ATOM     15  C   UNL     1      46.064   2.067   8.334  0.00  0.00    +0.000 C 
ATOM     16  C   UNL     1      47.007   1.579   7.251  0.00  0.00    +0.000 C 
ATOM     17  C   UNL     1      47.570   2.847   6.627  0.00  0.00    +0.000 C 
ATOM     18  N   UNL     1      46.809   3.972   7.179  0.00  0.00    +0.000 NA
ATOM     19  H   UNL     1      46.541   4.619   6.437  0.00  0.00    +0.000 HD
ENDBRANCH  11  14
ENDBRANCH   9  10
ENDBRANCH   6   9
ENDBRANCH   2   3
BRANCH   2  20
ATOM     20  N   UNL     1      48.077   5.394  16.420  0.00  0.00    +0.000 N 
ATOM     21  C   UNL     1      48.066   5.698  17.757  0.00  0.00    +0.000 C 
ATOM     22  O   UNL     1      47.355   5.112  18.567  0.00  0.00    +0.000 OA
ATOM     23  H   UNL     1      48.433   6.101  15.782  0.00  0.00    +0.000 HD
BRANCH  21  24
ATOM     24  C   UNL     1      49.017   6.726  18.194  0.00  0.00    +0.000 A 
ATOM     25  C   UNL     1      48.551   7.863  18.838  0.00  0.00    +0.000 A 
ATOM     26  S   UNL     1      49.787   8.950  19.284  0.00  0.00    +0.000 S 
ATOM     27  C   UNL     1      50.985   7.958  18.593  0.00  0.00    +0.000 A 
ATOM     28  N   UNL     1      52.291   8.335  18.592  0.00  0.00    +0.000 NA
ATOM     29  C   UNL     1      53.085   7.501  18.005  0.00  0.00    +0.000 A 
ATOM     30  N   UNL     1      52.692   6.320  17.432  0.00  0.00    +0.000 N 
ATOM     31  C   UNL     1      51.391   5.880  17.447  0.00  0.00    +0.000 A 
ATOM     32  O   UNL     1      51.082   4.784  16.989  0.00  0.00    +0.000 OA
ATOM     33  C   UNL     1      50.452   6.797  18.062  0.00  0.00    +0.000 A 
ATOM     34  H   UNL     1      53.367   5.702  17.008  0.00  0.00    +0.000 HD
ENDBRANCH  21  24
ENDBRANCH   2  20
TORSDOF 6
ENDMDL
MODEL 7
REMARK VINA RESULT:    -7.251      3.629      8.801
REMARK INTER + INTRA:         -10.767
REMARK INTER:                  -9.702
REMARK INTRA:                  -1.065
REMARK UNBOUND:                -0.973
REMARK  Name = 
REMARK  7 active torsions:
REMARK  status: ('A' for Active; 'I' for Inactive)
REMARK    1  A    between atoms: C_1  and  C_2
REMARK    2  A    between atoms: C_2  and  N_3
REMARK    3  A    between atoms: C_2  and  C_16
REMARK    4  A    between atoms: C_4  and  C_6
REMARK    5  A    between atoms: C_19  and  C_20
REMARK    6  A    between atoms: C_20  and  N_21
REMARK    7  A    between atoms: C_22  and  C_24
REMARK                            x       y       z     vdW  Elec       q    Type
REMARK                         _______ _______ _______ _____ _____    ______ ____
ROOT
ATOM      1  C   UNL     1      49.099   7.649  13.084  0.00  0.00    +0.000 C 
ATOM      2  C   UNL     1      47.880   6.963  13.714  0.00  0.00    +0.000 C 
ENDROOT
BRANCH   2   3
ATOM      3  C   UNL     1      48.298   6.161  14.941  0.00  0.00    +0.000 A 
ATOM      4  C   UNL     1      49.366   6.582  15.745  0.00  0.00    +0.000 A 
ATOM      5  C   UNL     1      49.704   5.878  16.908  0.00  0.00    +0.000 A 
ATOM      6  C   UNL     1      48.989   4.734  17.288  0.00  0.00    +0.000 A 
ATOM      7  C   UNL     1      47.931   4.305  16.480  0.00  0.00    +0.000 A 
ATOM      8  C   UNL     1      47.594   5.005  15.318  0.00  0.00    +0.000 A 
BRANCH   6   9
ATOM      9  C   UNL     1      49.333   3.985  18.549  0.00  0.00    +0.000 C 
BRANCH   9  10
ATOM     10  N   UNL     1      50.686   3.488  18.536  0.00  0.00    +0.000 N 
ATOM     11  C   UNL     1      51.064   2.470  17.689  0.00  0.00    +0.000 C 
ATOM     12  O   UNL     1      50.271   1.840  16.994  0.00  0.00    +0.000 OA
ATOM     13  H   UNL     1      51.445   4.030  18.943  0.00  0.00    +0.000 HD
BRANCH  11  14
ATOM     14  C   UNL     1      52.561   2.129  17.731  0.00  0.00    +0.000 C 
ATOM     15  C   UNL     1      52.811   0.634  17.713  0.00  0.00    +0.000 C 
ATOM     16  C   UNL     1      54.211   0.518  18.284  0.00  0.00    +0.000 C 
ATOM     17  C   UNL     1      54.344   1.703  19.229  0.00  0.00    +0.000 C 
ATOM     18  N   UNL     1      53.170   2.554  19.019  0.00  0.00    +0.000 NA
ATOM     19  H   UNL     1      53.447   3.534  18.951  0.00  0.00    +0.000 HD
ENDBRANCH  11  14
ENDBRANCH   9  10
ENDBRANCH   6   9
ENDBRANCH   2   3
BRANCH   2  20
ATOM     20  N   UNL     1      47.192   6.074  12.786  0.00  0.00    +0.000 N 
ATOM     21  C   UNL     1      46.239   6.500  11.897  0.00  0.00    +0.000 C 
ATOM     22  O   UNL     1      45.915   7.677  11.780  0.00  0.00    +0.000 OA
ATOM     23  H   UNL     1      47.183   5.093  13.049  0.00  0.00    +0.000 HD
BRANCH  21  24
ATOM     24  C   UNL     1      45.665   5.470  11.024  0.00  0.00    +0.000 A 
ATOM     25  C   UNL     1      45.803   5.582   9.647  0.00  0.00    +0.000 A 
ATOM     26  S   UNL     1      45.086   4.299   8.782  0.00  0.00    +0.000 S 
ATOM     27  C   UNL     1      44.529   3.571  10.216  0.00  0.00    +0.000 A 
ATOM     28  N   UNL     1      43.786   2.434  10.180  0.00  0.00    +0.000 NA
ATOM     29  C   UNL     1      43.404   2.010  11.339  0.00  0.00    +0.000 A 
ATOM     30  N   UNL     1      43.709   2.615  12.531  0.00  0.00    +0.000 N 
ATOM     31  C   UNL     1      44.491   3.741  12.617  0.00  0.00    +0.000 A 
ATOM     32  O   UNL     1      44.806   4.218  13.703  0.00  0.00    +0.000 OA
ATOM     33  C   UNL     1      44.916   4.278  11.340  0.00  0.00    +0.000 A 
ATOM     34  H   UNL     1      43.397   2.221  13.405  0.00  0.00    +0.000 HD
ENDBRANCH  21  24
ENDBRANCH   2  20
TORSDOF 6
ENDMDL
MODEL 8
REMARK VINA RESULT:    -7.126      3.683      5.505
REMARK INTER + INTRA:         -10.599
REMARK INTER:                  -9.254
REMARK INTRA:                  -1.345
REMARK UNBOUND:                -0.973
REMARK  Name = 
REMARK  7 active torsions:
REMARK  status: ('A' for Active; 'I' for Inactive)
REMARK    1  A    between atoms: C_1  and  C_2
REMARK    2  A    between atoms: C_2  and  N_3
REMARK    3  A    between atoms: C_2  and  C_16
REMARK    4  A    between atoms: C_4  and  C_6
REMARK    5  A    between atoms: C_19  and  C_20
REMARK    6  A    between atoms: C_20  and  N_21
REMARK    7  A    between atoms: C_22  and  C_24
REMARK                            x       y       z     vdW  Elec       q    Type
REMARK                         _______ _______ _______ _____ _____    ______ ____
ROOT
ATOM      1  C   UNL     1      48.847   5.985  16.048  0.00  0.00    +0.000 C 
ATOM      2  C   UNL     1      48.768   7.090  14.988  0.00  0.00    +0.000 C 
ENDROOT
BRANCH   2   3
ATOM      3  C   UNL     1      47.705   6.752  13.948  0.00  0.00    +0.000 A 
ATOM      4  C   UNL     1      47.183   5.455  13.849  0.00  0.00    +0.000 A 
ATOM      5  C   UNL     1      46.160   5.166  12.937  0.00  0.00    +0.000 A 
ATOM      6  C   UNL     1      45.644   6.163  12.097  0.00  0.00    +0.000 A 
ATOM      7  C   UNL     1      46.172   7.455  12.186  0.00  0.00    +0.000 A 
ATOM      8  C   UNL     1      47.194   7.745  13.094  0.00  0.00    +0.000 A 
BRANCH   6   9
ATOM      9  C   UNL     1      44.528   5.863  11.130  0.00  0.00    +0.000 C 
BRANCH   9  10
ATOM     10  N   UNL     1      44.987   5.121   9.983  0.00  0.00    +0.000 N 
ATOM     11  C   UNL     1      44.422   3.912   9.642  0.00  0.00    +0.000 C 
ATOM     12  O   UNL     1      43.597   3.331  10.343  0.00  0.00    +0.000 OA
ATOM     13  H   UNL     1      45.540   5.571   9.257  0.00  0.00    +0.000 HD
BRANCH  11  14
ATOM     14  C   UNL     1      44.958   3.303   8.339  0.00  0.00    +0.000 C 
ATOM     15  C   UNL     1      45.757   2.038   8.582  0.00  0.00    +0.000 C 
ATOM     16  C   UNL     1      46.600   1.922   7.325  0.00  0.00    +0.000 C 
ATOM     17  C   UNL     1      46.814   3.358   6.869  0.00  0.00    +0.000 C 
ATOM     18  N   UNL     1      45.949   4.205   7.695  0.00  0.00    +0.000 NA
ATOM     19  H   UNL     1      45.455   4.884   7.114  0.00  0.00    +0.000 HD
ENDBRANCH  11  14
ENDBRANCH   9  10
ENDBRANCH   6   9
ENDBRANCH   2   3
BRANCH   2  20
ATOM     20  N   UNL     1      50.037   7.308  14.306  0.00  0.00    +0.000 N 
ATOM     21  C   UNL     1      50.644   8.534  14.210  0.00  0.00    +0.000 C 
ATOM     22  O   UNL     1      50.187   9.546  14.732  0.00  0.00    +0.000 OA
ATOM     23  H   UNL     1      50.285   6.608  13.613  0.00  0.00    +0.000 HD
BRANCH  21  24
ATOM     24  C   UNL     1      51.930   8.564  13.505  0.00  0.00    +0.000 A 
ATOM     25  C   UNL     1      53.077   8.947  14.185  0.00  0.00    +0.000 A 
ATOM     26  S   UNL     1      54.484   8.920  13.221  0.00  0.00    +0.000 S 
ATOM     27  C   UNL     1      53.600   8.437  11.849  0.00  0.00    +0.000 A 
ATOM     28  N   UNL     1      54.211   8.272  10.646  0.00  0.00    +0.000 NA
ATOM     29  C   UNL     1      53.414   7.935   9.686  0.00  0.00    +0.000 A 
ATOM     30  N   UNL     1      52.065   7.737   9.825  0.00  0.00    +0.000 N 
ATOM     31  C   UNL     1      51.414   7.851  11.028  0.00  0.00    +0.000 A 
ATOM     32  O   UNL     1      50.218   7.598  11.134  0.00  0.00    +0.000 OA
ATOM     33  C   UNL     1      52.258   8.264  12.133  0.00  0.00    +0.000 A 
ATOM     34  H   UNL     1      51.502   7.453   9.038  0.00  0.00    +0.000 HD
ENDBRANCH  21  24
ENDBRANCH   2  20
TORSDOF 6
ENDMDL
MODEL 9
REMARK VINA RESULT:    -6.860      3.993      5.409
REMARK INTER + INTRA:         -10.240
REMARK INTER:                  -9.034
REMARK INTRA:                  -1.206
REMARK UNBOUND:                -0.973
REMARK  Name = 
REMARK  7 active torsions:
REMARK  status: ('A' for Active; 'I' for Inactive)
REMARK    1  A    between atoms: C_1  and  C_2
REMARK    2  A    between atoms: C_2  and  N_3
REMARK    3  A    between atoms: C_2  and  C_16
REMARK    4  A    between atoms: C_4  and  C_6
REMARK    5  A    between atoms: C_19  and  C_20
REMARK    6  A    between atoms: C_20  and  N_21
REMARK    7  A    between atoms: C_22  and  C_24
REMARK                            x       y       z     vdW  Elec       q    Type
REMARK                         _______ _______ _______ _____ _____    ______ ____
ROOT
ATOM      1  C   UNL     1      49.046   6.607  15.757  0.00  0.00    +0.000 C 
ATOM      2  C   UNL     1      48.876   7.562  14.570  0.00  0.00    +0.000 C 
ENDROOT
BRANCH   2   3
ATOM      3  C   UNL     1      47.670   7.156  13.730  0.00  0.00    +0.000 A 
ATOM      4  C   UNL     1      46.764   8.117  13.262  0.00  0.00    +0.000 A 
ATOM      5  C   UNL     1      45.695   7.746  12.437  0.00  0.00    +0.000 A 
ATOM      6  C   UNL     1      45.502   6.407  12.069  0.00  0.00    +0.000 A 
ATOM      7  C   UNL     1      46.398   5.445  12.545  0.00  0.00    +0.000 A 
ATOM      8  C   UNL     1      47.464   5.813  13.370  0.00  0.00    +0.000 A 
BRANCH   6   9
ATOM      9  C   UNL     1      44.367   6.005  11.163  0.00  0.00    +0.000 C 
BRANCH   9  10
ATOM     10  N   UNL     1      44.823   5.261  10.016  0.00  0.00    +0.000 N 
ATOM     11  C   UNL     1      44.308   4.018   9.720  0.00  0.00    +0.000 C 
ATOM     12  O   UNL     1      43.536   3.413  10.461  0.00  0.00    +0.000 OA
ATOM     13  H   UNL     1      45.328   5.721   9.263  0.00  0.00    +0.000 HD
BRANCH  11  14
ATOM     14  C   UNL     1      44.830   3.407   8.412  0.00  0.00    +0.000 C 
ATOM     15  C   UNL     1      45.641   2.148   8.649  0.00  0.00    +0.000 C 
ATOM     16  C   UNL     1      46.466   2.033   7.381  0.00  0.00    +0.000 C 
ATOM     17  C   UNL     1      46.664   3.468   6.916  0.00  0.00    +0.000 C 
ATOM     18  N   UNL     1      45.806   4.313   7.751  0.00  0.00    +0.000 NA
ATOM     19  H   UNL     1      45.299   4.986   7.174  0.00  0.00    +0.000 HD
ENDBRANCH  11  14
ENDBRANCH   9  10
ENDBRANCH   6   9
ENDBRANCH   2   3
BRANCH   2  20
ATOM     20  N   UNL     1      50.052   7.607  13.709  0.00  0.00    +0.000 N 
ATOM     21  C   UNL     1      50.465   8.737  13.051  0.00  0.00    +0.000 C 
ATOM     22  O   UNL     1      49.900   9.820  13.167  0.00  0.00    +0.000 OA
ATOM     23  H   UNL     1      50.352   6.712  13.336  0.00  0.00    +0.000 HD
BRANCH  21  24
ATOM     24  C   UNL     1      51.682   8.605  12.243  0.00  0.00    +0.000 A 
ATOM     25  C   UNL     1      51.615   8.773  10.867  0.00  0.00    +0.000 A 
ATOM     26  S   UNL     1      53.119   8.594  10.083  0.00  0.00    +0.000 S 
ATOM     27  C   UNL     1      53.904   8.241  11.551  0.00  0.00    +0.000 A 
ATOM     28  N   UNL     1      55.229   7.939  11.581  0.00  0.00    +0.000 NA
ATOM     29  C   UNL     1      55.686   7.661  12.757  0.00  0.00    +0.000 A 
ATOM     30  N   UNL     1      54.939   7.671  13.907  0.00  0.00    +0.000 N 
ATOM     31  C   UNL     1      53.609   8.010  13.929  0.00  0.00    +0.000 A 
ATOM     32  O   UNL     1      52.985   8.079  14.984  0.00  0.00    +0.000 OA
ATOM     33  C   UNL     1      53.038   8.296  12.628  0.00  0.00    +0.000 A 
ATOM     34  H   UNL     1      55.362   7.465  14.799  0.00  0.00    +0.000 HD
ENDBRANCH  21  24
ENDBRANCH   2  20
TORSDOF 6
ENDMDL
