MODEL 1
REMARK VINA RESULT:    -8.098      0.000      0.000
REMARK INTER + INTRA:         -13.118
REMARK INTER:                 -11.885
REMARK INTRA:                  -1.233
REMARK UNBOUND:                -1.233
REMARK  Name = 
REMARK  9 active torsions:
REMARK  status: ('A' for Active; 'I' for Inactive)
REMARK    1  A    between atoms: C_1  and  O_2
REMARK    2  A    between atoms: O_2  and  C_3
REMARK    3  A    between atoms: C_10  and  C_11
REMARK    4  A    between atoms: N_13  and  C_14
REMARK    5  A    between atoms: C_14  and  C_15
REMARK    6  A    between atoms: C_18  and  C_19
REMARK    7  A    between atoms: C_19  and  O_20
REMARK    8  A    between atoms: O_20  and  C_21
REMARK    9  A    between atoms: C_21  and  C_22
REMARK                            x       y       z     vdW  Elec       q    Type
REMARK                         _______ _______ _______ _____ _____    ______ ____
ROOT
ATOM      1  C   UNL     1      47.920   7.074  13.205  0.00  0.00    +0.000 C 
ENDROOT
BRANCH   1   2
ATOM      2  C   UNL     1      46.807   6.214  12.661  0.00  0.00    +0.000 A 
ATOM      3  C   UNL     1      46.156   6.551  11.465  0.00  0.00    +0.000 A 
ATOM      4  C   UNL     1      45.118   5.754  10.970  0.00  0.00    +0.000 A 
ATOM      5  C   UNL     1      44.697   4.610  11.664  0.00  0.00    +0.000 A 
ATOM      6  C   UNL     1      45.329   4.290  12.872  0.00  0.00    +0.000 A 
ATOM      7  C   UNL     1      46.369   5.085  13.367  0.00  0.00    +0.000 A 
BRANCH   5   8
ATOM      8  C   UNL     1      43.579   3.751  11.125  0.00  0.00    +0.000 C 
BRANCH   8   9
ATOM      9  O   UNL     1      43.848   3.458   9.758  0.00  0.00    +0.000 OA
BRANCH   9  10
ATOM     10  C   UNL     1      44.504   2.196   9.601  0.00  0.00    +0.000 C 
BRANCH  10  11
ATOM     11  C   UNL     1      45.547   2.259   8.506  0.00  0.00    +0.000 A 
ATOM     12  C   UNL     1      45.795   3.449   7.824  0.00  0.00    +0.000 A 
ATOM     13  C   UNL     1      46.770   3.472   6.830  0.00  0.00    +0.000 A 
ATOM     14  C   UNL     1      47.484   2.314   6.552  0.00  0.00    +0.000 A 
ATOM     15  C   UNL     1      47.195   1.177   7.287  0.00  0.00    +0.000 A 
ATOM     16  N   UNL     1      46.254   1.124   8.257  0.00  0.00    +0.000 NA
ENDBRANCH  10  11
ENDBRANCH   9  10
ENDBRANCH   8   9
ENDBRANCH   5   8
ENDBRANCH   1   2
BRANCH   1  19
ATOM     17  C   UNL     1      48.969   6.928  15.430  0.00  0.00    +0.000 C 
ATOM     18  O   UNL     1      50.066   6.679  14.939  0.00  0.00    +0.000 OA
ATOM     19  N   UNL     1      47.869   7.131  14.644  0.00  0.00    +0.000 N 
ATOM     20  H   UNL     1      46.965   7.280  15.068  0.00  0.00    +0.000 HD
BRANCH  17  28
ATOM     21  C   UNL     1      48.877   4.596  17.965  0.00  0.00    +0.000 A 
ATOM     22  N   UNL     1      48.787   3.912  19.122  0.00  0.00    +0.000 NA
ATOM     23  C   UNL     1      48.562   4.601  20.243  0.00  0.00    +0.000 A 
ATOM     24  N   UNL     1      48.412   5.919  20.356  0.00  0.00    +0.000 NA
ATOM     25  C   UNL     1      48.515   6.562  19.181  0.00  0.00    +0.000 A 
ATOM     26  S   UNL     1      48.353   8.251  19.136  0.00  0.00    +0.000 S 
ATOM     27  C   UNL     1      48.581   8.279  17.452  0.00  0.00    +0.000 A 
ATOM     28  C   UNL     1      48.782   7.024  16.890  0.00  0.00    +0.000 A 
ATOM     29  C   UNL     1      48.748   5.996  17.932  0.00  0.00    +0.000 A 
BRANCH  21  31
ATOM     30  C   UNL     1      48.008   3.235  16.269  0.00  0.00    +0.000 C 
ATOM     31  O   UNL     1      49.152   3.888  16.814  0.00  0.00    +0.000 OA
ENDBRANCH  21  31
ENDBRANCH  17  28
ENDBRANCH   1  19
TORSDOF 8
ENDMDL
MODEL 2
REMARK VINA RESULT:    -7.195      1.735      3.171
REMARK INTER + INTRA:         -11.793
REMARK INTER:                 -10.464
REMARK INTRA:                  -1.329
REMARK UNBOUND:                -1.233
REMARK  Name = 
REMARK  9 active torsions:
REMARK  status: ('A' for Active; 'I' for Inactive)
REMARK    1  A    between atoms: C_1  and  O_2
REMARK    2  A    between atoms: O_2  and  C_3
REMARK    3  A    between atoms: C_10  and  C_11
REMARK    4  A    between atoms: N_13  and  C_14
REMARK    5  A    between atoms: C_14  and  C_15
REMARK    6  A    between atoms: C_18  and  C_19
REMARK    7  A    between atoms: C_19  and  O_20
REMARK    8  A    between atoms: O_20  and  C_21
REMARK    9  A    between atoms: C_21  and  C_22
REMARK                            x       y       z     vdW  Elec       q    Type
REMARK                         _______ _______ _______ _____ _____    ______ ____
ROOT
ATOM      1  C   UNL     1      47.391   4.102  15.055  0.00  0.00    +0.000 C 
ENDROOT
BRANCH   1   2
ATOM      2  C   UNL     1      46.458   4.289  13.885  0.00  0.00    +0.000 A 
ATOM      3  C   UNL     1      45.928   5.551  13.582  0.00  0.00    +0.000 A 
ATOM      4  C   UNL     1      45.055   5.716  12.500  0.00  0.00    +0.000 A 
ATOM      5  C   UNL     1      44.682   4.622  11.705  0.00  0.00    +0.000 A 
ATOM      6  C   UNL     1      45.192   3.357  12.025  0.00  0.00    +0.000 A 
ATOM      7  C   UNL     1      46.066   3.192  13.105  0.00  0.00    +0.000 A 
BRANCH   5   8
ATOM      8  C   UNL     1      43.744   4.806  10.537  0.00  0.00    +0.000 C 
BRANCH   8   9
ATOM      9  O   UNL     1      44.013   3.795   9.572  0.00  0.00    +0.000 OA
BRANCH   9  10
ATOM     10  C   UNL     1      44.788   4.295   8.477  0.00  0.00    +0.000 C 
BRANCH  10  11
ATOM     11  C   UNL     1      45.721   3.230   7.943  0.00  0.00    +0.000 A 
ATOM     12  C   UNL     1      46.675   3.536   6.973  0.00  0.00    +0.000 A 
ATOM     13  C   UNL     1      47.523   2.533   6.514  0.00  0.00    +0.000 A 
ATOM     14  C   UNL     1      47.412   1.254   7.043  0.00  0.00    +0.000 A 
ATOM     15  C   UNL     1      46.455   1.033   8.019  0.00  0.00    +0.000 A 
ATOM     16  N   UNL     1      45.616   1.986   8.484  0.00  0.00    +0.000 NA
ENDBRANCH  10  11
ENDBRANCH   9  10
ENDBRANCH   8   9
ENDBRANCH   5   8
ENDBRANCH   1   2
BRANCH   1  19
ATOM     17  C   UNL     1      48.694   5.546  16.568  0.00  0.00    +0.000 C 
ATOM     18  O   UNL     1      49.487   4.642  16.812  0.00  0.00    +0.000 OA
ATOM     19  N   UNL     1      47.640   5.357  15.720  0.00  0.00    +0.000 N 
ATOM     20  H   UNL     1      46.967   6.096  15.576  0.00  0.00    +0.000 HD
BRANCH  17  28
ATOM     21  C   UNL     1      48.754   8.742  15.281  0.00  0.00    +0.000 A 
ATOM     22  N   UNL     1      48.822  10.067  15.050  0.00  0.00    +0.000 NA
ATOM     23  C   UNL     1      49.007  10.878  16.095  0.00  0.00    +0.000 A 
ATOM     24  N   UNL     1      49.133  10.522  17.371  0.00  0.00    +0.000 NA
ATOM     25  C   UNL     1      49.052   9.194  17.557  0.00  0.00    +0.000 A 
ATOM     26  S   UNL     1      49.190   8.560  19.126  0.00  0.00    +0.000 S 
ATOM     27  C   UNL     1      49.007   6.970  18.553  0.00  0.00    +0.000 A 
ATOM     28  C   UNL     1      48.840   6.883  17.177  0.00  0.00    +0.000 A 
ATOM     29  C   UNL     1      48.862   8.221  16.582  0.00  0.00    +0.000 A 
BRANCH  21  31
ATOM     30  C   UNL     1      49.710   7.546  13.510  0.00  0.00    +0.000 C 
ATOM     31  O   UNL     1      48.521   7.910  14.206  0.00  0.00    +0.000 OA
ENDBRANCH  21  31
ENDBRANCH  17  28
ENDBRANCH   1  19
TORSDOF 8
ENDMDL
MODEL 3
REMARK VINA RESULT:    -6.895      2.348      3.088
REMARK INTER + INTRA:         -11.353
REMARK INTER:                 -10.311
REMARK INTRA:                  -1.041
REMARK UNBOUND:                -1.233
REMARK  Name = 
REMARK  9 active torsions:
REMARK  status: ('A' for Active; 'I' for Inactive)
REMARK    1  A    between atoms: C_1  and  O_2
REMARK    2  A    between atoms: O_2  and  C_3
REMARK    3  A    between atoms: C_10  and  C_11
REMARK    4  A    between atoms: N_13  and  C_14
REMARK    5  A    between atoms: C_14  and  C_15
REMARK    6  A    between atoms: C_18  and  C_19
REMARK    7  A    between atoms: C_19  and  O_20
REMARK    8  A    between atoms: O_20  and  C_21
REMARK    9  A    between atoms: C_21  and  C_22
REMARK                            x       y       z     vdW  Elec       q    Type
REMARK                         _______ _______ _______ _____ _____    ______ ____
ROOT
ATOM      1  C   UNL     1      48.684   7.622  15.499  0.00  0.00    +0.000 C 
ENDROOT
BRANCH   1   2
ATOM      2  C   UNL     1      47.922   7.176  14.276  0.00  0.00    +0.000 A 
ATOM      3  C   UNL     1      47.495   5.848  14.140  0.00  0.00    +0.000 A 
ATOM      4  C   UNL     1      46.796   5.437  12.999  0.00  0.00    +0.000 A 
ATOM      5  C   UNL     1      46.518   6.341  11.963  0.00  0.00    +0.000 A 
ATOM      6  C   UNL     1      46.968   7.662  12.089  0.00  0.00    +0.000 A 
ATOM      7  C   UNL     1      47.666   8.073  13.230  0.00  0.00    +0.000 A 
BRANCH   5   8
ATOM      8  C   UNL     1      45.761   5.895  10.736  0.00  0.00    +0.000 C 
BRANCH   8   9
ATOM      9  O   UNL     1      45.526   4.494  10.829  0.00  0.00    +0.000 OA
BRANCH   9  10
ATOM     10  C   UNL     1      44.676   4.024   9.777  0.00  0.00    +0.000 C 
BRANCH  10  11
ATOM     11  C   UNL     1      45.469   3.250   8.745  0.00  0.00    +0.000 A 
ATOM     12  C   UNL     1      46.081   3.904   7.677  0.00  0.00    +0.000 A 
ATOM     13  C   UNL     1      46.811   3.160   6.755  0.00  0.00    +0.000 A 
ATOM     14  C   UNL     1      46.926   1.787   6.928  0.00  0.00    +0.000 A 
ATOM     15  C   UNL     1      46.308   1.214   8.025  0.00  0.00    +0.000 A 
ATOM     16  N   UNL     1      45.592   1.910   8.937  0.00  0.00    +0.000 NA
ENDBRANCH  10  11
ENDBRANCH   9  10
ENDBRANCH   8   9
ENDBRANCH   5   8
ENDBRANCH   1   2
BRANCH   1  19
ATOM     17  C   UNL     1      50.035   6.460  17.201  0.00  0.00    +0.000 C 
ATOM     18  O   UNL     1      49.593   7.174  18.096  0.00  0.00    +0.000 OA
ATOM     19  N   UNL     1      49.640   6.621  15.903  0.00  0.00    +0.000 N 
ATOM     20  H   UNL     1      50.057   6.061  15.173  0.00  0.00    +0.000 HD
BRANCH  17  28
ATOM     21  C   UNL     1      49.916   3.023  16.986  0.00  0.00    +0.000 A 
ATOM     22  N   UNL     1      50.135   1.694  17.006  0.00  0.00    +0.000 NA
ATOM     23  C   UNL     1      51.329   1.261  17.418  0.00  0.00    +0.000 A 
ATOM     24  N   UNL     1      52.356   2.007  17.821  0.00  0.00    +0.000 NA
ATOM     25  C   UNL     1      52.096   3.325  17.779  0.00  0.00    +0.000 A 
ATOM     26  S   UNL     1      53.295   4.428  18.256  0.00  0.00    +0.000 S 
ATOM     27  C   UNL     1      52.272   5.750  17.947  0.00  0.00    +0.000 A 
ATOM     28  C   UNL     1      51.013   5.391  17.481  0.00  0.00    +0.000 A 
ATOM     29  C   UNL     1      50.913   3.934  17.376  0.00  0.00    +0.000 A 
BRANCH  21  31
ATOM     30  C   UNL     1      47.592   2.966  17.264  0.00  0.00    +0.000 C 
ATOM     31  O   UNL     1      48.697   3.470  16.519  0.00  0.00    +0.000 OA
ENDBRANCH  21  31
ENDBRANCH  17  28
ENDBRANCH   1  19
TORSDOF 8
ENDMDL
MODEL 4
REMARK VINA RESULT:    -6.808      4.585      9.383
REMARK INTER + INTRA:         -11.226
REMARK INTER:                 -10.247
REMARK INTRA:                  -0.979
REMARK UNBOUND:                -1.233
REMARK  Name = 
REMARK  9 active torsions:
REMARK  status: ('A' for Active; 'I' for Inactive)
REMARK    1  A    between atoms: C_1  and  O_2
REMARK    2  A    between atoms: O_2  and  C_3
REMARK    3  A    between atoms: C_10  and  C_11
REMARK    4  A    between atoms: N_13  and  C_14
REMARK    5  A    between atoms: C_14  and  C_15
REMARK    6  A    between atoms: C_18  and  C_19
REMARK    7  A    between atoms: C_19  and  O_20
REMARK    8  A    between atoms: O_20  and  C_21
REMARK    9  A    between atoms: C_21  and  C_22
REMARK                            x       y       z     vdW  Elec       q    Type
REMARK                         _______ _______ _______ _____ _____    ______ ____
ROOT
ATOM      1  C   UNL     1      47.218   3.354  16.746  0.00  0.00    +0.000 C 
ENDROOT
BRANCH   1   2
ATOM      2  C   UNL     1      48.691   3.364  17.072  0.00  0.00    +0.000 A 
ATOM      3  C   UNL     1      49.448   2.186  17.017  0.00  0.00    +0.000 A 
ATOM      4  C   UNL     1      50.812   2.200  17.330  0.00  0.00    +0.000 A 
ATOM      5  C   UNL     1      51.447   3.388  17.718  0.00  0.00    +0.000 A 
ATOM      6  C   UNL     1      50.683   4.560  17.800  0.00  0.00    +0.000 A 
ATOM      7  C   UNL     1      49.320   4.547  17.485  0.00  0.00    +0.000 A 
BRANCH   5   8
ATOM      8  C   UNL     1      52.919   3.400  18.051  0.00  0.00    +0.000 C 
BRANCH   8   9
ATOM      9  O   UNL     1      53.177   2.387  19.018  0.00  0.00    +0.000 OA
BRANCH   9  10
ATOM     10  C   UNL     1      54.532   1.930  18.966  0.00  0.00    +0.000 C 
BRANCH  10  11
ATOM     11  C   UNL     1      54.608   0.518  18.425  0.00  0.00    +0.000 A 
ATOM     12  C   UNL     1      54.845   0.283  17.072  0.00  0.00    +0.000 A 
ATOM     13  C   UNL     1      54.919  -1.029  16.614  0.00  0.00    +0.000 A 
ATOM     14  C   UNL     1      54.771  -2.073  17.517  0.00  0.00    +0.000 A 
ATOM     15  C   UNL     1      54.560  -1.759  18.848  0.00  0.00    +0.000 A 
ATOM     16  N   UNL     1      54.482  -0.495  19.323  0.00  0.00    +0.000 NA
ENDBRANCH  10  11
ENDBRANCH   9  10
ENDBRANCH   8   9
ENDBRANCH   5   8
ENDBRANCH   1   2
BRANCH   1  19
ATOM     17  C   UNL     1      46.903   4.216  14.459  0.00  0.00    +0.000 C 
ATOM     18  O   UNL     1      47.204   3.132  13.967  0.00  0.00    +0.000 OA
ATOM     19  N   UNL     1      46.891   4.403  15.813  0.00  0.00    +0.000 N 
ATOM     20  H   UNL     1      46.695   5.316  16.196  0.00  0.00    +0.000 HD
BRANCH  17  28
ATOM     21  C   UNL     1      44.092   5.026  12.638  0.00  0.00    +0.000 A 
ATOM     22  N   UNL     1      43.145   5.572  11.851  0.00  0.00    +0.000 NA
ATOM     23  C   UNL     1      43.413   6.744  11.269  0.00  0.00    +0.000 A 
ATOM     24  N   UNL     1      44.533   7.455  11.379  0.00  0.00    +0.000 NA
ATOM     25  C   UNL     1      45.446   6.877  12.178  0.00  0.00    +0.000 A 
ATOM     26  S   UNL     1      46.937   7.647  12.435  0.00  0.00    +0.000 S 
ATOM     27  C   UNL     1      47.467   6.390  13.449  0.00  0.00    +0.000 A 
ATOM     28  C   UNL     1      46.539   5.370  13.615  0.00  0.00    +0.000 A 
ATOM     29  C   UNL     1      45.324   5.668  12.854  0.00  0.00    +0.000 A 
BRANCH  21  31
ATOM     30  C   UNL     1      43.618   2.749  12.368  0.00  0.00    +0.000 C 
ATOM     31  O   UNL     1      43.798   3.836  13.272  0.00  0.00    +0.000 OA
ENDBRANCH  21  31
ENDBRANCH  17  28
ENDBRANCH   1  19
TORSDOF 8
ENDMDL
MODEL 5
REMARK VINA RESULT:    -6.504      2.035      3.015
REMARK INTER + INTRA:         -10.778
REMARK INTER:                  -9.610
REMARK INTRA:                  -1.169
REMARK UNBOUND:                -1.233
REMARK  Name = 
REMARK  9 active torsions:
REMARK  status: ('A' for Active; 'I' for Inactive)
REMARK    1  A    between atoms: C_1  and  O_2
REMARK    2  A    between atoms: O_2  and  C_3
REMARK    3  A    between atoms: C_10  and  C_11
REMARK    4  A    between atoms: N_13  and  C_14
REMARK    5  A    between atoms: C_14  and  C_15
REMARK    6  A    between atoms: C_18  and  C_19
REMARK    7  A    between atoms: C_19  and  O_20
REMARK    8  A    between atoms: O_20  and  C_21
REMARK    9  A    between atoms: C_21  and  C_22
REMARK                            x       y       z     vdW  Elec       q    Type
REMARK                         _______ _______ _______ _____ _____    ______ ____
ROOT
ATOM      1  C   UNL     1      47.609   4.419  15.722  0.00  0.00    +0.000 C 
ENDROOT
BRANCH   1   2
ATOM      2  C   UNL     1      47.018   4.699  14.363  0.00  0.00    +0.000 A 
ATOM      3  C   UNL     1      47.207   5.940  13.739  0.00  0.00    +0.000 A 
ATOM      4  C   UNL     1      46.648   6.198  12.482  0.00  0.00    +0.000 A 
ATOM      5  C   UNL     1      45.877   5.227  11.826  0.00  0.00    +0.000 A 
ATOM      6  C   UNL     1      45.667   3.997  12.463  0.00  0.00    +0.000 A 
ATOM      7  C   UNL     1      46.227   3.738  13.719  0.00  0.00    +0.000 A 
BRANCH   5   8
ATOM      8  C   UNL     1      45.279   5.508  10.469  0.00  0.00    +0.000 C 
BRANCH   8   9
ATOM      9  O   UNL     1      44.453   4.409  10.098  0.00  0.00    +0.000 OA
BRANCH   9  10
ATOM     10  C   UNL     1      44.358   4.269   8.677  0.00  0.00    +0.000 C 
BRANCH  10  11
ATOM     11  C   UNL     1      45.439   3.350   8.149  0.00  0.00    +0.000 A 
ATOM     12  C   UNL     1      45.493   2.013   8.539  0.00  0.00    +0.000 A 
ATOM     13  C   UNL     1      46.495   1.196   8.024  0.00  0.00    +0.000 A 
ATOM     14  C   UNL     1      47.409   1.727   7.122  0.00  0.00    +0.000 A 
ATOM     15  C   UNL     1      47.277   3.058   6.768  0.00  0.00    +0.000 A 
ATOM     16  N   UNL     1      46.315   3.877   7.251  0.00  0.00    +0.000 NA
ENDBRANCH  10  11
ENDBRANCH   9  10
ENDBRANCH   8   9
ENDBRANCH   5   8
ENDBRANCH   1   2
BRANCH   1  19
ATOM     17  C   UNL     1      48.045   5.729  17.763  0.00  0.00    +0.000 C 
ATOM     18  O   UNL     1      47.857   4.750  18.479  0.00  0.00    +0.000 OA
ATOM     19  N   UNL     1      47.939   5.646  16.403  0.00  0.00    +0.000 N 
ATOM     20  H   UNL     1      48.043   6.474  15.836  0.00  0.00    +0.000 HD
BRANCH  17  28
ATOM     21  C   UNL     1      50.753   7.827  17.385  0.00  0.00    +0.000 A 
ATOM     22  N   UNL     1      51.675   8.808  17.431  0.00  0.00    +0.000 NA
ATOM     23  C   UNL     1      51.440   9.854  18.227  0.00  0.00    +0.000 A 
ATOM     24  N   UNL     1      50.373  10.048  19.000  0.00  0.00    +0.000 NA
ATOM     25  C   UNL     1      49.477   9.050  18.918  0.00  0.00    +0.000 A 
ATOM     26  S   UNL     1      48.052   9.131  19.837  0.00  0.00    +0.000 S 
ATOM     27  C   UNL     1      47.519   7.634  19.233  0.00  0.00    +0.000 A 
ATOM     28  C   UNL     1      48.398   7.044  18.333  0.00  0.00    +0.000 A 
ATOM     29  C   UNL     1      49.570   7.900  18.142  0.00  0.00    +0.000 A 
BRANCH  21  31
ATOM     30  C   UNL     1      52.034   5.914  16.962  0.00  0.00    +0.000 C 
ATOM     31  O   UNL     1      50.977   6.768  16.530  0.00  0.00    +0.000 OA
ENDBRANCH  21  31
ENDBRANCH  17  28
ENDBRANCH   1  19
TORSDOF 8
ENDMDL
MODEL 6
REMARK VINA RESULT:    -6.437      3.675      9.037
REMARK INTER + INTRA:         -10.680
REMARK INTER:                  -9.218
REMARK INTRA:                  -1.463
REMARK UNBOUND:                -1.233
REMARK  Name = 
REMARK  9 active torsions:
REMARK  status: ('A' for Active; 'I' for Inactive)
REMARK    1  A    between atoms: C_1  and  O_2
REMARK    2  A    between atoms: O_2  and  C_3
REMARK    3  A    between atoms: C_10  and  C_11
REMARK    4  A    between atoms: N_13  and  C_14
REMARK    5  A    between atoms: C_14  and  C_15
REMARK    6  A    between atoms: C_18  and  C_19
REMARK    7  A    between atoms: C_19  and  O_20
REMARK    8  A    between atoms: O_20  and  C_21
REMARK    9  A    between atoms: C_21  and  C_22
REMARK                            x       y       z     vdW  Elec       q    Type
REMARK                         _______ _______ _______ _____ _____    ______ ____
ROOT
ATOM      1  C   UNL     1      47.257   3.250  16.989  0.00  0.00    +0.000 C 
ENDROOT
BRANCH   1   2
ATOM      2  C   UNL     1      48.712   3.264  17.387  0.00  0.00    +0.000 A 
ATOM      3  C   UNL     1      49.245   4.332  18.123  0.00  0.00    +0.000 A 
ATOM      4  C   UNL     1      50.599   4.344  18.481  0.00  0.00    +0.000 A 
ATOM      5  C   UNL     1      51.451   3.297  18.101  0.00  0.00    +0.000 A 
ATOM      6  C   UNL     1      50.922   2.245  17.343  0.00  0.00    +0.000 A 
ATOM      7  C   UNL     1      49.569   2.231  16.986  0.00  0.00    +0.000 A 
BRANCH   5   8
ATOM      8  C   UNL     1      52.909   3.312  18.493  0.00  0.00    +0.000 C 
BRANCH   8   9
ATOM      9  O   UNL     1      53.673   3.791  17.391  0.00  0.00    +0.000 OA
BRANCH   9  10
ATOM     10  C   UNL     1      54.363   5.005  17.707  0.00  0.00    +0.000 C 
BRANCH  10  11
ATOM     11  C   UNL     1      53.460   6.205  17.516  0.00  0.00    +0.000 A 
ATOM     12  C   UNL     1      52.800   6.418  16.307  0.00  0.00    +0.000 A 
ATOM     13  C   UNL     1      51.970   7.527  16.173  0.00  0.00    +0.000 A 
ATOM     14  C   UNL     1      51.806   8.387  17.251  0.00  0.00    +0.000 A 
ATOM     15  C   UNL     1      52.477   8.096  18.426  0.00  0.00    +0.000 A 
ATOM     16  N   UNL     1      53.291   7.028  18.586  0.00  0.00    +0.000 NA
ENDBRANCH  10  11
ENDBRANCH   9  10
ENDBRANCH   8   9
ENDBRANCH   5   8
ENDBRANCH   1   2
BRANCH   1  19
ATOM     17  C   UNL     1      47.043   4.164  14.711  0.00  0.00    +0.000 C 
ATOM     18  O   UNL     1      47.374   3.094  14.209  0.00  0.00    +0.000 OA
ATOM     19  N   UNL     1      46.965   4.319  16.066  0.00  0.00    +0.000 N 
ATOM     20  H   UNL     1      46.745   5.221  16.461  0.00  0.00    +0.000 HD
BRANCH  17  28
ATOM     21  C   UNL     1      44.379   4.936  12.665  0.00  0.00    +0.000 A 
ATOM     22  N   UNL     1      43.487   5.476  11.813  0.00  0.00    +0.000 NA
ATOM     23  C   UNL     1      43.757   6.679  11.301  0.00  0.00    +0.000 A 
ATOM     24  N   UNL     1      44.831   7.428  11.540  0.00  0.00    +0.000 NA
ATOM     25  C   UNL     1      45.691   6.855  12.399  0.00  0.00    +0.000 A 
ATOM     26  S   UNL     1      47.118   7.670  12.822  0.00  0.00    +0.000 S 
ATOM     27  C   UNL     1      47.605   6.396  13.836  0.00  0.00    +0.000 A 
ATOM     28  C   UNL     1      46.709   5.335  13.878  0.00  0.00    +0.000 A 
ATOM     29  C   UNL     1      45.558   5.616  13.018  0.00  0.00    +0.000 A 
BRANCH  21  31
ATOM     30  C   UNL     1      43.529   2.786  12.292  0.00  0.00    +0.000 C 
ATOM     31  O   UNL     1      44.078   3.712  13.226  0.00  0.00    +0.000 OA
ENDBRANCH  21  31
ENDBRANCH  17  28
ENDBRANCH   1  19
TORSDOF 8
ENDMDL
MODEL 7
REMARK VINA RESULT:    -6.399      3.561      5.327
REMARK INTER + INTRA:         -10.625
REMARK INTER:                  -9.487
REMARK INTRA:                  -1.138
REMARK UNBOUND:                -1.233
REMARK  Name = 
REMARK  9 active torsions:
REMARK  status: ('A' for Active; 'I' for Inactive)
REMARK    1  A    between atoms: C_1  and  O_2
REMARK    2  A    between atoms: O_2  and  C_3
REMARK    3  A    between atoms: C_10  and  C_11
REMARK    4  A    between atoms: N_13  and  C_14
REMARK    5  A    between atoms: C_14  and  C_15
REMARK    6  A    between atoms: C_18  and  C_19
REMARK    7  A    between atoms: C_19  and  O_20
REMARK    8  A    between atoms: O_20  and  C_21
REMARK    9  A    between atoms: C_21  and  C_22
REMARK                            x       y       z     vdW  Elec       q    Type
REMARK                         _______ _______ _______ _____ _____    ______ ____
ROOT
ATOM      1  C   UNL     1      48.088   3.022  17.665  0.00  0.00    +0.000 C 
ENDROOT
BRANCH   1   2
ATOM      2  C   UNL     1      47.938   4.038  16.560  0.00  0.00    +0.000 A 
ATOM      3  C   UNL     1      48.540   5.301  16.658  0.00  0.00    +0.000 A 
ATOM      4  C   UNL     1      48.390   6.243  15.634  0.00  0.00    +0.000 A 
ATOM      5  C   UNL     1      47.625   5.950  14.495  0.00  0.00    +0.000 A 
ATOM      6  C   UNL     1      47.002   4.698  14.412  0.00  0.00    +0.000 A 
ATOM      7  C   UNL     1      47.153   3.755  15.434  0.00  0.00    +0.000 A 
BRANCH   5   8
ATOM      8  C   UNL     1      47.469   6.967  13.392  0.00  0.00    +0.000 C 
BRANCH   8   9
ATOM      9  O   UNL     1      47.360   6.280  12.149  0.00  0.00    +0.000 OA
BRANCH   9  10
ATOM     10  C   UNL     1      46.170   6.642  11.441  0.00  0.00    +0.000 C 
BRANCH  10  11
ATOM     11  C   UNL     1      45.547   5.433  10.776  0.00  0.00    +0.000 A 
ATOM     12  C   UNL     1      45.658   5.238   9.400  0.00  0.00    +0.000 A 
ATOM     13  C   UNL     1      45.081   4.109   8.826  0.00  0.00    +0.000 A 
ATOM     14  C   UNL     1      44.423   3.195   9.638  0.00  0.00    +0.000 A 
ATOM     15  C   UNL     1      44.373   3.447  10.998  0.00  0.00    +0.000 A 
ATOM     16  N   UNL     1      44.923   4.535  11.584  0.00  0.00    +0.000 NA
ENDBRANCH  10  11
ENDBRANCH   9  10
ENDBRANCH   8   9
ENDBRANCH   5   8
ENDBRANCH   1   2
BRANCH   1  19
ATOM     17  C   UNL     1      50.344   2.138  17.213  0.00  0.00    +0.000 C 
ATOM     18  O   UNL     1      49.974   1.627  16.160  0.00  0.00    +0.000 OA
ATOM     19  N   UNL     1      49.476   2.834  18.007  0.00  0.00    +0.000 N 
ATOM     20  H   UNL     1      49.785   3.199  18.896  0.00  0.00    +0.000 HD
BRANCH  17  28
ATOM     21  C   UNL     1      52.493   4.313  18.802  0.00  0.00    +0.000 A 
ATOM     22  N   UNL     1      53.521   4.948  19.397  0.00  0.00    +0.000 NA
ATOM     23  C   UNL     1      54.672   4.287  19.534  0.00  0.00    +0.000 A 
ATOM     24  N   UNL     1      54.932   3.041  19.145  0.00  0.00    +0.000 NA
ATOM     25  C   UNL     1      53.878   2.442  18.564  0.00  0.00    +0.000 A 
ATOM     26  S   UNL     1      54.027   0.846  18.006  0.00  0.00    +0.000 S 
ATOM     27  C   UNL     1      52.420   0.836  17.453  0.00  0.00    +0.000 A 
ATOM     28  C   UNL     1      51.741   2.028  17.674  0.00  0.00    +0.000 A 
ATOM     29  C   UNL     1      52.618   2.988  18.346  0.00  0.00    +0.000 A 
BRANCH  21  31
ATOM     30  C   UNL     1      50.900   5.622  19.911  0.00  0.00    +0.000 C 
ATOM     31  O   UNL     1      51.291   4.982  18.698  0.00  0.00    +0.000 OA
ENDBRANCH  21  31
ENDBRANCH  17  28
ENDBRANCH   1  19
TORSDOF 8
ENDMDL
MODEL 8
REMARK VINA RESULT:    -5.806      6.350      8.465
REMARK INTER + INTRA:          -9.755
REMARK INTER:                  -8.960
REMARK INTRA:                  -0.795
REMARK UNBOUND:                -1.233
REMARK  Name = 
REMARK  9 active torsions:
REMARK  status: ('A' for Active; 'I' for Inactive)
REMARK    1  A    between atoms: C_1  and  O_2
REMARK    2  A    between atoms: O_2  and  C_3
REMARK    3  A    between atoms: C_10  and  C_11
REMARK    4  A    between atoms: N_13  and  C_14
REMARK    5  A    between atoms: C_14  and  C_15
REMARK    6  A    between atoms: C_18  and  C_19
REMARK    7  A    between atoms: C_19  and  O_20
REMARK    8  A    between atoms: O_20  and  C_21
REMARK    9  A    between atoms: C_21  and  C_22
REMARK                            x       y       z     vdW  Elec       q    Type
REMARK                         _______ _______ _______ _____ _____    ______ ____
ROOT
ATOM      1  C   UNL     1      52.779   2.532  18.261  0.00  0.00    +0.000 C 
ENDROOT
BRANCH   1   2
ATOM      2  C   UNL     1      51.372   2.817  17.799  0.00  0.00    +0.000 A 
ATOM      3  C   UNL     1      50.626   1.842  17.122  0.00  0.00    +0.000 A 
ATOM      4  C   UNL     1      49.324   2.115  16.687  0.00  0.00    +0.000 A 
ATOM      5  C   UNL     1      48.743   3.373  16.906  0.00  0.00    +0.000 A 
ATOM      6  C   UNL     1      49.499   4.355  17.558  0.00  0.00    +0.000 A 
ATOM      7  C   UNL     1      50.800   4.082  17.996  0.00  0.00    +0.000 A 
BRANCH   5   8
ATOM      8  C   UNL     1      47.338   3.662  16.439  0.00  0.00    +0.000 C 
BRANCH   8   9
ATOM      9  O   UNL     1      47.299   3.562  15.019  0.00  0.00    +0.000 OA
BRANCH   9  10
ATOM     10  C   UNL     1      47.041   4.827  14.401  0.00  0.00    +0.000 C 
BRANCH  10  11
ATOM     11  C   UNL     1      46.216   4.658  13.143  0.00  0.00    +0.000 A 
ATOM     12  C   UNL     1      46.065   5.710  12.241  0.00  0.00    +0.000 A 
ATOM     13  C   UNL     1      45.308   5.514  11.090  0.00  0.00    +0.000 A 
ATOM     14  C   UNL     1      44.735   4.270  10.858  0.00  0.00    +0.000 A 
ATOM     15  C   UNL     1      44.948   3.269  11.789  0.00  0.00    +0.000 A 
ATOM     16  N   UNL     1      45.677   3.430  12.917  0.00  0.00    +0.000 NA
ENDBRANCH  10  11
ENDBRANCH   9  10
ENDBRANCH   8   9
ENDBRANCH   5   8
ENDBRANCH   1   2
BRANCH   1  19
ATOM     17  C   UNL     1      54.148   0.484  18.326  0.00  0.00    +0.000 C 
ATOM     18  O   UNL     1      54.559   0.748  19.452  0.00  0.00    +0.000 OA
ATOM     19  N   UNL     1      53.276   1.312  17.676  0.00  0.00    +0.000 N 
ATOM     20  H   UNL     1      52.992   1.106  16.729  0.00  0.00    +0.000 HD
BRANCH  17  28
ATOM     21  C   UNL     1      54.061  -2.867  19.125  0.00  0.00    +0.000 A 
ATOM     22  N   UNL     1      54.157  -4.209  19.185  0.00  0.00    +0.000 NA
ATOM     23  C   UNL     1      54.709  -4.845  18.149  0.00  0.00    +0.000 A 
ATOM     24  N   UNL     1      55.186  -4.296  17.034  0.00  0.00    +0.000 NA
ATOM     25  C   UNL     1      55.064  -2.958  17.014  0.00  0.00    +0.000 A 
ATOM     26  S   UNL     1      55.618  -2.090  15.664  0.00  0.00    +0.000 S 
ATOM     27  C   UNL     1      55.151  -0.612  16.362  0.00  0.00    +0.000 A 
ATOM     28  C   UNL     1      54.571  -0.739  17.618  0.00  0.00    +0.000 A 
ATOM     29  C   UNL     1      54.516  -2.151  18.004  0.00  0.00    +0.000 A 
BRANCH  21  31
ATOM     30  C   UNL     1      52.661  -3.078  20.990  0.00  0.00    +0.000 C 
ATOM     31  O   UNL     1      53.452  -2.215  20.177  0.00  0.00    +0.000 OA
ENDBRANCH  21  31
ENDBRANCH  17  28
ENDBRANCH   1  19
TORSDOF 8
ENDMDL
MODEL 9
REMARK VINA RESULT:    -5.523      2.757      3.418
REMARK INTER + INTRA:          -9.339
REMARK INTER:                  -7.908
REMARK INTRA:                  -1.431
REMARK UNBOUND:                -1.233
REMARK  Name = 
REMARK  9 active torsions:
REMARK  status: ('A' for Active; 'I' for Inactive)
REMARK    1  A    between atoms: C_1  and  O_2
REMARK    2  A    between atoms: O_2  and  C_3
REMARK    3  A    between atoms: C_10  and  C_11
REMARK    4  A    between atoms: N_13  and  C_14
REMARK    5  A    between atoms: C_14  and  C_15
REMARK    6  A    between atoms: C_18  and  C_19
REMARK    7  A    between atoms: C_19  and  O_20
REMARK    8  A    between atoms: O_20  and  C_21
REMARK    9  A    between atoms: C_21  and  C_22
REMARK                            x       y       z     vdW  Elec       q    Type
REMARK                         _______ _______ _______ _____ _____    ______ ____
ROOT
ATOM      1  C   UNL     1      48.601   9.455  12.147  0.00  0.00    +0.000 C 
ENDROOT
BRANCH   1   2
ATOM      2  C   UNL     1      47.580   8.345  12.113  0.00  0.00    +0.000 A 
ATOM      3  C   UNL     1      46.580   8.259  13.092  0.00  0.00    +0.000 A 
ATOM      4  C   UNL     1      45.641   7.221  13.060  0.00  0.00    +0.000 A 
ATOM      5  C   UNL     1      45.688   6.240  12.059  0.00  0.00    +0.000 A 
ATOM      6  C   UNL     1      46.704   6.313  11.098  0.00  0.00    +0.000 A 
ATOM      7  C   UNL     1      47.642   7.351  11.127  0.00  0.00    +0.000 A 
BRANCH   5   8
ATOM      8  C   UNL     1      44.671   5.125  12.027  0.00  0.00    +0.000 C 
BRANCH   8   9
ATOM      9  O   UNL     1      43.964   5.187  10.792  0.00  0.00    +0.000 OA
BRANCH   9  10
ATOM     10  C   UNL     1      43.631   3.884  10.302  0.00  0.00    +0.000 C 
BRANCH  10  11
ATOM     11  C   UNL     1      44.648   3.412   9.284  0.00  0.00    +0.000 A 
ATOM     12  C   UNL     1      45.264   4.315   8.418  0.00  0.00    +0.000 A 
ATOM     13  C   UNL     1      46.201   3.845   7.503  0.00  0.00    +0.000 A 
ATOM     14  C   UNL     1      46.514   2.492   7.485  0.00  0.00    +0.000 A 
ATOM     15  C   UNL     1      45.876   1.663   8.390  0.00  0.00    +0.000 A 
ATOM     16  N   UNL     1      44.960   2.089   9.289  0.00  0.00    +0.000 NA
ENDBRANCH  10  11
ENDBRANCH   9  10
ENDBRANCH   8   9
ENDBRANCH   5   8
ENDBRANCH   1   2
BRANCH   1  19
ATOM     17  C   UNL     1      50.735   8.500  12.925  0.00  0.00    +0.000 C 
ATOM     18  O   UNL     1      50.970   8.025  11.818  0.00  0.00    +0.000 OA
ATOM     19  N   UNL     1      49.593   9.211  13.164  0.00  0.00    +0.000 N 
ATOM     20  H   UNL     1      49.391   9.546  14.095  0.00  0.00    +0.000 HD
BRANCH  17  28
ATOM     21  C   UNL     1      50.399   7.260  16.122  0.00  0.00    +0.000 A 
ATOM     22  N   UNL     1      50.543   6.848  17.397  0.00  0.00    +0.000 NA
ATOM     23  C   UNL     1      51.745   6.975  17.965  0.00  0.00    +0.000 A 
ATOM     24  N   UNL     1      52.846   7.471  17.406  0.00  0.00    +0.000 NA
ATOM     25  C   UNL     1      52.660   7.862  16.134  0.00  0.00    +0.000 A 
ATOM     26  S   UNL     1      53.960   8.519  15.263  0.00  0.00    +0.000 S 
ATOM     27  C   UNL     1      52.989   8.743  13.886  0.00  0.00    +0.000 A 
ATOM     28  C   UNL     1      51.673   8.331  14.052  0.00  0.00    +0.000 A 
ATOM     29  C   UNL     1      51.480   7.798  15.401  0.00  0.00    +0.000 A 
BRANCH  21  31
ATOM     30  C   UNL     1      48.484   5.921  15.971  0.00  0.00    +0.000 C 
ATOM     31  O   UNL     1      49.169   7.089  15.523  0.00  0.00    +0.000 OA
ENDBRANCH  21  31
ENDBRANCH  17  28
ENDBRANCH   1  19
TORSDOF 8
ENDMDL
