MODEL 1
REMARK VINA RESULT:    -8.278      0.000      0.000
REMARK INTER + INTRA:         -12.480
REMARK INTER:                 -11.424
REMARK INTRA:                  -1.056
REMARK UNBOUND:                -1.056
REMARK  Name = 
REMARK  9 active torsions:
REMARK  status: ('A' for Active; 'I' for Inactive)
REMARK    1  A    between atoms: C_1  and  C_2
REMARK    2  A    between atoms: C_2  and  C_3
REMARK    3  A    between atoms: C_2  and  C_4
REMARK    4  A    between atoms: C_2  and  C_18
REMARK    5  A    between atoms: C_4  and  N_5
REMARK    6  A    between atoms: C_10  and  O_11
REMARK    7  A    between atoms: O_11  and  C_12
REMARK    8  A    between atoms: C_14  and  O_15
REMARK    9  A    between atoms: C_21  and  C_22
REMARK                            x       y       z     vdW  Elec       q    Type
REMARK                         _______ _______ _______ _____ _____    ______ ____
ROOT
ATOM      1  C   UNL     1      45.167   4.260  12.178  0.00  0.00    +0.000 C 
ENDROOT
BRANCH   1   2
ATOM      2  N   UNL     1      46.052   5.358  11.812  0.00  0.00    +0.000 N 
ATOM      3  C   UNL     1      46.807   5.922  12.826  0.00  0.00    +0.000 A 
ATOM      4  N   UNL     1      47.062   7.229  12.661  0.00  0.00    +0.000 NA
ATOM      5  C   UNL     1      47.857   7.822  13.567  0.00  0.00    +0.000 A 
ATOM      6  C   UNL     1      48.400   7.161  14.633  0.00  0.00    +0.000 A 
ATOM      7  C   UNL     1      48.046   5.839  14.727  0.00  0.00    +0.000 A 
ATOM      8  N   UNL     1      47.256   5.193  13.853  0.00  0.00    +0.000 NA
ATOM      9  H   UNL     1      45.596   6.152  11.374  0.00  0.00    +0.000 HD
BRANCH   7  10
ATOM     10  O   UNL     1      48.562   5.147  15.808  0.00  0.00    +0.000 OA
BRANCH  10  11
ATOM     11  C   UNL     1      47.609   4.377  16.576  0.00  0.00    +0.000 C 
ATOM     12  C   UNL     1      47.444   4.778  18.065  0.00  0.00    +0.000 C 
ATOM     13  C   UNL     1      48.534   3.737  18.403  0.00  0.00    +0.000 C 
ATOM     14  C   UNL     1      48.154   3.020  17.089  0.00  0.00    +0.000 C 
BRANCH  13  15
ATOM     15  O   UNL     1      48.364   2.995  19.620  0.00  0.00    +0.000 OA
ATOM     16  H   UNL     1      47.414   3.040  19.830  0.00  0.00    +0.000 HD
ENDBRANCH  13  15
ENDBRANCH  10  11
ENDBRANCH   7  10
ENDBRANCH   1   2
BRANCH   1  18
ATOM     17  C   UNL     1      43.175   2.832  11.469  0.00  0.00    +0.000 C 
ATOM     18  C   UNL     1      44.193   3.904  11.013  0.00  0.00    +0.000 C 
ATOM     19  C   UNL     1      43.367   5.169  10.672  0.00  0.00    +0.000 C 
BRANCH  18  20
ATOM     20  C   UNL     1      44.994   3.465   9.778  0.00  0.00    +0.000 A 
ATOM     21  C   UNL     1      45.220   2.119   9.484  0.00  0.00    +0.000 A 
ATOM     22  C   UNL     1      45.964   1.773   8.355  0.00  0.00    +0.000 A 
ATOM     23  C   UNL     1      46.477   2.768   7.526  0.00  0.00    +0.000 A 
ATOM     24  C   UNL     1      46.233   4.080   7.897  0.00  0.00    +0.000 A 
ATOM     25  N   UNL     1      45.521   4.444   8.997  0.00  0.00    +0.000 NA
BRANCH  23  26
ATOM     26  C   UNL     1      47.236   2.373   6.315  0.00  0.00    +0.000 C 
ATOM     27  N   UNL     1      47.229   3.196   5.224  0.00  0.00    +0.000 N 
ATOM     28  O   UNL     1      47.861   1.318   6.278  0.00  0.00    +0.000 OA
ATOM     29  H   UNL     1      46.735   4.069   5.138  0.00  0.00    +0.000 HD
ATOM     30  H   UNL     1      47.746   2.870   4.416  0.00  0.00    +0.000 HD
ENDBRANCH  23  26
ENDBRANCH  18  20
ENDBRANCH   1  18
TORSDOF 7
ENDMDL
MODEL 2
REMARK VINA RESULT:    -7.476      1.846      8.200
REMARK INTER + INTRA:         -11.373
REMARK INTER:                 -11.017
REMARK INTRA:                  -0.356
REMARK UNBOUND:                -1.056
REMARK  Name = 
REMARK  9 active torsions:
REMARK  status: ('A' for Active; 'I' for Inactive)
REMARK    1  A    between atoms: C_1  and  C_2
REMARK    2  A    between atoms: C_2  and  C_3
REMARK    3  A    between atoms: C_2  and  C_4
REMARK    4  A    between atoms: C_2  and  C_18
REMARK    5  A    between atoms: C_4  and  N_5
REMARK    6  A    between atoms: C_10  and  O_11
REMARK    7  A    between atoms: O_11  and  C_12
REMARK    8  A    between atoms: C_14  and  O_15
REMARK    9  A    between atoms: C_21  and  C_22
REMARK                            x       y       z     vdW  Elec       q    Type
REMARK                         _______ _______ _______ _____ _____    ______ ____
ROOT
ATOM      1  C   UNL     1      46.568   7.671  12.379  0.00  0.00    +0.000 C 
ENDROOT
BRANCH   1   2
ATOM      2  N   UNL     1      45.673   6.549  12.631  0.00  0.00    +0.000 N 
ATOM      3  C   UNL     1      45.206   5.858  11.527  0.00  0.00    +0.000 A 
ATOM      4  N   UNL     1      43.979   5.336  11.683  0.00  0.00    +0.000 NA
ATOM      5  C   UNL     1      43.496   4.584  10.680  0.00  0.00    +0.000 A 
ATOM      6  C   UNL     1      44.189   4.339   9.528  0.00  0.00    +0.000 A 
ATOM      7  C   UNL     1      45.415   4.948   9.457  0.00  0.00    +0.000 A 
ATOM      8  N   UNL     1      45.950   5.711  10.426  0.00  0.00    +0.000 NA
ATOM      9  H   UNL     1      44.833   6.777  13.154  0.00  0.00    +0.000 HD
BRANCH   7  10
ATOM     10  O   UNL     1      46.134   4.737   8.293  0.00  0.00    +0.000 OA
BRANCH  10  11
ATOM     11  C   UNL     1      45.761   3.569   7.526  0.00  0.00    +0.000 C 
ATOM     12  C   UNL     1      46.353   2.218   8.005  0.00  0.00    +0.000 C 
ATOM     13  C   UNL     1      47.532   2.460   7.036  0.00  0.00    +0.000 C 
ATOM     14  C   UNL     1      46.585   3.373   6.228  0.00  0.00    +0.000 C 
BRANCH  13  15
ATOM     15  O   UNL     1      48.058   1.308   6.359  0.00  0.00    +0.000 OA
ATOM     16  H   UNL     1      48.834   1.622   5.861  0.00  0.00    +0.000 HD
ENDBRANCH  13  15
ENDBRANCH  10  11
ENDBRANCH   7  10
ENDBRANCH   1   2
BRANCH   1  18
ATOM     17  C   UNL     1      48.937   6.917  11.806  0.00  0.00    +0.000 C 
ATOM     18  C   UNL     1      47.997   7.394  12.939  0.00  0.00    +0.000 C 
ATOM     19  C   UNL     1      48.582   8.733  13.453  0.00  0.00    +0.000 C 
BRANCH  18  20
ATOM     20  C   UNL     1      47.918   6.390  14.098  0.00  0.00    +0.000 A 
ATOM     21  C   UNL     1      48.413   6.688  15.370  0.00  0.00    +0.000 A 
ATOM     22  C   UNL     1      48.328   5.736  16.386  0.00  0.00    +0.000 A 
ATOM     23  C   UNL     1      47.750   4.494  16.131  0.00  0.00    +0.000 A 
ATOM     24  C   UNL     1      47.305   4.263  14.841  0.00  0.00    +0.000 A 
ATOM     25  N   UNL     1      47.387   5.169  13.829  0.00  0.00    +0.000 NA
BRANCH  23  26
ATOM     26  C   UNL     1      47.643   3.512  17.238  0.00  0.00    +0.000 C 
ATOM     27  N   UNL     1      48.729   3.282  18.035  0.00  0.00    +0.000 N 
ATOM     28  O   UNL     1      46.598   2.903  17.442  0.00  0.00    +0.000 OA
ATOM     29  H   UNL     1      49.637   3.708  17.943  0.00  0.00    +0.000 HD
ATOM     30  H   UNL     1      48.610   2.588  18.763  0.00  0.00    +0.000 HD
ENDBRANCH  23  26
ENDBRANCH  18  20
ENDBRANCH   1  18
TORSDOF 7
ENDMDL
MODEL 3
REMARK VINA RESULT:    -7.234      2.026      8.141
REMARK INTER + INTRA:         -11.038
REMARK INTER:                 -10.077
REMARK INTRA:                  -0.962
REMARK UNBOUND:                -1.056
REMARK  Name = 
REMARK  9 active torsions:
REMARK  status: ('A' for Active; 'I' for Inactive)
REMARK    1  A    between atoms: C_1  and  C_2
REMARK    2  A    between atoms: C_2  and  C_3
REMARK    3  A    between atoms: C_2  and  C_4
REMARK    4  A    between atoms: C_2  and  C_18
REMARK    5  A    between atoms: C_4  and  N_5
REMARK    6  A    between atoms: C_10  and  O_11
REMARK    7  A    between atoms: O_11  and  C_12
REMARK    8  A    between atoms: C_14  and  O_15
REMARK    9  A    between atoms: C_21  and  C_22
REMARK                            x       y       z     vdW  Elec       q    Type
REMARK                         _______ _______ _______ _____ _____    ______ ____
ROOT
ATOM      1  C   UNL     1      47.171   7.060  12.529  0.00  0.00    +0.000 C 
ENDROOT
BRANCH   1   2
ATOM      2  N   UNL     1      45.840   6.869  13.093  0.00  0.00    +0.000 N 
ATOM      3  C   UNL     1      45.007   5.972  12.448  0.00  0.00    +0.000 A 
ATOM      4  N   UNL     1      43.703   6.277  12.528  0.00  0.00    +0.000 NA
ATOM      5  C   UNL     1      42.831   5.405  11.992  0.00  0.00    +0.000 A 
ATOM      6  C   UNL     1      43.214   4.247  11.376  0.00  0.00    +0.000 A 
ATOM      7  C   UNL     1      44.570   4.050  11.318  0.00  0.00    +0.000 A 
ATOM      8  N   UNL     1      45.489   4.885  11.834  0.00  0.00    +0.000 NA
ATOM      9  H   UNL     1      45.280   7.712  13.172  0.00  0.00    +0.000 HD
BRANCH   7  10
ATOM     10  O   UNL     1      44.992   2.897  10.682  0.00  0.00    +0.000 OA
BRANCH  10  11
ATOM     11  C   UNL     1      44.480   2.692   9.344  0.00  0.00    +0.000 C 
ATOM     12  C   UNL     1      45.307   1.751   8.431  0.00  0.00    +0.000 C 
ATOM     13  C   UNL     1      46.067   3.001   7.933  0.00  0.00    +0.000 C 
ATOM     14  C   UNL     1      44.831   3.828   8.350  0.00  0.00    +0.000 C 
BRANCH  13  15
ATOM     15  O   UNL     1      46.427   3.027   6.543  0.00  0.00    +0.000 OA
ATOM     16  H   UNL     1      45.638   2.727   6.056  0.00  0.00    +0.000 HD
ENDBRANCH  13  15
ENDBRANCH  10  11
ENDBRANCH   7  10
ENDBRANCH   1   2
BRANCH   1  18
ATOM     17  C   UNL     1      49.647   7.399  13.037  0.00  0.00    +0.000 C 
ATOM     18  C   UNL     1      48.226   7.331  13.644  0.00  0.00    +0.000 C 
ATOM     19  C   UNL     1      47.943   8.731  14.245  0.00  0.00    +0.000 C 
BRANCH  18  20
ATOM     20  C   UNL     1      48.108   6.267  14.745  0.00  0.00    +0.000 A 
ATOM     21  C   UNL     1      48.574   6.490  16.043  0.00  0.00    +0.000 A 
ATOM     22  C   UNL     1      48.453   5.486  17.004  0.00  0.00    +0.000 A 
ATOM     23  C   UNL     1      47.869   4.267  16.668  0.00  0.00    +0.000 A 
ATOM     24  C   UNL     1      47.454   4.110  15.357  0.00  0.00    +0.000 A 
ATOM     25  N   UNL     1      47.570   5.068  14.398  0.00  0.00    +0.000 NA
BRANCH  23  26
ATOM     26  C   UNL     1      47.724   3.228  17.718  0.00  0.00    +0.000 C 
ATOM     27  N   UNL     1      48.680   3.121  18.688  0.00  0.00    +0.000 N 
ATOM     28  O   UNL     1      46.765   2.464  17.721  0.00  0.00    +0.000 OA
ATOM     29  H   UNL     1      49.515   3.678  18.767  0.00  0.00    +0.000 HD
ATOM     30  H   UNL     1      48.544   2.383  19.368  0.00  0.00    +0.000 HD
ENDBRANCH  23  26
ENDBRANCH  18  20
ENDBRANCH   1  18
TORSDOF 7
ENDMDL
MODEL 4
REMARK VINA RESULT:    -7.152      1.869      3.695
REMARK INTER + INTRA:         -10.926
REMARK INTER:                 -10.124
REMARK INTRA:                  -0.802
REMARK UNBOUND:                -1.056
REMARK  Name = 
REMARK  9 active torsions:
REMARK  status: ('A' for Active; 'I' for Inactive)
REMARK    1  A    between atoms: C_1  and  C_2
REMARK    2  A    between atoms: C_2  and  C_3
REMARK    3  A    between atoms: C_2  and  C_4
REMARK    4  A    between atoms: C_2  and  C_18
REMARK    5  A    between atoms: C_4  and  N_5
REMARK    6  A    between atoms: C_10  and  O_11
REMARK    7  A    between atoms: O_11  and  C_12
REMARK    8  A    between atoms: C_14  and  O_15
REMARK    9  A    between atoms: C_21  and  C_22
REMARK                            x       y       z     vdW  Elec       q    Type
REMARK                         _______ _______ _______ _____ _____    ______ ____
ROOT
ATOM      1  C   UNL     1      45.417   4.917  11.955  0.00  0.00    +0.000 C 
ENDROOT
BRANCH   1   2
ATOM      2  N   UNL     1      45.365   4.414  13.322  0.00  0.00    +0.000 N 
ATOM      3  C   UNL     1      46.409   4.763  14.161  0.00  0.00    +0.000 A 
ATOM      4  N   UNL     1      46.698   3.842  15.092  0.00  0.00    +0.000 NA
ATOM      5  C   UNL     1      47.647   4.150  15.992  0.00  0.00    +0.000 A 
ATOM      6  C   UNL     1      48.321   5.340  15.991  0.00  0.00    +0.000 A 
ATOM      7  C   UNL     1      47.973   6.193  14.975  0.00  0.00    +0.000 A 
ATOM      8  N   UNL     1      47.034   5.940  14.048  0.00  0.00    +0.000 NA
ATOM      9  H   UNL     1      45.307   3.403  13.407  0.00  0.00    +0.000 HD
BRANCH   7  10
ATOM     10  O   UNL     1      48.653   7.398  14.933  0.00  0.00    +0.000 OA
BRANCH  10  11
ATOM     11  C   UNL     1      49.906   7.389  14.212  0.00  0.00    +0.000 C 
ATOM     12  C   UNL     1      50.778   8.665  14.336  0.00  0.00    +0.000 C 
ATOM     13  C   UNL     1      50.070   9.199  13.070  0.00  0.00    +0.000 C 
ATOM     14  C   UNL     1      49.774   7.728  12.705  0.00  0.00    +0.000 C 
BRANCH  13  15
ATOM     15  O   UNL     1      50.875   9.948  12.148  0.00  0.00    +0.000 OA
ATOM     16  H   UNL     1      51.351  10.609  12.682  0.00  0.00    +0.000 HD
ENDBRANCH  13  15
ENDBRANCH  10  11
ENDBRANCH   7  10
ENDBRANCH   1   2
BRANCH   1  18
ATOM     17  C   UNL     1      43.783   2.964  11.793  0.00  0.00    +0.000 C 
ATOM     18  C   UNL     1      44.435   4.140  11.026  0.00  0.00    +0.000 C 
ATOM     19  C   UNL     1      43.281   5.097  10.636  0.00  0.00    +0.000 C 
BRANCH  18  20
ATOM     20  C   UNL     1      45.169   3.678   9.758  0.00  0.00    +0.000 A 
ATOM     21  C   UNL     1      45.693   4.585   8.835  0.00  0.00    +0.000 A 
ATOM     22  C   UNL     1      46.341   4.114   7.693  0.00  0.00    +0.000 A 
ATOM     23  C   UNL     1      46.465   2.744   7.477  0.00  0.00    +0.000 A 
ATOM     24  C   UNL     1      45.899   1.907   8.424  0.00  0.00    +0.000 A 
ATOM     25  N   UNL     1      45.253   2.340   9.540  0.00  0.00    +0.000 NA
BRANCH  23  26
ATOM     26  C   UNL     1      47.188   2.269   6.272  0.00  0.00    +0.000 C 
ATOM     27  N   UNL     1      47.109   2.996   5.117  0.00  0.00    +0.000 N 
ATOM     28  O   UNL     1      47.846   1.235   6.296  0.00  0.00    +0.000 OA
ATOM     29  H   UNL     1      46.583   3.843   4.980  0.00  0.00    +0.000 HD
ATOM     30  H   UNL     1      47.604   2.619   4.318  0.00  0.00    +0.000 HD
ENDBRANCH  23  26
ENDBRANCH  18  20
ENDBRANCH   1  18
TORSDOF 7
ENDMDL
MODEL 5
REMARK VINA RESULT:    -6.853      2.283      8.881
REMARK INTER + INTRA:         -10.512
REMARK INTER:                  -9.512
REMARK INTRA:                  -1.001
REMARK UNBOUND:                -1.056
REMARK  Name = 
REMARK  9 active torsions:
REMARK  status: ('A' for Active; 'I' for Inactive)
REMARK    1  A    between atoms: C_1  and  C_2
REMARK    2  A    between atoms: C_2  and  C_3
REMARK    3  A    between atoms: C_2  and  C_4
REMARK    4  A    between atoms: C_2  and  C_18
REMARK    5  A    between atoms: C_4  and  N_5
REMARK    6  A    between atoms: C_10  and  O_11
REMARK    7  A    between atoms: O_11  and  C_12
REMARK    8  A    between atoms: C_14  and  O_15
REMARK    9  A    between atoms: C_21  and  C_22
REMARK                            x       y       z     vdW  Elec       q    Type
REMARK                         _______ _______ _______ _____ _____    ______ ____
ROOT
ATOM      1  C   UNL     1      47.192   7.359  11.759  0.00  0.00    +0.000 C 
ENDROOT
BRANCH   1   2
ATOM      2  N   UNL     1      46.257   6.284  12.067  0.00  0.00    +0.000 N 
ATOM      3  C   UNL     1      45.637   5.664  10.996  0.00  0.00    +0.000 A 
ATOM      4  N   UNL     1      44.401   5.213  11.262  0.00  0.00    +0.000 NA
ATOM      5  C   UNL     1      43.772   4.529  10.291  0.00  0.00    +0.000 A 
ATOM      6  C   UNL     1      44.327   4.286   9.066  0.00  0.00    +0.000 A 
ATOM      7  C   UNL     1      45.577   4.822   8.888  0.00  0.00    +0.000 A 
ATOM      8  N   UNL     1      46.255   5.514   9.820  0.00  0.00    +0.000 NA
ATOM      9  H   UNL     1      45.490   6.542  12.681  0.00  0.00    +0.000 HD
BRANCH   7  10
ATOM     10  O   UNL     1      46.159   4.613   7.650  0.00  0.00    +0.000 OA
BRANCH  10  11
ATOM     11  C   UNL     1      45.988   3.291   7.089  0.00  0.00    +0.000 C 
ATOM     12  C   UNL     1      47.001   2.213   7.555  0.00  0.00    +0.000 C 
ATOM     13  C   UNL     1      47.876   2.598   6.341  0.00  0.00    +0.000 C 
ATOM     14  C   UNL     1      46.587   3.121   5.671  0.00  0.00    +0.000 C 
BRANCH  13  15
ATOM     15  O   UNL     1      48.566   1.529   5.677  0.00  0.00    +0.000 OA
ATOM     16  H   UNL     1      48.286   1.567   4.745  0.00  0.00    +0.000 HD
ENDBRANCH  13  15
ENDBRANCH  10  11
ENDBRANCH   7  10
ENDBRANCH   1   2
BRANCH   1  18
ATOM     17  C   UNL     1      47.733   9.800  12.265  0.00  0.00    +0.000 C 
ATOM     18  C   UNL     1      47.123   8.493  12.826  0.00  0.00    +0.000 C 
ATOM     19  C   UNL     1      45.631   8.798  13.111  0.00  0.00    +0.000 C 
BRANCH  18  20
ATOM     20  C   UNL     1      47.809   8.035  14.122  0.00  0.00    +0.000 A 
ATOM     21  C   UNL     1      48.166   8.934  15.128  0.00  0.00    +0.000 A 
ATOM     22  C   UNL     1      48.798   8.468  16.282  0.00  0.00    +0.000 A 
ATOM     23  C   UNL     1      49.070   7.110  16.426  0.00  0.00    +0.000 A 
ATOM     24  C   UNL     1      48.709   6.283  15.376  0.00  0.00    +0.000 A 
ATOM     25  N   UNL     1      48.103   6.713  14.237  0.00  0.00    +0.000 NA
BRANCH  23  26
ATOM     26  C   UNL     1      49.712   6.636  17.677  0.00  0.00    +0.000 C 
ATOM     27  N   UNL     1      50.681   5.675  17.606  0.00  0.00    +0.000 N 
ATOM     28  O   UNL     1      49.382   7.089  18.767  0.00  0.00    +0.000 OA
ATOM     29  H   UNL     1      51.012   5.221  16.771  0.00  0.00    +0.000 HD
ATOM     30  H   UNL     1      51.074   5.372  18.490  0.00  0.00    +0.000 HD
ENDBRANCH  23  26
ENDBRANCH  18  20
ENDBRANCH   1  18
TORSDOF 7
ENDMDL
MODEL 6
REMARK VINA RESULT:    -6.656      3.868      8.507
REMARK INTER + INTRA:         -10.241
REMARK INTER:                  -9.325
REMARK INTRA:                  -0.916
REMARK UNBOUND:                -1.056
REMARK  Name = 
REMARK  9 active torsions:
REMARK  status: ('A' for Active; 'I' for Inactive)
REMARK    1  A    between atoms: C_1  and  C_2
REMARK    2  A    between atoms: C_2  and  C_3
REMARK    3  A    between atoms: C_2  and  C_4
REMARK    4  A    between atoms: C_2  and  C_18
REMARK    5  A    between atoms: C_4  and  N_5
REMARK    6  A    between atoms: C_10  and  O_11
REMARK    7  A    between atoms: O_11  and  C_12
REMARK    8  A    between atoms: C_14  and  O_15
REMARK    9  A    between atoms: C_21  and  C_22
REMARK                            x       y       z     vdW  Elec       q    Type
REMARK                         _______ _______ _______ _____ _____    ______ ____
ROOT
ATOM      1  C   UNL     1      47.142   4.282  16.459  0.00  0.00    +0.000 C 
ENDROOT
BRANCH   1   2
ATOM      2  N   UNL     1      47.368   3.657  15.162  0.00  0.00    +0.000 N 
ATOM      3  C   UNL     1      46.512   4.013  14.135  0.00  0.00    +0.000 A 
ATOM      4  N   UNL     1      46.292   3.039  13.238  0.00  0.00    +0.000 NA
ATOM      5  C   UNL     1      45.534   3.341  12.171  0.00  0.00    +0.000 A 
ATOM      6  C   UNL     1      44.984   4.576  11.970  0.00  0.00    +0.000 A 
ATOM      7  C   UNL     1      45.241   5.486  12.963  0.00  0.00    +0.000 A 
ATOM      8  N   UNL     1      45.990   5.241  14.052  0.00  0.00    +0.000 NA
ATOM      9  H   UNL     1      47.344   2.642  15.162  0.00  0.00    +0.000 HD
BRANCH   7  10
ATOM     10  O   UNL     1      44.680   6.740  12.800  0.00  0.00    +0.000 OA
BRANCH  10  11
ATOM     11  C   UNL     1      45.394   7.641  11.923  0.00  0.00    +0.000 C 
ATOM     12  C   UNL     1      46.198   8.774  12.610  0.00  0.00    +0.000 C 
ATOM     13  C   UNL     1      44.942   9.664  12.477  0.00  0.00    +0.000 C 
ATOM     14  C   UNL     1      44.513   8.756  11.305  0.00  0.00    +0.000 C 
BRANCH  13  15
ATOM     15  O   UNL     1      45.162  11.051  12.179  0.00  0.00    +0.000 OA
ATOM     16  H   UNL     1      44.789  11.196  11.291  0.00  0.00    +0.000 HD
ENDBRANCH  13  15
ENDBRANCH  10  11
ENDBRANCH   7  10
ENDBRANCH   1   2
BRANCH   1  18
ATOM     17  C   UNL     1      48.787   6.164  15.950  0.00  0.00    +0.000 C 
ATOM     18  C   UNL     1      48.410   5.045  16.950  0.00  0.00    +0.000 C 
ATOM     19  C   UNL     1      48.061   5.753  18.282  0.00  0.00    +0.000 C 
BRANCH  18  20
ATOM     20  C   UNL     1      49.560   4.053  17.181  0.00  0.00    +0.000 A 
ATOM     21  C   UNL     1      50.830   4.473  17.582  0.00  0.00    +0.000 A 
ATOM     22  C   UNL     1      51.844   3.533  17.768  0.00  0.00    +0.000 A 
ATOM     23  C   UNL     1      51.587   2.181  17.554  0.00  0.00    +0.000 A 
ATOM     24  C   UNL     1      50.312   1.843  17.134  0.00  0.00    +0.000 A 
ATOM     25  N   UNL     1      49.309   2.740  16.935  0.00  0.00    +0.000 NA
BRANCH  23  26
ATOM     26  C   UNL     1      52.674   1.199  17.791  0.00  0.00    +0.000 C 
ATOM     27  N   UNL     1      52.370  -0.013  18.345  0.00  0.00    +0.000 N 
ATOM     28  O   UNL     1      53.836   1.462  17.503  0.00  0.00    +0.000 OA
ATOM     29  H   UNL     1      51.458  -0.323  18.638  0.00  0.00    +0.000 HD
ATOM     30  H   UNL     1      53.150  -0.639  18.504  0.00  0.00    +0.000 HD
ENDBRANCH  23  26
ENDBRANCH  18  20
ENDBRANCH   1  18
TORSDOF 7
ENDMDL
MODEL 7
REMARK VINA RESULT:    -6.498      3.272      4.898
REMARK INTER + INTRA:         -10.023
REMARK INTER:                  -8.919
REMARK INTRA:                  -1.104
REMARK UNBOUND:                -1.056
REMARK  Name = 
REMARK  9 active torsions:
REMARK  status: ('A' for Active; 'I' for Inactive)
REMARK    1  A    between atoms: C_1  and  C_2
REMARK    2  A    between atoms: C_2  and  C_3
REMARK    3  A    between atoms: C_2  and  C_4
REMARK    4  A    between atoms: C_2  and  C_18
REMARK    5  A    between atoms: C_4  and  N_5
REMARK    6  A    between atoms: C_10  and  O_11
REMARK    7  A    between atoms: O_11  and  C_12
REMARK    8  A    between atoms: C_14  and  O_15
REMARK    9  A    between atoms: C_21  and  C_22
REMARK                            x       y       z     vdW  Elec       q    Type
REMARK                         _______ _______ _______ _____ _____    ______ ____
ROOT
ATOM      1  C   UNL     1      48.318   8.401  13.999  0.00  0.00    +0.000 C 
ENDROOT
BRANCH   1   2
ATOM      2  N   UNL     1      49.775   8.411  14.005  0.00  0.00    +0.000 N 
ATOM      3  C   UNL     1      50.404   7.711  15.019  0.00  0.00    +0.000 A 
ATOM      4  N   UNL     1      51.581   8.232  15.400  0.00  0.00    +0.000 NA
ATOM      5  C   UNL     1      52.284   7.557  16.325  0.00  0.00    +0.000 A 
ATOM      6  C   UNL     1      51.855   6.387  16.885  0.00  0.00    +0.000 A 
ATOM      7  C   UNL     1      50.625   5.962  16.451  0.00  0.00    +0.000 A 
ATOM      8  N   UNL     1      49.876   6.594  15.531  0.00  0.00    +0.000 NA
ATOM      9  H   UNL     1      50.199   9.333  14.042  0.00  0.00    +0.000 HD
BRANCH   7  10
ATOM     10  O   UNL     1      50.151   4.791  17.015  0.00  0.00    +0.000 OA
BRANCH  10  11
ATOM     11  C   UNL     1      48.928   4.909  17.778  0.00  0.00    +0.000 C 
ATOM     12  C   UNL     1      48.572   3.709  18.693  0.00  0.00    +0.000 C 
ATOM     13  C   UNL     1      47.762   3.127  17.512  0.00  0.00    +0.000 C 
ATOM     14  C   UNL     1      47.645   4.570  16.977  0.00  0.00    +0.000 C 
BRANCH  13  15
ATOM     15  O   UNL     1      46.537   2.454  17.839  0.00  0.00    +0.000 OA
ATOM     16  H   UNL     1      46.752   1.504  17.866  0.00  0.00    +0.000 HD
ENDBRANCH  13  15
ENDBRANCH  10  11
ENDBRANCH   7  10
ENDBRANCH   1   2
BRANCH   1  18
ATOM     17  C   UNL     1      46.965   9.481  12.125  0.00  0.00    +0.000 C 
ATOM     18  C   UNL     1      47.758   8.224  12.555  0.00  0.00    +0.000 C 
ATOM     19  C   UNL     1      48.958   8.113  11.582  0.00  0.00    +0.000 C 
BRANCH  18  20
ATOM     20  C   UNL     1      46.914   6.943  12.475  0.00  0.00    +0.000 A 
ATOM     21  C   UNL     1      47.166   5.839  13.292  0.00  0.00    +0.000 A 
ATOM     22  C   UNL     1      46.376   4.694  13.173  0.00  0.00    +0.000 A 
ATOM     23  C   UNL     1      45.342   4.656  12.241  0.00  0.00    +0.000 A 
ATOM     24  C   UNL     1      45.169   5.779  11.449  0.00  0.00    +0.000 A 
ATOM     25  N   UNL     1      45.930   6.902  11.538  0.00  0.00    +0.000 NA
BRANCH  23  26
ATOM     26  C   UNL     1      44.497   3.439  12.157  0.00  0.00    +0.000 C 
ATOM     27  N   UNL     1      44.629   2.608  11.081  0.00  0.00    +0.000 N 
ATOM     28  O   UNL     1      43.681   3.175  13.034  0.00  0.00    +0.000 OA
ATOM     29  H   UNL     1      45.248   2.739  10.298  0.00  0.00    +0.000 HD
ATOM     30  H   UNL     1      44.015   1.802  11.061  0.00  0.00    +0.000 HD
ENDBRANCH  23  26
ENDBRANCH  18  20
ENDBRANCH   1  18
TORSDOF 7
ENDMDL
MODEL 8
REMARK VINA RESULT:    -6.448      3.539      8.319
REMARK INTER + INTRA:          -9.954
REMARK INTER:                  -9.115
REMARK INTRA:                  -0.839
REMARK UNBOUND:                -1.056
REMARK  Name = 
REMARK  9 active torsions:
REMARK  status: ('A' for Active; 'I' for Inactive)
REMARK    1  A    between atoms: C_1  and  C_2
REMARK    2  A    between atoms: C_2  and  C_3
REMARK    3  A    between atoms: C_2  and  C_4
REMARK    4  A    between atoms: C_2  and  C_18
REMARK    5  A    between atoms: C_4  and  N_5
REMARK    6  A    between atoms: C_10  and  O_11
REMARK    7  A    between atoms: O_11  and  C_12
REMARK    8  A    between atoms: C_14  and  O_15
REMARK    9  A    between atoms: C_21  and  C_22
REMARK                            x       y       z     vdW  Elec       q    Type
REMARK                         _______ _______ _______ _____ _____    ______ ____
ROOT
ATOM      1  C   UNL     1      47.530   4.290  15.802  0.00  0.00    +0.000 C 
ENDROOT
BRANCH   1   2
ATOM      2  N   UNL     1      47.955   5.619  15.381  0.00  0.00    +0.000 N 
ATOM      3  C   UNL     1      47.593   6.021  14.108  0.00  0.00    +0.000 A 
ATOM      4  N   UNL     1      48.471   6.851  13.522  0.00  0.00    +0.000 NA
ATOM      5  C   UNL     1      48.143   7.344  12.316  0.00  0.00    +0.000 A 
ATOM      6  C   UNL     1      46.977   7.035  11.672  0.00  0.00    +0.000 A 
ATOM      7  C   UNL     1      46.170   6.152  12.342  0.00  0.00    +0.000 A 
ATOM      8  N   UNL     1      46.445   5.625  13.548  0.00  0.00    +0.000 NA
ATOM      9  H   UNL     1      48.957   5.782  15.416  0.00  0.00    +0.000 HD
BRANCH   7  10
ATOM     10  O   UNL     1      44.992   5.802  11.708  0.00  0.00    +0.000 OA
BRANCH  10  11
ATOM     11  C   UNL     1      45.016   4.552  10.980  0.00  0.00    +0.000 C 
ATOM     12  C   UNL     1      43.652   4.044  10.445  0.00  0.00    +0.000 C 
ATOM     13  C   UNL     1      43.497   3.255  11.765  0.00  0.00    +0.000 C 
ATOM     14  C   UNL     1      45.036   3.292  11.882  0.00  0.00    +0.000 C 
BRANCH  13  15
ATOM     15  O   UNL     1      42.883   1.961  11.676  0.00  0.00    +0.000 OA
ATOM     16  H   UNL     1      42.185   2.041  11.000  0.00  0.00    +0.000 HD
ENDBRANCH  13  15
ENDBRANCH  10  11
ENDBRANCH   7  10
ENDBRANCH   1   2
BRANCH   1  18
ATOM     17  C   UNL     1      47.405   5.217  18.175  0.00  0.00    +0.000 C 
ATOM     18  C   UNL     1      47.876   4.031  17.300  0.00  0.00    +0.000 C 
ATOM     19  C   UNL     1      47.073   2.795  17.774  0.00  0.00    +0.000 C 
BRANCH  18  20
ATOM     20  C   UNL     1      49.380   3.754  17.449  0.00  0.00    +0.000 A 
ATOM     21  C   UNL     1      49.903   2.461  17.381  0.00  0.00    +0.000 A 
ATOM     22  C   UNL     1      51.276   2.261  17.534  0.00  0.00    +0.000 A 
ATOM     23  C   UNL     1      52.118   3.349  17.752  0.00  0.00    +0.000 A 
ATOM     24  C   UNL     1      51.523   4.597  17.832  0.00  0.00    +0.000 A 
ATOM     25  N   UNL     1      50.188   4.817  17.698  0.00  0.00    +0.000 NA
BRANCH  23  26
ATOM     26  C   UNL     1      53.577   3.112  17.879  0.00  0.00    +0.000 C 
ATOM     27  N   UNL     1      54.348   4.031  18.534  0.00  0.00    +0.000 N 
ATOM     28  O   UNL     1      54.098   2.111  17.399  0.00  0.00    +0.000 OA
ATOM     29  H   UNL     1      54.030   4.893  18.944  0.00  0.00    +0.000 HD
ATOM     30  H   UNL     1      55.341   3.832  18.575  0.00  0.00    +0.000 HD
ENDBRANCH  23  26
ENDBRANCH  18  20
ENDBRANCH   1  18
TORSDOF 7
ENDMDL
MODEL 9
REMARK VINA RESULT:    -6.342      2.752      4.428
REMARK INTER + INTRA:          -9.808
REMARK INTER:                  -9.095
REMARK INTRA:                  -0.712
REMARK UNBOUND:                -1.056
REMARK  Name = 
REMARK  9 active torsions:
REMARK  status: ('A' for Active; 'I' for Inactive)
REMARK    1  A    between atoms: C_1  and  C_2
REMARK    2  A    between atoms: C_2  and  C_3
REMARK    3  A    between atoms: C_2  and  C_4
REMARK    4  A    between atoms: C_2  and  C_18
REMARK    5  A    between atoms: C_4  and  N_5
REMARK    6  A    between atoms: C_10  and  O_11
REMARK    7  A    between atoms: O_11  and  C_12
REMARK    8  A    between atoms: C_14  and  O_15
REMARK    9  A    between atoms: C_21  and  C_22
REMARK                            x       y       z     vdW  Elec       q    Type
REMARK                         _______ _______ _______ _____ _____    ______ ____
ROOT
ATOM      1  C   UNL     1      48.108   7.097  13.814  0.00  0.00    +0.000 C 
ENDROOT
BRANCH   1   2
ATOM      2  N   UNL     1      48.474   8.298  14.554  0.00  0.00    +0.000 N 
ATOM      3  C   UNL     1      48.563   8.186  15.930  0.00  0.00    +0.000 A 
ATOM      4  N   UNL     1      48.244   9.307  16.596  0.00  0.00    +0.000 NA
ATOM      5  C   UNL     1      48.385   9.293  17.932  0.00  0.00    +0.000 A 
ATOM      6  C   UNL     1      48.827   8.201  18.627  0.00  0.00    +0.000 A 
ATOM      7  C   UNL     1      49.089   7.099  17.854  0.00  0.00    +0.000 A 
ATOM      8  N   UNL     1      48.966   7.053  16.516  0.00  0.00    +0.000 NA
ATOM      9  H   UNL     1      47.863   9.096  14.411  0.00  0.00    +0.000 HD
BRANCH   7  10
ATOM     10  O   UNL     1      49.517   5.970  18.529  0.00  0.00    +0.000 OA
BRANCH  10  11
ATOM     11  C   UNL     1      48.488   5.214  19.208  0.00  0.00    +0.000 C 
ATOM     12  C   UNL     1      48.530   3.676  19.019  0.00  0.00    +0.000 C 
ATOM     13  C   UNL     1      47.580   3.859  17.814  0.00  0.00    +0.000 C 
ATOM     14  C   UNL     1      47.128   5.184  18.466  0.00  0.00    +0.000 C 
BRANCH  13  15
ATOM     15  O   UNL     1      46.574   2.852  17.626  0.00  0.00    +0.000 OA
ATOM     16  H   UNL     1      47.035   2.079  17.253  0.00  0.00    +0.000 HD
ENDBRANCH  13  15
ENDBRANCH  10  11
ENDBRANCH   7  10
ENDBRANCH   1   2
BRANCH   1  18
ATOM     17  C   UNL     1      46.584   8.765  12.628  0.00  0.00    +0.000 C 
ATOM     18  C   UNL     1      47.389   7.452  12.477  0.00  0.00    +0.000 C 
ATOM     19  C   UNL     1      48.472   7.728  11.405  0.00  0.00    +0.000 C 
BRANCH  18  20
ATOM     20  C   UNL     1      46.511   6.275  12.027  0.00  0.00    +0.000 A 
ATOM     21  C   UNL     1      46.002   6.185  10.730  0.00  0.00    +0.000 A 
ATOM     22  C   UNL     1      45.200   5.100  10.374  0.00  0.00    +0.000 A 
ATOM     23  C   UNL     1      44.909   4.112  11.312  0.00  0.00    +0.000 A 
ATOM     24  C   UNL     1      45.427   4.283  12.585  0.00  0.00    +0.000 A 
ATOM     25  N   UNL     1      46.203   5.336  12.960  0.00  0.00    +0.000 NA
BRANCH  23  26
ATOM     26  C   UNL     1      44.080   2.953  10.899  0.00  0.00    +0.000 C 
ATOM     27  N   UNL     1      44.517   2.148   9.885  0.00  0.00    +0.000 N 
ATOM     28  O   UNL     1      43.010   2.714  11.449  0.00  0.00    +0.000 OA
ATOM     29  H   UNL     1      45.363   2.264   9.353  0.00  0.00    +0.000 HD
ATOM     30  H   UNL     1      43.905   1.383   9.628  0.00  0.00    +0.000 HD
ENDBRANCH  23  26
ENDBRANCH  18  20
ENDBRANCH   1  18
TORSDOF 7
ENDMDL
