MODEL 1
REMARK VINA RESULT:    -7.296      0.000      0.000
REMARK INTER + INTRA:         -10.220
REMARK INTER:                  -9.642
REMARK INTRA:                  -0.578
REMARK UNBOUND:                -0.578
REMARK  Name = 
REMARK  6 active torsions:
REMARK  status: ('A' for Active; 'I' for Inactive)
REMARK    1  A    between atoms: N_1  and  C_2
REMARK    2  A    between atoms: C_2  and  C_3
REMARK    3  A    between atoms: C_3  and  O_4
REMARK    4  A    between atoms: O_4  and  C_5
REMARK    5  A    between atoms: N_13  and  C_14
REMARK    6  A    between atoms: C_14  and  C_15
REMARK                            x       y       z     vdW  Elec       q    Type
REMARK                         _______ _______ _______ _____ _____    ______ ____
ROOT
ATOM      1  C   UNL     1      47.061   4.402  14.438  0.00  0.00    +0.000 A 
ATOM      2  C   UNL     1      46.763   3.286  13.653  0.00  0.00    +0.000 A 
ATOM      3  N   UNL     1      45.987   3.302  12.544  0.00  0.00    +0.000 NA
ATOM      4  C   UNL     1      45.475   4.490  12.210  0.00  0.00    +0.000 A 
ATOM      5  C   UNL     1      45.682   5.647  12.948  0.00  0.00    +0.000 A 
ATOM      6  C   UNL     1      46.495   5.621  14.071  0.00  0.00    +0.000 A 
ATOM      7  C   UNL     1      44.948   6.785  12.330  0.00  0.00    +0.000 C 
ATOM      8  C   UNL     1      44.219   6.093  11.148  0.00  0.00    +0.000 C 
ATOM      9  N   UNL     1      44.738   4.737  11.058  0.00  0.00    +0.000 N 
ENDROOT
BRANCH   1  10
ATOM     10  O   UNL     1      47.869   4.420  15.542  0.00  0.00    +0.000 OA
BRANCH  10  11
ATOM     11  C   UNL     1      47.567   3.441  16.542  0.00  0.00    +0.000 C 
BRANCH  11  12
ATOM     12  C   UNL     1      48.870   2.789  17.015  0.00  0.00    +0.000 C 
BRANCH  12  13
ATOM     13  N   UNL     1      49.362   1.806  16.051  0.00  0.00    +0.000 NA
ATOM     14  H   UNL     1      49.375   0.886  16.493  0.00  0.00    +0.000 HD
ATOM     15  H   UNL     1      50.326   2.014  15.805  0.00  0.00    +0.000 HD
ENDBRANCH  12  13
ENDBRANCH  11  12
ENDBRANCH  10  11
ENDBRANCH   1  10
BRANCH   9  16
ATOM     16  C   UNL     1      44.125   3.652  10.326  0.00  0.00    +0.000 C 
BRANCH  16  17
ATOM     17  C   UNL     1      45.028   3.196   9.198  0.00  0.00    +0.000 A 
ATOM     18  C   UNL     1      45.570   4.132   8.300  0.00  0.00    +0.000 A 
ATOM     19  C   UNL     1      46.405   3.722   7.259  0.00  0.00    +0.000 A 
ATOM     20  C   UNL     1      46.726   2.374   7.116  0.00  0.00    +0.000 A 
ATOM     21  C   UNL     1      46.221   1.439   8.017  0.00  0.00    +0.000 A 
ATOM     22  C   UNL     1      45.376   1.847   9.054  0.00  0.00    +0.000 A 
ENDBRANCH  16  17
ENDBRANCH   9  16
TORSDOF 6
ENDMDL
MODEL 2
REMARK VINA RESULT:    -7.086      1.267      1.308
REMARK INTER + INTRA:          -9.943
REMARK INTER:                  -9.413
REMARK INTRA:                  -0.529
REMARK UNBOUND:                -0.578
REMARK  Name = 
REMARK  6 active torsions:
REMARK  status: ('A' for Active; 'I' for Inactive)
REMARK    1  A    between atoms: N_1  and  C_2
REMARK    2  A    between atoms: C_2  and  C_3
REMARK    3  A    between atoms: C_3  and  O_4
REMARK    4  A    between atoms: O_4  and  C_5
REMARK    5  A    between atoms: N_13  and  C_14
REMARK    6  A    between atoms: C_14  and  C_15
REMARK                            x       y       z     vdW  Elec       q    Type
REMARK                         _______ _______ _______ _____ _____    ______ ____
ROOT
ATOM      1  C   UNL     1      47.176   4.527  14.571  0.00  0.00    +0.000 A 
ATOM      2  C   UNL     1      46.771   3.420  13.822  0.00  0.00    +0.000 A 
ATOM      3  N   UNL     1      46.008   3.477  12.704  0.00  0.00    +0.000 NA
ATOM      4  C   UNL     1      45.622   4.699  12.326  0.00  0.00    +0.000 A 
ATOM      5  C   UNL     1      45.940   5.853  13.027  0.00  0.00    +0.000 A 
ATOM      6  C   UNL     1      46.739   5.784  14.158  0.00  0.00    +0.000 A 
ATOM      7  C   UNL     1      45.330   7.038  12.363  0.00  0.00    +0.000 C 
ATOM      8  C   UNL     1      44.543   6.383  11.198  0.00  0.00    +0.000 C 
ATOM      9  N   UNL     1      44.921   4.979  11.159  0.00  0.00    +0.000 N 
ENDROOT
BRANCH   1  10
ATOM     10  O   UNL     1      47.974   4.501  15.683  0.00  0.00    +0.000 OA
BRANCH  10  11
ATOM     11  C   UNL     1      47.429   3.819  16.817  0.00  0.00    +0.000 C 
BRANCH  11  12
ATOM     12  C   UNL     1      47.713   4.638  18.079  0.00  0.00    +0.000 C 
BRANCH  12  13
ATOM     13  N   UNL     1      46.512   5.313  18.568  0.00  0.00    +0.000 NA
ATOM     14  H   UNL     1      46.754   5.868  19.389  0.00  0.00    +0.000 HD
ATOM     15  H   UNL     1      45.832   4.626  18.883  0.00  0.00    +0.000 HD
ENDBRANCH  12  13
ENDBRANCH  11  12
ENDBRANCH  10  11
ENDBRANCH   1  10
BRANCH   9  16
ATOM     16  C   UNL     1      44.207   3.938  10.457  0.00  0.00    +0.000 C 
BRANCH  16  17
ATOM     17  C   UNL     1      45.051   3.381   9.329  0.00  0.00    +0.000 A 
ATOM     18  C   UNL     1      45.659   4.247   8.404  0.00  0.00    +0.000 A 
ATOM     19  C   UNL     1      46.442   3.744   7.363  0.00  0.00    +0.000 A 
ATOM     20  C   UNL     1      46.643   2.371   7.246  0.00  0.00    +0.000 A 
ATOM     21  C   UNL     1      46.071   1.502   8.174  0.00  0.00    +0.000 A 
ATOM     22  C   UNL     1      45.279   2.004   9.211  0.00  0.00    +0.000 A 
ENDBRANCH  16  17
ENDBRANCH   9  16
TORSDOF 6
ENDMDL
MODEL 3
REMARK VINA RESULT:    -6.936      2.625      3.279
REMARK INTER + INTRA:          -9.743
REMARK INTER:                  -9.467
REMARK INTRA:                  -0.276
REMARK UNBOUND:                -0.578
REMARK  Name = 
REMARK  6 active torsions:
REMARK  status: ('A' for Active; 'I' for Inactive)
REMARK    1  A    between atoms: N_1  and  C_2
REMARK    2  A    between atoms: C_2  and  C_3
REMARK    3  A    between atoms: C_3  and  O_4
REMARK    4  A    between atoms: O_4  and  C_5
REMARK    5  A    between atoms: N_13  and  C_14
REMARK    6  A    between atoms: C_14  and  C_15
REMARK                            x       y       z     vdW  Elec       q    Type
REMARK                         _______ _______ _______ _____ _____    ______ ____
ROOT
ATOM      1  C   UNL     1      46.820   6.182  12.747  0.00  0.00    +0.000 A 
ATOM      2  C   UNL     1      46.732   6.517  11.393  0.00  0.00    +0.000 A 
ATOM      3  N   UNL     1      45.953   5.880  10.486  0.00  0.00    +0.000 NA
ATOM      4  C   UNL     1      45.238   4.853  10.953  0.00  0.00    +0.000 A 
ATOM      5  C   UNL     1      45.290   4.421  12.271  0.00  0.00    +0.000 A 
ATOM      6  C   UNL     1      46.075   5.094  13.194  0.00  0.00    +0.000 A 
ATOM      7  C   UNL     1      44.405   3.238  12.455  0.00  0.00    +0.000 C 
ATOM      8  C   UNL     1      43.880   3.001  11.014  0.00  0.00    +0.000 C 
ATOM      9  N   UNL     1      44.309   4.135  10.210  0.00  0.00    +0.000 N 
ENDROOT
BRANCH   1  10
ATOM     10  O   UNL     1      47.571   6.829  13.690  0.00  0.00    +0.000 OA
BRANCH  10  11
ATOM     11  C   UNL     1      48.491   7.802  13.185  0.00  0.00    +0.000 C 
BRANCH  11  12
ATOM     12  C   UNL     1      48.323   9.107  13.968  0.00  0.00    +0.000 C 
BRANCH  12  13
ATOM     13  N   UNL     1      47.509   8.916  15.168  0.00  0.00    +0.000 NA
ATOM     14  H   UNL     1      47.780   9.608  15.866  0.00  0.00    +0.000 HD
ATOM     15  H   UNL     1      47.707   8.008  15.580  0.00  0.00    +0.000 HD
ENDBRANCH  12  13
ENDBRANCH  11  12
ENDBRANCH  10  11
ENDBRANCH   1  10
BRANCH   9  16
ATOM     16  C   UNL     1      44.324   4.180   8.765  0.00  0.00    +0.000 C 
BRANCH  16  17
ATOM     17  C   UNL     1      45.400   3.266   8.216  0.00  0.00    +0.000 A 
ATOM     18  C   UNL     1      46.429   3.785   7.411  0.00  0.00    +0.000 A 
ATOM     19  C   UNL     1      47.427   2.951   6.903  0.00  0.00    +0.000 A 
ATOM     20  C   UNL     1      47.421   1.593   7.211  0.00  0.00    +0.000 A 
ATOM     21  C   UNL     1      46.424   1.070   8.034  0.00  0.00    +0.000 A 
ATOM     22  C   UNL     1      45.419   1.902   8.535  0.00  0.00    +0.000 A 
ENDBRANCH  16  17
ENDBRANCH   9  16
TORSDOF 6
ENDMDL
MODEL 4
REMARK VINA RESULT:    -6.824      3.188      6.406
REMARK INTER + INTRA:          -9.596
REMARK INTER:                  -9.302
REMARK INTRA:                  -0.294
REMARK UNBOUND:                -0.578
REMARK  Name = 
REMARK  6 active torsions:
REMARK  status: ('A' for Active; 'I' for Inactive)
REMARK    1  A    between atoms: N_1  and  C_2
REMARK    2  A    between atoms: C_2  and  C_3
REMARK    3  A    between atoms: C_3  and  O_4
REMARK    4  A    between atoms: O_4  and  C_5
REMARK    5  A    between atoms: N_13  and  C_14
REMARK    6  A    between atoms: C_14  and  C_15
REMARK                            x       y       z     vdW  Elec       q    Type
REMARK                         _______ _______ _______ _____ _____    ______ ____
ROOT
ATOM      1  C   UNL     1      45.230   3.463   8.381  0.00  0.00    +0.000 A 
ATOM      2  C   UNL     1      45.640   4.743   8.763  0.00  0.00    +0.000 A 
ATOM      3  N   UNL     1      45.406   5.304   9.972  0.00  0.00    +0.000 NA
ATOM      4  C   UNL     1      44.717   4.554  10.838  0.00  0.00    +0.000 A 
ATOM      5  C   UNL     1      44.234   3.289  10.537  0.00  0.00    +0.000 A 
ATOM      6  C   UNL     1      44.498   2.717   9.302  0.00  0.00    +0.000 A 
ATOM      7  C   UNL     1      43.483   2.740  11.700  0.00  0.00    +0.000 C 
ATOM      8  C   UNL     1      43.543   3.919  12.707  0.00  0.00    +0.000 C 
ATOM      9  N   UNL     1      44.459   4.907  12.157  0.00  0.00    +0.000 N 
ENDROOT
BRANCH   1  10
ATOM     10  O   UNL     1      45.483   2.859   7.180  0.00  0.00    +0.000 OA
BRANCH  10  11
ATOM     11  C   UNL     1      46.720   3.222   6.556  0.00  0.00    +0.000 C 
BRANCH  11  12
ATOM     12  C   UNL     1      47.767   2.146   6.855  0.00  0.00    +0.000 C 
BRANCH  12  13
ATOM     13  N   UNL     1      48.559   1.819   5.670  0.00  0.00    +0.000 NA
ATOM     14  H   UNL     1      49.406   1.330   5.962  0.00  0.00    +0.000 HD
ATOM     15  H   UNL     1      48.870   2.673   5.215  0.00  0.00    +0.000 HD
ENDBRANCH  12  13
ENDBRANCH  11  12
ENDBRANCH  10  11
ENDBRANCH   1  10
BRANCH   9  16
ATOM     16  C   UNL     1      44.567   6.281  12.590  0.00  0.00    +0.000 C 
BRANCH  16  17
ATOM     17  C   UNL     1      46.021   6.703  12.659  0.00  0.00    +0.000 A 
ATOM     18  C   UNL     1      46.422   7.953  12.157  0.00  0.00    +0.000 A 
ATOM     19  C   UNL     1      47.759   8.351  12.219  0.00  0.00    +0.000 A 
ATOM     20  C   UNL     1      48.707   7.515  12.803  0.00  0.00    +0.000 A 
ATOM     21  C   UNL     1      48.318   6.285  13.333  0.00  0.00    +0.000 A 
ATOM     22  C   UNL     1      46.982   5.881  13.262  0.00  0.00    +0.000 A 
ENDBRANCH  16  17
ENDBRANCH   9  16
TORSDOF 6
ENDMDL
MODEL 5
REMARK VINA RESULT:    -6.223      1.465      2.298
REMARK INTER + INTRA:          -8.802
REMARK INTER:                  -8.417
REMARK INTRA:                  -0.385
REMARK UNBOUND:                -0.578
REMARK  Name = 
REMARK  6 active torsions:
REMARK  status: ('A' for Active; 'I' for Inactive)
REMARK    1  A    between atoms: N_1  and  C_2
REMARK    2  A    between atoms: C_2  and  C_3
REMARK    3  A    between atoms: C_3  and  O_4
REMARK    4  A    between atoms: O_4  and  C_5
REMARK    5  A    between atoms: N_13  and  C_14
REMARK    6  A    between atoms: C_14  and  C_15
REMARK                            x       y       z     vdW  Elec       q    Type
REMARK                         _______ _______ _______ _____ _____    ______ ____
ROOT
ATOM      1  C   UNL     1      48.100   4.962  15.962  0.00  0.00    +0.000 A 
ATOM      2  C   UNL     1      47.034   4.158  15.550  0.00  0.00    +0.000 A 
ATOM      3  N   UNL     1      46.321   4.340  14.413  0.00  0.00    +0.000 NA
ATOM      4  C   UNL     1      46.683   5.381  13.659  0.00  0.00    +0.000 A 
ATOM      5  C   UNL     1      47.702   6.258  14.005  0.00  0.00    +0.000 A 
ATOM      6  C   UNL     1      48.438   6.050  15.161  0.00  0.00    +0.000 A 
ATOM      7  C   UNL     1      47.828   7.325  12.974  0.00  0.00    +0.000 C 
ATOM      8  C   UNL     1      46.671   6.972  12.003  0.00  0.00    +0.000 C 
ATOM      9  N   UNL     1      46.145   5.680  12.414  0.00  0.00    +0.000 N 
ENDROOT
BRANCH   1  10
ATOM     10  O   UNL     1      48.859   4.781  17.087  0.00  0.00    +0.000 OA
BRANCH  10  11
ATOM     11  C   UNL     1      48.767   3.486  17.690  0.00  0.00    +0.000 C 
BRANCH  11  12
ATOM     12  C   UNL     1      50.001   2.665  17.308  0.00  0.00    +0.000 C 
BRANCH  12  13
ATOM     13  N   UNL     1      49.723   1.758  16.195  0.00  0.00    +0.000 NA
ATOM     14  H   UNL     1      48.781   1.381  16.302  0.00  0.00    +0.000 HD
ATOM     15  H   UNL     1      50.351   0.961  16.232  0.00  0.00    +0.000 HD
ENDBRANCH  12  13
ENDBRANCH  11  12
ENDBRANCH  10  11
ENDBRANCH   1  10
BRANCH   9  16
ATOM     16  C   UNL     1      44.875   5.124  12.004  0.00  0.00    +0.000 C 
BRANCH  16  17
ATOM     17  C   UNL     1      45.022   4.368  10.700  0.00  0.00    +0.000 A 
ATOM     18  C   UNL     1      44.637   3.019  10.614  0.00  0.00    +0.000 A 
ATOM     19  C   UNL     1      44.766   2.314   9.415  0.00  0.00    +0.000 A 
ATOM     20  C   UNL     1      45.262   2.956   8.282  0.00  0.00    +0.000 A 
ATOM     21  C   UNL     1      45.620   4.302   8.345  0.00  0.00    +0.000 A 
ATOM     22  C   UNL     1      45.500   5.005   9.547  0.00  0.00    +0.000 A 
ENDBRANCH  16  17
ENDBRANCH   9  16
TORSDOF 6
ENDMDL
MODEL 6
REMARK VINA RESULT:    -5.931      2.791      3.903
REMARK INTER + INTRA:          -8.415
REMARK INTER:                  -8.031
REMARK INTRA:                  -0.385
REMARK UNBOUND:                -0.578
REMARK  Name = 
REMARK  6 active torsions:
REMARK  status: ('A' for Active; 'I' for Inactive)
REMARK    1  A    between atoms: N_1  and  C_2
REMARK    2  A    between atoms: C_2  and  C_3
REMARK    3  A    between atoms: C_3  and  O_4
REMARK    4  A    between atoms: O_4  and  C_5
REMARK    5  A    between atoms: N_13  and  C_14
REMARK    6  A    between atoms: C_14  and  C_15
REMARK                            x       y       z     vdW  Elec       q    Type
REMARK                         _______ _______ _______ _____ _____    ______ ____
ROOT
ATOM      1  C   UNL     1      47.598   7.511  13.125  0.00  0.00    +0.000 A 
ATOM      2  C   UNL     1      46.660   7.717  12.110  0.00  0.00    +0.000 A 
ATOM      3  N   UNL     1      45.812   6.774  11.636  0.00  0.00    +0.000 NA
ATOM      4  C   UNL     1      45.915   5.565  12.195  0.00  0.00    +0.000 A 
ATOM      5  C   UNL     1      46.842   5.254  13.180  0.00  0.00    +0.000 A 
ATOM      6  C   UNL     1      47.691   6.233  13.671  0.00  0.00    +0.000 A 
ATOM      7  C   UNL     1      46.719   3.820  13.561  0.00  0.00    +0.000 C 
ATOM      8  C   UNL     1      45.617   3.322  12.589  0.00  0.00    +0.000 C 
ATOM      9  N   UNL     1      45.074   4.493  11.919  0.00  0.00    +0.000 N 
ENDROOT
BRANCH   1  10
ATOM     10  O   UNL     1      48.443   8.453  13.646  0.00  0.00    +0.000 OA
BRANCH  10  11
ATOM     11  C   UNL     1      48.166   8.850  14.993  0.00  0.00    +0.000 C 
BRANCH  11  12
ATOM     12  C   UNL     1      48.973  10.109  15.321  0.00  0.00    +0.000 C 
BRANCH  12  13
ATOM     13  N   UNL     1      48.518  11.261  14.543  0.00  0.00    +0.000 NA
ATOM     14  H   UNL     1      49.200  12.014  14.636  0.00  0.00    +0.000 HD
ATOM     15  H   UNL     1      47.649  11.618  14.929  0.00  0.00    +0.000 HD
ENDBRANCH  12  13
ENDBRANCH  11  12
ENDBRANCH  10  11
ENDBRANCH   1  10
BRANCH   9  16
ATOM     16  C   UNL     1      44.269   4.474  10.719  0.00  0.00    +0.000 C 
BRANCH  16  17
ATOM     17  C   UNL     1      45.012   3.787   9.592  0.00  0.00    +0.000 A 
ATOM     18  C   UNL     1      45.018   2.384   9.496  0.00  0.00    +0.000 A 
ATOM     19  C   UNL     1      45.698   1.742   8.459  0.00  0.00    +0.000 A 
ATOM     20  C   UNL     1      46.362   2.494   7.493  0.00  0.00    +0.000 A 
ATOM     21  C   UNL     1      46.339   3.887   7.558  0.00  0.00    +0.000 A 
ATOM     22  C   UNL     1      45.668   4.530   8.601  0.00  0.00    +0.000 A 
ENDBRANCH  16  17
ENDBRANCH   9  16
TORSDOF 6
ENDMDL
MODEL 7
REMARK VINA RESULT:    -5.580      2.421      7.557
REMARK INTER + INTRA:          -7.953
REMARK INTER:                  -7.586
REMARK INTRA:                  -0.366
REMARK UNBOUND:                -0.578
REMARK  Name = 
REMARK  6 active torsions:
REMARK  status: ('A' for Active; 'I' for Inactive)
REMARK    1  A    between atoms: N_1  and  C_2
REMARK    2  A    between atoms: C_2  and  C_3
REMARK    3  A    between atoms: C_3  and  O_4
REMARK    4  A    between atoms: O_4  and  C_5
REMARK    5  A    between atoms: N_13  and  C_14
REMARK    6  A    between atoms: C_14  and  C_15
REMARK                            x       y       z     vdW  Elec       q    Type
REMARK                         _______ _______ _______ _____ _____    ______ ____
ROOT
ATOM      1  C   UNL     1      45.222   5.044  11.474  0.00  0.00    +0.000 A 
ATOM      2  C   UNL     1      45.096   3.993  12.386  0.00  0.00    +0.000 A 
ATOM      3  N   UNL     1      45.772   3.896  13.555  0.00  0.00    +0.000 NA
ATOM      4  C   UNL     1      46.623   4.892  13.820  0.00  0.00    +0.000 A 
ATOM      5  C   UNL     1      46.845   5.956  12.958  0.00  0.00    +0.000 A 
ATOM      6  C   UNL     1      46.132   6.055  11.773  0.00  0.00    +0.000 A 
ATOM      7  C   UNL     1      47.874   6.869  13.530  0.00  0.00    +0.000 C 
ATOM      8  C   UNL     1      48.270   6.129  14.834  0.00  0.00    +0.000 C 
ATOM      9  N   UNL     1      47.335   5.029  15.005  0.00  0.00    +0.000 N 
ENDROOT
BRANCH   1  10
ATOM     10  O   UNL     1      44.528   5.184  10.303  0.00  0.00    +0.000 OA
BRANCH  10  11
ATOM     11  C   UNL     1      44.149   3.962   9.661  0.00  0.00    +0.000 C 
BRANCH  11  12
ATOM     12  C   UNL     1      44.856   3.867   8.306  0.00  0.00    +0.000 C 
BRANCH  12  13
ATOM     13  N   UNL     1      45.908   4.874   8.174  0.00  0.00    +0.000 NA
ATOM     14  H   UNL     1      46.049   5.327   9.078  0.00  0.00    +0.000 HD
ATOM     15  H   UNL     1      45.609   5.606   7.536  0.00  0.00    +0.000 HD
ENDBRANCH  12  13
ENDBRANCH  11  12
ENDBRANCH  10  11
ENDBRANCH   1  10
BRANCH   9  16
ATOM     16  C   UNL     1      47.519   3.902  15.891  0.00  0.00    +0.000 C 
BRANCH  16  17
ATOM     17  C   UNL     1      48.082   4.359  17.222  0.00  0.00    +0.000 A 
ATOM     18  C   UNL     1      47.283   5.090  18.117  0.00  0.00    +0.000 A 
ATOM     19  C   UNL     1      47.792   5.513  19.347  0.00  0.00    +0.000 A 
ATOM     20  C   UNL     1      49.099   5.192  19.705  0.00  0.00    +0.000 A 
ATOM     21  C   UNL     1      49.894   4.441  18.839  0.00  0.00    +0.000 A 
ATOM     22  C   UNL     1      49.388   4.026  17.604  0.00  0.00    +0.000 A 
ENDBRANCH  16  17
ENDBRANCH   9  16
TORSDOF 6
ENDMDL
MODEL 8
REMARK VINA RESULT:    -5.338      3.558      6.477
REMARK INTER + INTRA:          -7.632
REMARK INTER:                  -7.062
REMARK INTRA:                  -0.570
REMARK UNBOUND:                -0.578
REMARK  Name = 
REMARK  6 active torsions:
REMARK  status: ('A' for Active; 'I' for Inactive)
REMARK    1  A    between atoms: N_1  and  C_2
REMARK    2  A    between atoms: C_2  and  C_3
REMARK    3  A    between atoms: C_3  and  O_4
REMARK    4  A    between atoms: O_4  and  C_5
REMARK    5  A    between atoms: N_13  and  C_14
REMARK    6  A    between atoms: C_14  and  C_15
REMARK                            x       y       z     vdW  Elec       q    Type
REMARK                         _______ _______ _______ _____ _____    ______ ____
ROOT
ATOM      1  C   UNL     1      44.824   4.155  10.933  0.00  0.00    +0.000 A 
ATOM      2  C   UNL     1      45.219   5.458  10.619  0.00  0.00    +0.000 A 
ATOM      3  N   UNL     1      46.039   6.223  11.377  0.00  0.00    +0.000 NA
ATOM      4  C   UNL     1      46.477   5.662  12.508  0.00  0.00    +0.000 A 
ATOM      5  C   UNL     1      46.108   4.391  12.924  0.00  0.00    +0.000 A 
ATOM      6  C   UNL     1      45.284   3.609  12.129  0.00  0.00    +0.000 A 
ATOM      7  C   UNL     1      46.737   4.081  14.237  0.00  0.00    +0.000 C 
ATOM      8  C   UNL     1      47.478   5.405  14.559  0.00  0.00    +0.000 C 
ATOM      9  N   UNL     1      47.399   6.241  13.371  0.00  0.00    +0.000 N 
ENDROOT
BRANCH   1  10
ATOM     10  O   UNL     1      44.025   3.348  10.169  0.00  0.00    +0.000 OA
BRANCH  10  11
ATOM     11  C   UNL     1      44.512   3.066   8.853  0.00  0.00    +0.000 C 
BRANCH  11  12
ATOM     12  C   UNL     1      45.146   1.672   8.841  0.00  0.00    +0.000 C 
BRANCH  12  13
ATOM     13  N   UNL     1      46.398   1.655   8.085  0.00  0.00    +0.000 NA
ATOM     14  H   UNL     1      47.170   1.467   8.726  0.00  0.00    +0.000 HD
ATOM     15  H   UNL     1      46.578   2.574   7.691  0.00  0.00    +0.000 HD
ENDBRANCH  12  13
ENDBRANCH  11  12
ENDBRANCH  10  11
ENDBRANCH   1  10
BRANCH   9  16
ATOM     16  C   UNL     1      47.665   7.661  13.326  0.00  0.00    +0.000 C 
BRANCH  16  17
ATOM     17  C   UNL     1      49.095   7.921  12.900  0.00  0.00    +0.000 A 
ATOM     18  C   UNL     1      49.481   7.739  11.561  0.00  0.00    +0.000 A 
ATOM     19  C   UNL     1      50.796   7.979  11.158  0.00  0.00    +0.000 A 
ATOM     20  C   UNL     1      51.736   8.425  12.084  0.00  0.00    +0.000 A 
ATOM     21  C   UNL     1      51.360   8.639  13.410  0.00  0.00    +0.000 A 
ATOM     22  C   UNL     1      50.046   8.389  13.816  0.00  0.00    +0.000 A 
ENDBRANCH  16  17
ENDBRANCH   9  16
TORSDOF 6
ENDMDL
MODEL 9
REMARK VINA RESULT:    -5.273      3.580      7.731
REMARK INTER + INTRA:          -7.546
REMARK INTER:                  -6.931
REMARK INTRA:                  -0.615
REMARK UNBOUND:                -0.578
REMARK  Name = 
REMARK  6 active torsions:
REMARK  status: ('A' for Active; 'I' for Inactive)
REMARK    1  A    between atoms: N_1  and  C_2
REMARK    2  A    between atoms: C_2  and  C_3
REMARK    3  A    between atoms: C_3  and  O_4
REMARK    4  A    between atoms: O_4  and  C_5
REMARK    5  A    between atoms: N_13  and  C_14
REMARK    6  A    between atoms: C_14  and  C_15
REMARK                            x       y       z     vdW  Elec       q    Type
REMARK                         _______ _______ _______ _____ _____    ______ ____
ROOT
ATOM      1  C   UNL     1      46.074   5.389  12.121  0.00  0.00    +0.000 A 
ATOM      2  C   UNL     1      46.473   4.920  13.375  0.00  0.00    +0.000 A 
ATOM      3  N   UNL     1      47.419   5.497  14.154  0.00  0.00    +0.000 NA
ATOM      4  C   UNL     1      48.000   6.589  13.650  0.00  0.00    +0.000 A 
ATOM      5  C   UNL     1      47.700   7.107  12.398  0.00  0.00    +0.000 A 
ATOM      6  C   UNL     1      46.715   6.519  11.618  0.00  0.00    +0.000 A 
ATOM      7  C   UNL     1      48.546   8.301  12.123  0.00  0.00    +0.000 C 
ATOM      8  C   UNL     1      49.443   8.357  13.388  0.00  0.00    +0.000 C 
ATOM      9  N   UNL     1      48.919   7.379  14.329  0.00  0.00    +0.000 N 
ENDROOT
BRANCH   1  10
ATOM     10  O   UNL     1      45.099   4.847  11.329  0.00  0.00    +0.000 OA
BRANCH  10  11
ATOM     11  C   UNL     1      43.900   5.620  11.210  0.00  0.00    +0.000 C 
BRANCH  11  12
ATOM     12  C   UNL     1      42.773   4.918  11.972  0.00  0.00    +0.000 C 
BRANCH  12  13
ATOM     13  N   UNL     1      42.665   5.405  13.347  0.00  0.00    +0.000 NA
ATOM     14  H   UNL     1      42.143   4.724  13.900  0.00  0.00    +0.000 HD
ATOM     15  H   UNL     1      42.121   6.263  13.370  0.00  0.00    +0.000 HD
ENDBRANCH  12  13
ENDBRANCH  11  12
ENDBRANCH  10  11
ENDBRANCH   1  10
BRANCH   9  16
ATOM     16  C   UNL     1      49.621   6.870  15.485  0.00  0.00    +0.000 C 
BRANCH  16  17
ATOM     17  C   UNL     1      48.874   7.218  16.757  0.00  0.00    +0.000 A 
ATOM     18  C   UNL     1      48.519   6.210  17.670  0.00  0.00    +0.000 A 
ATOM     19  C   UNL     1      47.833   6.522  18.846  0.00  0.00    +0.000 A 
ATOM     20  C   UNL     1      47.512   7.846  19.132  0.00  0.00    +0.000 A 
ATOM     21  C   UNL     1      47.884   8.860  18.250  0.00  0.00    +0.000 A 
ATOM     22  C   UNL     1      48.562   8.548  17.068  0.00  0.00    +0.000 A 
ENDBRANCH  16  17
ENDBRANCH   9  16
TORSDOF 6
ENDMDL
