MODEL 1
REMARK VINA RESULT:    -9.105      0.000      0.000
REMARK INTER + INTRA:         -12.053
REMARK INTER:                 -11.234
REMARK INTRA:                  -0.819
REMARK UNBOUND:                -0.819
REMARK  Name = 
REMARK  4 active torsions:
REMARK  status: ('A' for Active; 'I' for Inactive)
REMARK    1  A    between atoms: C_2  and  C_4
REMARK    2  A    between atoms: N_8  and  C_9
REMARK    3  A    between atoms: C_9  and  C_10
REMARK    4  A    between atoms: C_14  and  C_15
REMARK                            x       y       z     vdW  Elec       q    Type
REMARK                         _______ _______ _______ _____ _____    ______ ____
ROOT
ATOM      1  C   UNL     1      44.062   4.799  11.485  0.00  0.00    +0.000 C 
ATOM      2  C   UNL     1      42.681   4.852  12.125  0.00  0.00    +0.000 C 
ATOM      3  C   UNL     1      43.047   5.848  11.076  0.00  0.00    +0.000 C 
ENDROOT
BRANCH   1   8
ATOM      4  C   UNL     1      46.599   2.766   7.376  0.00  0.00    +0.000 A 
ATOM      5  C   UNL     1      46.441   4.101   7.742  0.00  0.00    +0.000 A 
ATOM      6  C   UNL     1      45.685   4.413   8.877  0.00  0.00    +0.000 A 
ATOM      7  C   UNL     1      45.126   3.387   9.630  0.00  0.00    +0.000 A 
ATOM      8  N   UNL     1      44.301   3.576  10.727  0.00  0.00    +0.000 N 
ATOM      9  N   UNL     1      45.295   2.089   9.292  0.00  0.00    +0.000 NA
ATOM     10  C   UNL     1      46.003   1.806   8.173  0.00  0.00    +0.000 A 
ATOM     11  H   UNL     1      44.155   2.676  11.174  0.00  0.00    +0.000 HD
BRANCH   4  13
ATOM     12  N   UNL     1      47.171   3.099   5.041  0.00  0.00    +0.000 N 
ATOM     13  C   UNL     1      47.323   2.335   6.164  0.00  0.00    +0.000 C 
ATOM     14  O   UNL     1      48.052   1.355   6.167  0.00  0.00    +0.000 OA
ATOM     15  H   UNL     1      47.749   2.853   4.250  0.00  0.00    +0.000 HD
ATOM     16  H   UNL     1      46.799   4.041   5.073  0.00  0.00    +0.000 HD
ENDBRANCH   4  13
ENDBRANCH   1   8
BRANCH   1  17
ATOM     17  C   UNL     1      45.283   5.262  12.265  0.00  0.00    +0.000 A 
ATOM     18  C   UNL     1      45.921   6.475  11.999  0.00  0.00    +0.000 A 
ATOM     19  C   UNL     1      46.938   6.900  12.837  0.00  0.00    +0.000 A 
ATOM     20  N   UNL     1      47.376   6.203  13.907  0.00  0.00    +0.000 NA
ATOM     21  C   UNL     1      46.785   5.007  14.167  0.00  0.00    +0.000 A 
ATOM     22  C   UNL     1      45.757   4.522  13.359  0.00  0.00    +0.000 A 
BRANCH  21  23
ATOM     23  C   UNL     1      47.272   4.256  15.347  0.00  0.00    +0.000 A 
ATOM     24  C   UNL     1      47.174   4.768  16.641  0.00  0.00    +0.000 A 
ATOM     25  C   UNL     1      47.658   4.026  17.717  0.00  0.00    +0.000 A 
ATOM     26  C   UNL     1      48.242   2.787  17.482  0.00  0.00    +0.000 A 
ATOM     27  C   UNL     1      48.303   2.337  16.176  0.00  0.00    +0.000 A 
ATOM     28  N   UNL     1      47.836   3.032  15.114  0.00  0.00    +0.000 NA
ENDBRANCH  21  23
ENDBRANCH   1  17
TORSDOF 4
ENDMDL
MODEL 2
REMARK VINA RESULT:    -8.742      1.663      3.808
REMARK INTER + INTRA:         -11.605
REMARK INTER:                 -10.706
REMARK INTRA:                  -0.899
REMARK UNBOUND:                -0.819
REMARK  Name = 
REMARK  4 active torsions:
REMARK  status: ('A' for Active; 'I' for Inactive)
REMARK    1  A    between atoms: C_2  and  C_4
REMARK    2  A    between atoms: N_8  and  C_9
REMARK    3  A    between atoms: C_9  and  C_10
REMARK    4  A    between atoms: C_14  and  C_15
REMARK                            x       y       z     vdW  Elec       q    Type
REMARK                         _______ _______ _______ _____ _____    ______ ____
ROOT
ATOM      1  C   UNL     1      44.034   4.847  11.461  0.00  0.00    +0.000 C 
ATOM      2  C   UNL     1      42.632   4.964  12.044  0.00  0.00    +0.000 C 
ATOM      3  C   UNL     1      43.086   5.940  11.010  0.00  0.00    +0.000 C 
ENDROOT
BRANCH   1   8
ATOM      4  C   UNL     1      46.552   2.720   7.387  0.00  0.00    +0.000 A 
ATOM      5  C   UNL     1      46.426   4.062   7.743  0.00  0.00    +0.000 A 
ATOM      6  C   UNL     1      45.668   4.401   8.869  0.00  0.00    +0.000 A 
ATOM      7  C   UNL     1      45.077   3.395   9.624  0.00  0.00    +0.000 A 
ATOM      8  N   UNL     1      44.247   3.613  10.713  0.00  0.00    +0.000 N 
ATOM      9  N   UNL     1      45.215   2.091   9.295  0.00  0.00    +0.000 NA
ATOM     10  C   UNL     1      45.924   1.782   8.185  0.00  0.00    +0.000 A 
ATOM     11  H   UNL     1      44.074   2.720  11.164  0.00  0.00    +0.000 HD
BRANCH   4  13
ATOM     12  N   UNL     1      47.168   3.034   5.061  0.00  0.00    +0.000 N 
ATOM     13  C   UNL     1      47.274   2.263   6.184  0.00  0.00    +0.000 C 
ATOM     14  O   UNL     1      47.964   1.255   6.195  0.00  0.00    +0.000 OA
ATOM     15  H   UNL     1      47.746   2.766   4.276  0.00  0.00    +0.000 HD
ATOM     16  H   UNL     1      46.832   3.989   5.089  0.00  0.00    +0.000 HD
ENDBRANCH   4  13
ENDBRANCH   1   8
BRANCH   1  17
ATOM     17  C   UNL     1      45.242   5.254  12.290  0.00  0.00    +0.000 A 
ATOM     18  C   UNL     1      45.672   4.515  13.393  0.00  0.00    +0.000 A 
ATOM     19  C   UNL     1      46.858   4.862  14.017  0.00  0.00    +0.000 A 
ATOM     20  N   UNL     1      47.638   5.896  13.635  0.00  0.00    +0.000 NA
ATOM     21  C   UNL     1      47.222   6.644  12.579  0.00  0.00    +0.000 A 
ATOM     22  C   UNL     1      46.035   6.347  11.910  0.00  0.00    +0.000 A 
BRANCH  21  23
ATOM     23  C   UNL     1      48.091   7.772  12.169  0.00  0.00    +0.000 A 
ATOM     24  C   UNL     1      49.431   7.588  11.832  0.00  0.00    +0.000 A 
ATOM     25  C   UNL     1      50.208   8.685  11.463  0.00  0.00    +0.000 A 
ATOM     26  C   UNL     1      49.636   9.951  11.446  0.00  0.00    +0.000 A 
ATOM     27  C   UNL     1      48.300  10.061  11.786  0.00  0.00    +0.000 A 
ATOM     28  N   UNL     1      47.521   9.015  12.141  0.00  0.00    +0.000 NA
ENDBRANCH  21  23
ENDBRANCH   1  17
TORSDOF 4
ENDMDL
MODEL 3
REMARK VINA RESULT:    -6.924      3.179      7.625
REMARK INTER + INTRA:          -9.362
REMARK INTER:                  -9.588
REMARK INTRA:                   0.225
REMARK UNBOUND:                -0.819
REMARK  Name = 
REMARK  4 active torsions:
REMARK  status: ('A' for Active; 'I' for Inactive)
REMARK    1  A    between atoms: C_2  and  C_4
REMARK    2  A    between atoms: N_8  and  C_9
REMARK    3  A    between atoms: C_9  and  C_10
REMARK    4  A    between atoms: C_14  and  C_15
REMARK                            x       y       z     vdW  Elec       q    Type
REMARK                         _______ _______ _______ _____ _____    ______ ____
ROOT
ATOM      1  C   UNL     1      48.501   7.949  12.597  0.00  0.00    +0.000 C 
ATOM      2  C   UNL     1      49.676   7.559  11.709  0.00  0.00    +0.000 C 
ATOM      3  C   UNL     1      49.257   8.989  11.793  0.00  0.00    +0.000 C 
ENDROOT
BRANCH   1   8
ATOM      4  C   UNL     1      47.770   4.537  16.506  0.00  0.00    +0.000 A 
ATOM      5  C   UNL     1      47.220   4.542  15.226  0.00  0.00    +0.000 A 
ATOM      6  C   UNL     1      47.538   5.586  14.350  0.00  0.00    +0.000 A 
ATOM      7  C   UNL     1      48.412   6.584  14.765  0.00  0.00    +0.000 A 
ATOM      8  N   UNL     1      48.742   7.702  14.014  0.00  0.00    +0.000 N 
ATOM      9  N   UNL     1      48.966   6.571  15.997  0.00  0.00    +0.000 NA
ATOM     10  C   UNL     1      48.624   5.571  16.843  0.00  0.00    +0.000 A 
ATOM     11  H   UNL     1      49.502   8.185  14.482  0.00  0.00    +0.000 HD
BRANCH   4  13
ATOM     12  N   UNL     1      48.316   3.389  18.574  0.00  0.00    +0.000 N 
ATOM     13  C   UNL     1      47.450   3.519  17.525  0.00  0.00    +0.000 C 
ATOM     14  O   UNL     1      46.437   2.839  17.454  0.00  0.00    +0.000 OA
ATOM     15  H   UNL     1      48.034   2.761  19.313  0.00  0.00    +0.000 HD
ATOM     16  H   UNL     1      49.004   4.097  18.798  0.00  0.00    +0.000 HD
ENDBRANCH   4  13
ENDBRANCH   1   8
BRANCH   1  17
ATOM     17  C   UNL     1      47.080   7.620  12.170  0.00  0.00    +0.000 A 
ATOM     18  C   UNL     1      46.021   8.511  12.353  0.00  0.00    +0.000 A 
ATOM     19  C   UNL     1      44.782   8.207  11.815  0.00  0.00    +0.000 A 
ATOM     20  N   UNL     1      44.515   7.079  11.124  0.00  0.00    +0.000 NA
ATOM     21  C   UNL     1      45.526   6.186  10.958  0.00  0.00    +0.000 A 
ATOM     22  C   UNL     1      46.797   6.432  11.478  0.00  0.00    +0.000 A 
BRANCH  21  23
ATOM     23  C   UNL     1      45.220   4.954  10.193  0.00  0.00    +0.000 A 
ATOM     24  C   UNL     1      45.619   4.789   8.867  0.00  0.00    +0.000 A 
ATOM     25  C   UNL     1      45.296   3.616   8.188  0.00  0.00    +0.000 A 
ATOM     26  C   UNL     1      44.569   2.629   8.843  0.00  0.00    +0.000 A 
ATOM     27  C   UNL     1      44.209   2.855  10.159  0.00  0.00    +0.000 A 
ATOM     28  N   UNL     1      44.515   3.980  10.844  0.00  0.00    +0.000 NA
ENDBRANCH  21  23
ENDBRANCH   1  17
TORSDOF 4
ENDMDL
MODEL 4
REMARK VINA RESULT:    -6.691      3.898      8.462
REMARK INTER + INTRA:          -9.074
REMARK INTER:                  -8.400
REMARK INTRA:                  -0.674
REMARK UNBOUND:                -0.819
REMARK  Name = 
REMARK  4 active torsions:
REMARK  status: ('A' for Active; 'I' for Inactive)
REMARK    1  A    between atoms: C_2  and  C_4
REMARK    2  A    between atoms: N_8  and  C_9
REMARK    3  A    between atoms: C_9  and  C_10
REMARK    4  A    between atoms: C_14  and  C_15
REMARK                            x       y       z     vdW  Elec       q    Type
REMARK                         _______ _______ _______ _____ _____    ______ ____
ROOT
ATOM      1  C   UNL     1      48.245   4.869  17.306  0.00  0.00    +0.000 C 
ATOM      2  C   UNL     1      47.268   5.237  18.415  0.00  0.00    +0.000 C 
ATOM      3  C   UNL     1      47.152   3.913  17.739  0.00  0.00    +0.000 C 
ENDROOT
BRANCH   1   8
ATOM      4  C   UNL     1      52.378   1.670  17.677  0.00  0.00    +0.000 A 
ATOM      5  C   UNL     1      51.064   1.375  17.319  0.00  0.00    +0.000 A 
ATOM      6  C   UNL     1      50.110   2.398  17.322  0.00  0.00    +0.000 A 
ATOM      7  C   UNL     1      50.494   3.690  17.657  0.00  0.00    +0.000 A 
ATOM      8  N   UNL     1      49.626   4.766  17.764  0.00  0.00    +0.000 N 
ATOM      9  N   UNL     1      51.772   3.986  17.983  0.00  0.00    +0.000 NA
ATOM     10  C   UNL     1      52.676   2.979  18.007  0.00  0.00    +0.000 A 
ATOM     11  H   UNL     1      50.180   5.610  17.875  0.00  0.00    +0.000 HD
BRANCH   4  13
ATOM     12  N   UNL     1      53.144  -0.510  18.420  0.00  0.00    +0.000 N 
ATOM     13  C   UNL     1      53.444   0.653  17.768  0.00  0.00    +0.000 C 
ATOM     14  O   UNL     1      54.540   0.825  17.257  0.00  0.00    +0.000 OA
ATOM     15  H   UNL     1      53.846  -1.236  18.388  0.00  0.00    +0.000 HD
ATOM     16  H   UNL     1      52.191  -0.790  18.619  0.00  0.00    +0.000 HD
ENDBRANCH   4  13
ENDBRANCH   1   8
BRANCH   1  17
ATOM     17  C   UNL     1      48.121   5.513  15.935  0.00  0.00    +0.000 A 
ATOM     18  C   UNL     1      48.980   6.528  15.508  0.00  0.00    +0.000 A 
ATOM     19  C   UNL     1      48.901   6.971  14.198  0.00  0.00    +0.000 A 
ATOM     20  N   UNL     1      48.024   6.493  13.290  0.00  0.00    +0.000 NA
ATOM     21  C   UNL     1      47.161   5.523  13.695  0.00  0.00    +0.000 A 
ATOM     22  C   UNL     1      47.189   5.036  15.001  0.00  0.00    +0.000 A 
BRANCH  21  23
ATOM     23  C   UNL     1      46.208   5.005  12.686  0.00  0.00    +0.000 A 
ATOM     24  C   UNL     1      45.884   5.725  11.537  0.00  0.00    +0.000 A 
ATOM     25  C   UNL     1      44.973   5.198  10.624  0.00  0.00    +0.000 A 
ATOM     26  C   UNL     1      44.391   3.962  10.879  0.00  0.00    +0.000 A 
ATOM     27  C   UNL     1      44.760   3.299  12.035  0.00  0.00    +0.000 A 
ATOM     28  N   UNL     1      45.647   3.783  12.934  0.00  0.00    +0.000 NA
ENDBRANCH  21  23
ENDBRANCH   1  17
TORSDOF 4
ENDMDL
MODEL 5
REMARK VINA RESULT:    -6.397      3.742      5.286
REMARK INTER + INTRA:          -8.712
REMARK INTER:                  -7.888
REMARK INTRA:                  -0.825
REMARK UNBOUND:                -0.819
REMARK  Name = 
REMARK  4 active torsions:
REMARK  status: ('A' for Active; 'I' for Inactive)
REMARK    1  A    between atoms: C_2  and  C_4
REMARK    2  A    between atoms: N_8  and  C_9
REMARK    3  A    between atoms: C_9  and  C_10
REMARK    4  A    between atoms: C_14  and  C_15
REMARK                            x       y       z     vdW  Elec       q    Type
REMARK                         _______ _______ _______ _____ _____    ______ ____
ROOT
ATOM      1  C   UNL     1      48.827   8.340  12.512  0.00  0.00    +0.000 C 
ATOM      2  C   UNL     1      49.836   9.195  11.757  0.00  0.00    +0.000 C 
ATOM      3  C   UNL     1      49.909   7.708  11.659  0.00  0.00    +0.000 C 
ENDROOT
BRANCH   1   8
ATOM      4  C   UNL     1      44.268   5.915  11.624  0.00  0.00    +0.000 A 
ATOM      5  C   UNL     1      45.516   5.367  11.914  0.00  0.00    +0.000 A 
ATOM      6  C   UNL     1      46.613   6.219  12.082  0.00  0.00    +0.000 A 
ATOM      7  C   UNL     1      46.433   7.593  11.981  0.00  0.00    +0.000 A 
ATOM      8  N   UNL     1      47.454   8.527  12.056  0.00  0.00    +0.000 N 
ATOM      9  N   UNL     1      45.220   8.130  11.723  0.00  0.00    +0.000 NA
ATOM     10  C   UNL     1      44.176   7.291  11.531  0.00  0.00    +0.000 A 
ATOM     11  H   UNL     1      47.036   9.452  12.099  0.00  0.00    +0.000 HD
BRANCH   4  13
ATOM     12  N   UNL     1      41.861   5.628  11.745  0.00  0.00    +0.000 N 
ATOM     13  C   UNL     1      43.064   5.101  11.366  0.00  0.00    +0.000 C 
ATOM     14  O   UNL     1      43.130   4.016  10.810  0.00  0.00    +0.000 OA
ATOM     15  H   UNL     1      41.038   5.109  11.473  0.00  0.00    +0.000 HD
ATOM     16  H   UNL     1      41.743   6.611  11.960  0.00  0.00    +0.000 HD
ENDBRANCH   4  13
ENDBRANCH   1   8
BRANCH   1  17
ATOM     17  C   UNL     1      48.935   8.186  14.021  0.00  0.00    +0.000 A 
ATOM     18  C   UNL     1      48.893   9.280  14.887  0.00  0.00    +0.000 A 
ATOM     19  C   UNL     1      48.854   9.058  16.253  0.00  0.00    +0.000 A 
ATOM     20  N   UNL     1      48.870   7.833  16.820  0.00  0.00    +0.000 NA
ATOM     21  C   UNL     1      48.938   6.756  15.994  0.00  0.00    +0.000 A 
ATOM     22  C   UNL     1      48.981   6.912  14.609  0.00  0.00    +0.000 A 
BRANCH  21  23
ATOM     23  C   UNL     1      48.950   5.418  16.631  0.00  0.00    +0.000 A 
ATOM     24  C   UNL     1      47.782   4.680  16.821  0.00  0.00    +0.000 A 
ATOM     25  C   UNL     1      47.846   3.430  17.435  0.00  0.00    +0.000 A 
ATOM     26  C   UNL     1      49.076   2.942  17.859  0.00  0.00    +0.000 A 
ATOM     27  C   UNL     1      50.194   3.724  17.636  0.00  0.00    +0.000 A 
ATOM     28  N   UNL     1      50.163   4.935  17.036  0.00  0.00    +0.000 NA
ENDBRANCH  21  23
ENDBRANCH   1  17
TORSDOF 4
ENDMDL
MODEL 6
REMARK VINA RESULT:    -6.358      4.076      8.566
REMARK INTER + INTRA:          -8.663
REMARK INTER:                  -7.894
REMARK INTRA:                  -0.769
REMARK UNBOUND:                -0.819
REMARK  Name = 
REMARK  4 active torsions:
REMARK  status: ('A' for Active; 'I' for Inactive)
REMARK    1  A    between atoms: C_2  and  C_4
REMARK    2  A    between atoms: N_8  and  C_9
REMARK    3  A    between atoms: C_9  and  C_10
REMARK    4  A    between atoms: C_14  and  C_15
REMARK                            x       y       z     vdW  Elec       q    Type
REMARK                         _______ _______ _______ _____ _____    ______ ____
ROOT
ATOM      1  C   UNL     1      48.958   7.854  12.655  0.00  0.00    +0.000 C 
ATOM      2  C   UNL     1      49.997   8.018  11.553  0.00  0.00    +0.000 C 
ATOM      3  C   UNL     1      49.570   9.207  12.348  0.00  0.00    +0.000 C 
ENDROOT
BRANCH   1   8
ATOM      4  C   UNL     1      48.918   7.235  17.857  0.00  0.00    +0.000 A 
ATOM      5  C   UNL     1      48.513   8.331  17.096  0.00  0.00    +0.000 A 
ATOM      6  C   UNL     1      48.649   8.283  15.705  0.00  0.00    +0.000 A 
ATOM      7  C   UNL     1      49.160   7.137  15.107  0.00  0.00    +0.000 A 
ATOM      8  N   UNL     1      49.407   7.002  13.749  0.00  0.00    +0.000 N 
ATOM      9  N   UNL     1      49.532   6.064  15.839  0.00  0.00    +0.000 NA
ATOM     10  C   UNL     1      49.425   6.139  17.186  0.00  0.00    +0.000 A 
ATOM     11  H   UNL     1      49.635   6.030  13.564  0.00  0.00    +0.000 HD
BRANCH   4  13
ATOM     12  N   UNL     1      47.683   7.505  19.929  0.00  0.00    +0.000 N 
ATOM     13  C   UNL     1      48.876   7.211  19.332  0.00  0.00    +0.000 C 
ATOM     14  O   UNL     1      49.857   6.910  19.996  0.00  0.00    +0.000 OA
ATOM     15  H   UNL     1      47.641   7.387  20.932  0.00  0.00    +0.000 HD
ATOM     16  H   UNL     1      46.807   7.498  19.421  0.00  0.00    +0.000 HD
ENDBRANCH   4  13
ENDBRANCH   1   8
BRANCH   1  17
ATOM     17  C   UNL     1      47.495   7.642  12.298  0.00  0.00    +0.000 A 
ATOM     18  C   UNL     1      46.516   8.601  12.564  0.00  0.00    +0.000 A 
ATOM     19  C   UNL     1      45.231   8.404  12.087  0.00  0.00    +0.000 A 
ATOM     20  N   UNL     1      44.846   7.320  11.381  0.00  0.00    +0.000 NA
ATOM     21  C   UNL     1      45.778   6.362  11.135  0.00  0.00    +0.000 A 
ATOM     22  C   UNL     1      47.089   6.500  11.590  0.00  0.00    +0.000 A 
BRANCH  21  23
ATOM     23  C   UNL     1      45.341   5.180  10.355  0.00  0.00    +0.000 A 
ATOM     24  C   UNL     1      44.614   4.141  10.933  0.00  0.00    +0.000 A 
ATOM     25  C   UNL     1      44.236   3.046  10.158  0.00  0.00    +0.000 A 
ATOM     26  C   UNL     1      44.601   3.002   8.818  0.00  0.00    +0.000 A 
ATOM     27  C   UNL     1      45.318   4.068   8.307  0.00  0.00    +0.000 A 
ATOM     28  N   UNL     1      45.692   5.146   9.034  0.00  0.00    +0.000 NA
ENDBRANCH  21  23
ENDBRANCH   1  17
TORSDOF 4
ENDMDL
MODEL 7
REMARK VINA RESULT:    -6.159      2.903      4.713
REMARK INTER + INTRA:          -8.418
REMARK INTER:                  -8.118
REMARK INTRA:                  -0.300
REMARK UNBOUND:                -0.819
REMARK  Name = 
REMARK  4 active torsions:
REMARK  status: ('A' for Active; 'I' for Inactive)
REMARK    1  A    between atoms: C_2  and  C_4
REMARK    2  A    between atoms: N_8  and  C_9
REMARK    3  A    between atoms: C_9  and  C_10
REMARK    4  A    between atoms: C_14  and  C_15
REMARK                            x       y       z     vdW  Elec       q    Type
REMARK                         _______ _______ _______ _____ _____    ______ ____
ROOT
ATOM      1  C   UNL     1      47.871   8.699  13.308  0.00  0.00    +0.000 C 
ATOM      2  C   UNL     1      47.907  10.178  12.947  0.00  0.00    +0.000 C 
ATOM      3  C   UNL     1      48.560   9.182  12.048  0.00  0.00    +0.000 C 
ENDROOT
BRANCH   1   8
ATOM      4  C   UNL     1      44.679   5.235  11.014  0.00  0.00    +0.000 A 
ATOM      5  C   UNL     1      45.940   5.671  10.613  0.00  0.00    +0.000 A 
ATOM      6  C   UNL     1      46.601   6.641  11.376  0.00  0.00    +0.000 A 
ATOM      7  C   UNL     1      45.999   7.131  12.528  0.00  0.00    +0.000 A 
ATOM      8  N   UNL     1      46.523   8.141  13.321  0.00  0.00    +0.000 N 
ATOM      9  N   UNL     1      44.786   6.694  12.933  0.00  0.00    +0.000 NA
ATOM     10  C   UNL     1      44.147   5.779  12.167  0.00  0.00    +0.000 A 
ATOM     11  H   UNL     1      45.966   8.201  14.167  0.00  0.00    +0.000 HD
BRANCH   4  13
ATOM     12  N   UNL     1      43.963   4.318   8.883  0.00  0.00    +0.000 N 
ATOM     13  C   UNL     1      43.873   4.265  10.246  0.00  0.00    +0.000 C 
ATOM     14  O   UNL     1      43.177   3.429  10.801  0.00  0.00    +0.000 OA
ATOM     15  H   UNL     1      43.487   3.586   8.374  0.00  0.00    +0.000 HD
ATOM     16  H   UNL     1      44.712   4.807   8.409  0.00  0.00    +0.000 HD
ENDBRANCH   4  13
ENDBRANCH   1   8
BRANCH   1  17
ATOM     17  C   UNL     1      48.744   8.167  14.433  0.00  0.00    +0.000 A 
ATOM     18  C   UNL     1      49.827   8.887  14.940  0.00  0.00    +0.000 A 
ATOM     19  C   UNL     1      50.493   8.409  16.056  0.00  0.00    +0.000 A 
ATOM     20  N   UNL     1      50.171   7.263  16.694  0.00  0.00    +0.000 NA
ATOM     21  C   UNL     1      49.137   6.534  16.199  0.00  0.00    +0.000 A 
ATOM     22  C   UNL     1      48.428   6.960  15.076  0.00  0.00    +0.000 A 
BRANCH  21  23
ATOM     23  C   UNL     1      48.793   5.281  16.912  0.00  0.00    +0.000 A 
ATOM     24  C   UNL     1      48.991   5.134  18.284  0.00  0.00    +0.000 A 
ATOM     25  C   UNL     1      48.661   3.932  18.906  0.00  0.00    +0.000 A 
ATOM     26  C   UNL     1      48.147   2.889  18.143  0.00  0.00    +0.000 A 
ATOM     27  C   UNL     1      47.972   3.104  16.788  0.00  0.00    +0.000 A 
ATOM     28  N   UNL     1      48.276   4.262  16.161  0.00  0.00    +0.000 NA
ENDBRANCH  21  23
ENDBRANCH   1  17
TORSDOF 4
ENDMDL
