MODEL 1
REMARK VINA RESULT:    -7.506      0.000      0.000
REMARK INTER + INTRA:          -8.915
REMARK INTER:                  -8.822
REMARK INTRA:                  -0.093
REMARK UNBOUND:                -0.093
REMARK  Name = 
REMARK  3 active torsions:
REMARK  status: ('A' for Active; 'I' for Inactive)
REMARK    1  A    between atoms: C_2  and  C_4
REMARK    2  A    between atoms: C_7  and  C_8
REMARK    3  A    between atoms: C_8  and  C_9
REMARK                            x       y       z     vdW  Elec       q    Type
REMARK                         _______ _______ _______ _____ _____    ______ ____
ROOT
ATOM      1  C   UNL     1      46.498   2.871   7.458  0.00  0.00    +0.000 A 
ATOM      2  C   UNL     1      45.954   2.012   8.399  0.00  0.00    +0.000 A 
ATOM      3  N   UNL     1      45.334   2.465   9.524  0.00  0.00    +0.000 NA
ATOM      4  C   UNL     1      45.266   3.815   9.690  0.00  0.00    +0.000 A 
ATOM      5  C   UNL     1      45.817   4.656   8.711  0.00  0.00    +0.000 A 
ATOM      6  N   UNL     1      46.440   4.223   7.584  0.00  0.00    +0.000 NA
ENDROOT
BRANCH   1   8
ATOM      7  N   UNL     1      47.100   3.082   5.125  0.00  0.00    +0.000 N 
ATOM      8  C   UNL     1      47.192   2.322   6.259  0.00  0.00    +0.000 C 
ATOM      9  O   UNL     1      47.813   1.268   6.286  0.00  0.00    +0.000 OA
ATOM     10  H   UNL     1      47.574   2.783   4.284  0.00  0.00    +0.000 HD
ATOM     11  H   UNL     1      46.595   3.961   5.143  0.00  0.00    +0.000 HD
ENDBRANCH   1   8
BRANCH   4  12
ATOM     12  C   UNL     1      44.574   4.389  10.925  0.00  0.00    +0.000 C 
ATOM     13  C   UNL     1      43.294   3.700  11.406  0.00  0.00    +0.000 C 
ATOM     14  C   UNL     1      43.197   5.032  10.735  0.00  0.00    +0.000 C 
BRANCH  12  15
ATOM     15  C   UNL     1      45.470   5.010  12.000  0.00  0.00    +0.000 A 
ATOM     16  C   UNL     1      45.820   4.297  13.163  0.00  0.00    +0.000 A 
ATOM     17  C   UNL     1      46.765   4.791  14.065  0.00  0.00    +0.000 A 
ATOM     18  C   UNL     1      47.374   6.019  13.822  0.00  0.00    +0.000 A 
ATOM     19 CL   UNL     1      48.607   6.585  14.878  0.00  0.00    +0.000 Cl
ATOM     20  C   UNL     1      47.002   6.778  12.717  0.00  0.00    +0.000 A 
ATOM     21  C   UNL     1      46.049   6.282  11.826  0.00  0.00    +0.000 A 
ENDBRANCH  12  15
ENDBRANCH   4  12
TORSDOF 3
ENDMDL
MODEL 2
REMARK VINA RESULT:    -7.461      4.056      6.395
REMARK INTER + INTRA:          -8.862
REMARK INTER:                  -8.794
REMARK INTRA:                  -0.068
REMARK UNBOUND:                -0.093
REMARK  Name = 
REMARK  3 active torsions:
REMARK  status: ('A' for Active; 'I' for Inactive)
REMARK    1  A    between atoms: C_2  and  C_4
REMARK    2  A    between atoms: C_7  and  C_8
REMARK    3  A    between atoms: C_8  and  C_9
REMARK                            x       y       z     vdW  Elec       q    Type
REMARK                         _______ _______ _______ _____ _____    ______ ____
ROOT
ATOM      1  C   UNL     1      47.093   5.154  14.144  0.00  0.00    +0.000 A 
ATOM      2  C   UNL     1      46.784   3.831  13.868  0.00  0.00    +0.000 A 
ATOM      3  N   UNL     1      45.938   3.477  12.862  0.00  0.00    +0.000 NA
ATOM      4  C   UNL     1      45.399   4.487  12.124  0.00  0.00    +0.000 A 
ATOM      5  C   UNL     1      45.742   5.814  12.423  0.00  0.00    +0.000 A 
ATOM      6  N   UNL     1      46.583   6.188  13.423  0.00  0.00    +0.000 NA
ENDROOT
BRANCH   1   8
ATOM      7  N   UNL     1      47.571   5.095  16.514  0.00  0.00    +0.000 N 
ATOM      8  C   UNL     1      48.001   5.488  15.276  0.00  0.00    +0.000 C 
ATOM      9  O   UNL     1      49.066   6.068  15.113  0.00  0.00    +0.000 OA
ATOM     10  H   UNL     1      48.153   5.264  17.323  0.00  0.00    +0.000 HD
ATOM     11  H   UNL     1      46.692   4.598  16.611  0.00  0.00    +0.000 HD
ENDBRANCH   1   8
BRANCH   4  12
ATOM     12  C   UNL     1      44.449   4.157  10.974  0.00  0.00    +0.000 C 
ATOM     13  C   UNL     1      43.186   5.012  10.831  0.00  0.00    +0.000 C 
ATOM     14  C   UNL     1      43.064   3.609  11.331  0.00  0.00    +0.000 C 
BRANCH  12  15
ATOM     15  C   UNL     1      45.076   3.628   9.682  0.00  0.00    +0.000 A 
ATOM     16  C   UNL     1      45.631   4.501   8.727  0.00  0.00    +0.000 A 
ATOM     17  C   UNL     1      46.348   4.020   7.629  0.00  0.00    +0.000 A 
ATOM     18  C   UNL     1      46.516   2.649   7.462  0.00  0.00    +0.000 A 
ATOM     19 CL   UNL     1      47.480   2.057   6.167  0.00  0.00    +0.000 Cl
ATOM     20  C   UNL     1      45.924   1.758   8.351  0.00  0.00    +0.000 A 
ATOM     21  C   UNL     1      45.200   2.247   9.441  0.00  0.00    +0.000 A 
ENDBRANCH  12  15
ENDBRANCH   4  12
TORSDOF 3
ENDMDL
MODEL 3
REMARK VINA RESULT:    -6.421      1.445      2.099
REMARK INTER + INTRA:          -7.640
REMARK INTER:                  -7.707
REMARK INTRA:                   0.067
REMARK UNBOUND:                -0.093
REMARK  Name = 
REMARK  3 active torsions:
REMARK  status: ('A' for Active; 'I' for Inactive)
REMARK    1  A    between atoms: C_2  and  C_4
REMARK    2  A    between atoms: C_7  and  C_8
REMARK    3  A    between atoms: C_8  and  C_9
REMARK                            x       y       z     vdW  Elec       q    Type
REMARK                         _______ _______ _______ _____ _____    ______ ____
ROOT
ATOM      1  C   UNL     1      46.068   2.769   8.057  0.00  0.00    +0.000 A 
ATOM      2  C   UNL     1      46.122   4.152   7.985  0.00  0.00    +0.000 A 
ATOM      3  N   UNL     1      45.602   4.951   8.957  0.00  0.00    +0.000 NA
ATOM      4  C   UNL     1      45.019   4.330  10.020  0.00  0.00    +0.000 A 
ATOM      5  C   UNL     1      44.992   2.928  10.066  0.00  0.00    +0.000 A 
ATOM      6  N   UNL     1      45.505   2.114   9.107  0.00  0.00    +0.000 NA
ENDROOT
BRANCH   1   8
ATOM      7  N   UNL     1      46.974   0.661   7.290  0.00  0.00    +0.000 N 
ATOM      8  C   UNL     1      46.626   1.941   6.951  0.00  0.00    +0.000 C 
ATOM      9  O   UNL     1      46.757   2.369   5.812  0.00  0.00    +0.000 OA
ATOM     10  H   UNL     1      47.331   0.036   6.581  0.00  0.00    +0.000 HD
ATOM     11  H   UNL     1      46.833   0.332   8.239  0.00  0.00    +0.000 HD
ENDBRANCH   1   8
BRANCH   4  12
ATOM     12  C   UNL     1      44.424   5.169  11.150  0.00  0.00    +0.000 C 
ATOM     13  C   UNL     1      43.333   4.526  12.011  0.00  0.00    +0.000 C 
ATOM     14  C   UNL     1      42.956   5.587  11.028  0.00  0.00    +0.000 C 
BRANCH  12  15
ATOM     15  C   UNL     1      45.357   6.163  11.845  0.00  0.00    +0.000 A 
ATOM     16  C   UNL     1      45.031   7.530  11.939  0.00  0.00    +0.000 A 
ATOM     17  C   UNL     1      45.793   8.409  12.712  0.00  0.00    +0.000 A 
ATOM     18  C   UNL     1      46.906   7.936  13.401  0.00  0.00    +0.000 A 
ATOM     19 CL   UNL     1      47.789   8.994  14.430  0.00  0.00    +0.000 Cl
ATOM     20  C   UNL     1      47.292   6.606  13.276  0.00  0.00    +0.000 A 
ATOM     21  C   UNL     1      46.532   5.735  12.493  0.00  0.00    +0.000 A 
ENDBRANCH  12  15
ENDBRANCH   4  12
TORSDOF 3
ENDMDL
MODEL 4
REMARK VINA RESULT:    -5.996      4.441      6.422
REMARK INTER + INTRA:          -7.140
REMARK INTER:                  -7.319
REMARK INTRA:                   0.178
REMARK UNBOUND:                -0.093
REMARK  Name = 
REMARK  3 active torsions:
REMARK  status: ('A' for Active; 'I' for Inactive)
REMARK    1  A    between atoms: C_2  and  C_4
REMARK    2  A    between atoms: C_7  and  C_8
REMARK    3  A    between atoms: C_8  and  C_9
REMARK                            x       y       z     vdW  Elec       q    Type
REMARK                         _______ _______ _______ _____ _____    ______ ____
ROOT
ATOM      1  C   UNL     1      46.180   8.342  12.195  0.00  0.00    +0.000 A 
ATOM      2  C   UNL     1      46.947   7.192  12.280  0.00  0.00    +0.000 A 
ATOM      3  N   UNL     1      46.475   5.972  11.897  0.00  0.00    +0.000 NA
ATOM      4  C   UNL     1      45.201   5.927  11.418  0.00  0.00    +0.000 A 
ATOM      5  C   UNL     1      44.456   7.113  11.335  0.00  0.00    +0.000 A 
ATOM      6  N   UNL     1      44.908   8.337  11.712  0.00  0.00    +0.000 NA
ENDROOT
BRANCH   1   8
ATOM      7  N   UNL     1      47.510   9.592  13.781  0.00  0.00    +0.000 N 
ATOM      8  C   UNL     1      46.734   9.646  12.656  0.00  0.00    +0.000 C 
ATOM      9  O   UNL     1      46.519  10.695  12.065  0.00  0.00    +0.000 OA
ATOM     10  H   UNL     1      47.942  10.436  14.131  0.00  0.00    +0.000 HD
ATOM     11  H   UNL     1      47.685   8.702  14.235  0.00  0.00    +0.000 HD
ENDBRANCH   1   8
BRANCH   4  12
ATOM     12  C   UNL     1      44.614   4.592  10.963  0.00  0.00    +0.000 C 
ATOM     13  C   UNL     1      43.105   4.391  11.122  0.00  0.00    +0.000 C 
ATOM     14  C   UNL     1      44.038   3.665  12.037  0.00  0.00    +0.000 C 
BRANCH  12  15
ATOM     15  C   UNL     1      45.279   3.911   9.765  0.00  0.00    +0.000 A 
ATOM     16  C   UNL     1      45.263   2.511   9.617  0.00  0.00    +0.000 A 
ATOM     17  C   UNL     1      45.721   1.895   8.450  0.00  0.00    +0.000 A 
ATOM     18  C   UNL     1      46.215   2.674   7.407  0.00  0.00    +0.000 A 
ATOM     19 CL   UNL     1      46.688   1.927   5.932  0.00  0.00    +0.000 Cl
ATOM     20  C   UNL     1      46.305   4.054   7.548  0.00  0.00    +0.000 A 
ATOM     21  C   UNL     1      45.855   4.662   8.722  0.00  0.00    +0.000 A 
ENDBRANCH  12  15
ENDBRANCH   4  12
TORSDOF 3
ENDMDL
MODEL 5
REMARK VINA RESULT:    -5.481      4.792      6.622
REMARK INTER + INTRA:          -6.536
REMARK INTER:                  -6.691
REMARK INTRA:                   0.155
REMARK UNBOUND:                -0.093
REMARK  Name = 
REMARK  3 active torsions:
REMARK  status: ('A' for Active; 'I' for Inactive)
REMARK    1  A    between atoms: C_2  and  C_4
REMARK    2  A    between atoms: C_7  and  C_8
REMARK    3  A    between atoms: C_8  and  C_9
REMARK                            x       y       z     vdW  Elec       q    Type
REMARK                         _______ _______ _______ _____ _____    ______ ____
ROOT
ATOM      1  C   UNL     1      47.683   3.849  15.501  0.00  0.00    +0.000 A 
ATOM      2  C   UNL     1      47.897   5.210  15.649  0.00  0.00    +0.000 A 
ATOM      3  N   UNL     1      47.626   6.102  14.656  0.00  0.00    +0.000 NA
ATOM      4  C   UNL     1      47.127   5.597  13.494  0.00  0.00    +0.000 A 
ATOM      5  C   UNL     1      46.911   4.215  13.381  0.00  0.00    +0.000 A 
ATOM      6  N   UNL     1      47.176   3.311  14.360  0.00  0.00    +0.000 NA
ENDROOT
BRANCH   1   8
ATOM      7  N   UNL     1      47.083   2.795  17.593  0.00  0.00    +0.000 N 
ATOM      8  C   UNL     1      48.025   2.914  16.608  0.00  0.00    +0.000 C 
ATOM      9  O   UNL     1      49.074   2.284  16.635  0.00  0.00    +0.000 OA
ATOM     10  H   UNL     1      47.238   2.155  18.359  0.00  0.00    +0.000 HD
ATOM     11  H   UNL     1      46.215   3.317  17.530  0.00  0.00    +0.000 HD
ENDBRANCH   1   8
BRANCH   4  12
ATOM     12  C   UNL     1      46.792   6.544  12.343  0.00  0.00    +0.000 C 
ATOM     13  C   UNL     1      45.318   6.897  12.121  0.00  0.00    +0.000 C 
ATOM     14  C   UNL     1      45.999   5.976  11.162  0.00  0.00    +0.000 C 
BRANCH  12  15
ATOM     15  C   UNL     1      47.819   7.629  12.011  0.00  0.00    +0.000 A 
ATOM     16  C   UNL     1      47.494   8.996  12.097  0.00  0.00    +0.000 A 
ATOM     17  C   UNL     1      48.468   9.987  11.956  0.00  0.00    +0.000 A 
ATOM     18  C   UNL     1      49.790   9.626  11.717  0.00  0.00    +0.000 A 
ATOM     19 CL   UNL     1      51.008  10.838  11.641  0.00  0.00    +0.000 Cl
ATOM     20  C   UNL     1      50.132   8.287  11.561  0.00  0.00    +0.000 A 
ATOM     21  C   UNL     1      49.151   7.302  11.692  0.00  0.00    +0.000 A 
ENDBRANCH  12  15
ENDBRANCH   4  12
TORSDOF 3
ENDMDL
MODEL 6
REMARK VINA RESULT:    -5.473      4.784      7.141
REMARK INTER + INTRA:          -6.526
REMARK INTER:                  -7.054
REMARK INTRA:                   0.529
REMARK UNBOUND:                -0.093
REMARK  Name = 
REMARK  3 active torsions:
REMARK  status: ('A' for Active; 'I' for Inactive)
REMARK    1  A    between atoms: C_2  and  C_4
REMARK    2  A    between atoms: C_7  and  C_8
REMARK    3  A    between atoms: C_8  and  C_9
REMARK                            x       y       z     vdW  Elec       q    Type
REMARK                         _______ _______ _______ _____ _____    ______ ____
ROOT
ATOM      1  C   UNL     1      48.270   4.800  16.107  0.00  0.00    +0.000 A 
ATOM      2  C   UNL     1      47.126   4.190  15.618  0.00  0.00    +0.000 A 
ATOM      3  N   UNL     1      46.461   4.658  14.526  0.00  0.00    +0.000 NA
ATOM      4  C   UNL     1      46.973   5.766  13.921  0.00  0.00    +0.000 A 
ATOM      5  C   UNL     1      48.140   6.352  14.436  0.00  0.00    +0.000 A 
ATOM      6  N   UNL     1      48.815   5.901  15.524  0.00  0.00    +0.000 NA
ENDROOT
BRANCH   1   8
ATOM      7  N   UNL     1      49.430   5.204  18.190  0.00  0.00    +0.000 N 
ATOM      8  C   UNL     1      48.941   4.264  17.324  0.00  0.00    +0.000 C 
ATOM      9  O   UNL     1      49.042   3.065  17.544  0.00  0.00    +0.000 OA
ATOM     10  H   UNL     1      49.871   4.909  19.051  0.00  0.00    +0.000 HD
ATOM     11  H   UNL     1      49.312   6.191  17.988  0.00  0.00    +0.000 HD
ENDBRANCH   1   8
BRANCH   4  12
ATOM     12  C   UNL     1      46.282   6.338  12.685  0.00  0.00    +0.000 C 
ATOM     13  C   UNL     1      46.846   7.632  12.092  0.00  0.00    +0.000 C 
ATOM     14  C   UNL     1      45.550   7.675  12.834  0.00  0.00    +0.000 C 
BRANCH  12  15
ATOM     15  C   UNL     1      45.671   5.337  11.702  0.00  0.00    +0.000 A 
ATOM     16  C   UNL     1      45.702   5.563  10.313  0.00  0.00    +0.000 A 
ATOM     17  C   UNL     1      45.296   4.582   9.405  0.00  0.00    +0.000 A 
ATOM     18  C   UNL     1      44.841   3.353   9.875  0.00  0.00    +0.000 A 
ATOM     19 CL   UNL     1      44.434   2.109   8.760  0.00  0.00    +0.000 Cl
ATOM     20  C   UNL     1      44.736   3.123  11.242  0.00  0.00    +0.000 A 
ATOM     21  C   UNL     1      45.134   4.112  12.143  0.00  0.00    +0.000 A 
ENDBRANCH  12  15
ENDBRANCH   4  12
TORSDOF 3
ENDMDL
MODEL 7
REMARK VINA RESULT:    -5.450      3.589      5.320
REMARK INTER + INTRA:          -6.498
REMARK INTER:                  -6.577
REMARK INTRA:                   0.079
REMARK UNBOUND:                -0.093
REMARK  Name = 
REMARK  3 active torsions:
REMARK  status: ('A' for Active; 'I' for Inactive)
REMARK    1  A    between atoms: C_2  and  C_4
REMARK    2  A    between atoms: C_7  and  C_8
REMARK    3  A    between atoms: C_8  and  C_9
REMARK                            x       y       z     vdW  Elec       q    Type
REMARK                         _______ _______ _______ _____ _____    ______ ____
ROOT
ATOM      1  C   UNL     1      45.114   4.357  11.983  0.00  0.00    +0.000 A 
ATOM      2  C   UNL     1      45.357   5.451  11.167  0.00  0.00    +0.000 A 
ATOM      3  N   UNL     1      46.323   6.368  11.449  0.00  0.00    +0.000 NA
ATOM      4  C   UNL     1      47.054   6.167  12.581  0.00  0.00    +0.000 A 
ATOM      5  C   UNL     1      46.789   5.043  13.378  0.00  0.00    +0.000 A 
ATOM      6  N   UNL     1      45.830   4.118  13.114  0.00  0.00    +0.000 NA
ENDROOT
BRANCH   1   8
ATOM      7  N   UNL     1      43.749   2.458  12.598  0.00  0.00    +0.000 N 
ATOM      8  C   UNL     1      44.025   3.399  11.644  0.00  0.00    +0.000 C 
ATOM      9  O   UNL     1      43.410   3.453  10.588  0.00  0.00    +0.000 OA
ATOM     10  H   UNL     1      43.001   1.796  12.446  0.00  0.00    +0.000 HD
ATOM     11  H   UNL     1      44.265   2.455  13.472  0.00  0.00    +0.000 HD
ENDBRANCH   1   8
BRANCH   4  12
ATOM     12  C   UNL     1      48.160   7.154  12.951  0.00  0.00    +0.000 C 
ATOM     13  C   UNL     1      48.528   8.224  11.919  0.00  0.00    +0.000 C 
ATOM     14  C   UNL     1      49.468   7.086  12.157  0.00  0.00    +0.000 C 
BRANCH  12  15
ATOM     15  C   UNL     1      48.280   7.545  14.426  0.00  0.00    +0.000 A 
ATOM     16  C   UNL     1      48.775   6.641  15.385  0.00  0.00    +0.000 A 
ATOM     17  C   UNL     1      49.042   7.042  16.696  0.00  0.00    +0.000 A 
ATOM     18  C   UNL     1      48.809   8.360  17.075  0.00  0.00    +0.000 A 
ATOM     19 CL   UNL     1      49.228   8.881  18.659  0.00  0.00    +0.000 Cl
ATOM     20  C   UNL     1      48.260   9.262  16.169  0.00  0.00    +0.000 A 
ATOM     21  C   UNL     1      47.986   8.851  14.863  0.00  0.00    +0.000 A 
ENDBRANCH  12  15
ENDBRANCH   4  12
TORSDOF 3
ENDMDL
MODEL 8
REMARK VINA RESULT:    -5.161      5.643      7.608
REMARK INTER + INTRA:          -6.159
REMARK INTER:                  -6.363
REMARK INTRA:                   0.205
REMARK UNBOUND:                -0.093
REMARK  Name = 
REMARK  3 active torsions:
REMARK  status: ('A' for Active; 'I' for Inactive)
REMARK    1  A    between atoms: C_2  and  C_4
REMARK    2  A    between atoms: C_7  and  C_8
REMARK    3  A    between atoms: C_8  and  C_9
REMARK                            x       y       z     vdW  Elec       q    Type
REMARK                         _______ _______ _______ _____ _____    ______ ____
ROOT
ATOM      1  C   UNL     1      48.387   4.420  17.544  0.00  0.00    +0.000 A 
ATOM      2  C   UNL     1      47.403   3.584  17.042  0.00  0.00    +0.000 A 
ATOM      3  N   UNL     1      46.819   3.796  15.829  0.00  0.00    +0.000 NA
ATOM      4  C   UNL     1      47.246   4.876  15.119  0.00  0.00    +0.000 A 
ATOM      5  C   UNL     1      48.253   5.695  15.653  0.00  0.00    +0.000 A 
ATOM      6  N   UNL     1      48.847   5.502  16.859  0.00  0.00    +0.000 NA
ENDROOT
BRANCH   1   8
ATOM      7  N   UNL     1      48.387   3.150  19.603  0.00  0.00    +0.000 N 
ATOM      8  C   UNL     1      48.972   4.161  18.890  0.00  0.00    +0.000 C 
ATOM      9  O   UNL     1      49.919   4.800  19.328  0.00  0.00    +0.000 OA
ATOM     10  H   UNL     1      48.754   2.902  20.511  0.00  0.00    +0.000 HD
ATOM     11  H   UNL     1      47.616   2.627  19.202  0.00  0.00    +0.000 HD
ENDBRANCH   1   8
BRANCH   4  12
ATOM     12  C   UNL     1      46.639   5.165  13.747  0.00  0.00    +0.000 C 
ATOM     13  C   UNL     1      45.189   4.732  13.509  0.00  0.00    +0.000 C 
ATOM     14  C   UNL     1      46.295   3.968  12.856  0.00  0.00    +0.000 C 
BRANCH  12  15
ATOM     15  C   UNL     1      47.109   6.432  13.029  0.00  0.00    +0.000 A 
ATOM     16  C   UNL     1      46.297   7.581  12.967  0.00  0.00    +0.000 A 
ATOM     17  C   UNL     1      46.782   8.789  12.460  0.00  0.00    +0.000 A 
ATOM     18  C   UNL     1      48.092   8.866  11.995  0.00  0.00    +0.000 A 
ATOM     19 CL   UNL     1      48.722  10.374  11.462  0.00  0.00    +0.000 Cl
ATOM     20  C   UNL     1      48.897   7.733  11.983  0.00  0.00    +0.000 A 
ATOM     21  C   UNL     1      48.402   6.526  12.481  0.00  0.00    +0.000 A 
ENDBRANCH  12  15
ENDBRANCH   4  12
TORSDOF 3
ENDMDL
MODEL 9
REMARK VINA RESULT:    -5.132      5.113      7.606
REMARK INTER + INTRA:          -6.125
REMARK INTER:                  -5.997
REMARK INTRA:                  -0.127
REMARK UNBOUND:                -0.093
REMARK  Name = 
REMARK  3 active torsions:
REMARK  status: ('A' for Active; 'I' for Inactive)
REMARK    1  A    between atoms: C_2  and  C_4
REMARK    2  A    between atoms: C_7  and  C_8
REMARK    3  A    between atoms: C_8  and  C_9
REMARK                            x       y       z     vdW  Elec       q    Type
REMARK                         _______ _______ _______ _____ _____    ______ ____
ROOT
ATOM      1  C   UNL     1      46.768   4.621  14.007  0.00  0.00    +0.000 A 
ATOM      2  C   UNL     1      47.568   5.750  13.951  0.00  0.00    +0.000 A 
ATOM      3  N   UNL     1      48.351   6.140  14.996  0.00  0.00    +0.000 NA
ATOM      4  C   UNL     1      48.318   5.363  16.114  0.00  0.00    +0.000 A 
ATOM      5  C   UNL     1      47.505   4.220  16.132  0.00  0.00    +0.000 A 
ATOM      6  N   UNL     1      46.717   3.816  15.102  0.00  0.00    +0.000 NA
ENDROOT
BRANCH   1   8
ATOM      7  N   UNL     1      45.596   2.928  12.738  0.00  0.00    +0.000 N 
ATOM      8  C   UNL     1      45.908   4.256  12.847  0.00  0.00    +0.000 C 
ATOM      9  O   UNL     1      45.498   5.087  12.048  0.00  0.00    +0.000 OA
ATOM     10  H   UNL     1      44.991   2.616  11.991  0.00  0.00    +0.000 HD
ATOM     11  H   UNL     1      45.936   2.269  13.429  0.00  0.00    +0.000 HD
ENDBRANCH   1   8
BRANCH   4  12
ATOM     12  C   UNL     1      49.180   5.739  17.319  0.00  0.00    +0.000 C 
ATOM     13  C   UNL     1      48.548   5.615  18.708  0.00  0.00    +0.000 C 
ATOM     14  C   UNL     1      48.772   6.974  18.127  0.00  0.00    +0.000 C 
BRANCH  12  15
ATOM     15  C   UNL     1      50.681   5.461  17.215  0.00  0.00    +0.000 A 
ATOM     16  C   UNL     1      51.549   6.361  16.567  0.00  0.00    +0.000 A 
ATOM     17  C   UNL     1      52.935   6.197  16.612  0.00  0.00    +0.000 A 
ATOM     18  C   UNL     1      53.481   5.119  17.303  0.00  0.00    +0.000 A 
ATOM     19 CL   UNL     1      55.188   4.968  17.443  0.00  0.00    +0.000 Cl
ATOM     20  C   UNL     1      52.649   4.176  17.898  0.00  0.00    +0.000 A 
ATOM     21  C   UNL     1      51.263   4.341  17.840  0.00  0.00    +0.000 A 
ENDBRANCH  12  15
ENDBRANCH   4  12
TORSDOF 3
ENDMDL
