MODEL 1
REMARK VINA RESULT:    -8.443      0.000      0.000
REMARK INTER + INTRA:         -13.135
REMARK INTER:                 -11.897
REMARK INTRA:                  -1.237
REMARK UNBOUND:                -1.237
REMARK  Name = 
REMARK  7 active torsions:
REMARK  status: ('A' for Active; 'I' for Inactive)
REMARK    1  A    between atoms: C_2  and  C_3
REMARK    2  A    between atoms: C_3  and  N_4
REMARK    3  A    between atoms: C_3  and  C_22
REMARK    4  A    between atoms: C_5  and  C_7
REMARK    5  A    between atoms: C_10  and  C_11
REMARK    6  A    between atoms: C_11  and  N_12
REMARK    7  A    between atoms: C_13  and  C_15
REMARK                            x       y       z     vdW  Elec       q    Type
REMARK                         _______ _______ _______ _____ _____    ______ ____
ROOT
ATOM      1  N   UNL     1      47.886   5.727  16.286  0.00  0.00    +0.000 N 
ATOM      2  C   UNL     1      48.136   5.993  14.968  0.00  0.00    +0.000 C 
ATOM      3  O   UNL     1      49.028   6.748  14.599  0.00  0.00    +0.000 OA
ATOM      4  H   UNL     1      47.133   5.099  16.555  0.00  0.00    +0.000 HD
ENDROOT
BRANCH   2   5
ATOM      5  C   UNL     1      47.259   5.317  13.968  0.00  0.00    +0.000 A 
ATOM      6  C   UNL     1      47.149   3.923  14.015  0.00  0.00    +0.000 A 
ATOM      7  C   UNL     1      46.244   3.256  13.181  0.00  0.00    +0.000 A 
ATOM      8  C   UNL     1      45.437   3.972  12.282  0.00  0.00    +0.000 A 
ATOM      9  C   UNL     1      45.578   5.364  12.214  0.00  0.00    +0.000 A 
ATOM     10  C   UNL     1      46.484   6.029  13.046  0.00  0.00    +0.000 A 
BRANCH   8  11
ATOM     11  C   UNL     1      44.382   3.270  11.462  0.00  0.00    +0.000 C 
BRANCH  11  12
ATOM     12  N   UNL     1      44.941   2.778  10.221  0.00  0.00    +0.000 N 
ATOM     13  C   UNL     1      44.786   3.460   9.031  0.00  0.00    +0.000 C 
ATOM     14  O   UNL     1      44.121   4.486   8.930  0.00  0.00    +0.000 OA
ATOM     15  H   UNL     1      45.620   2.032  10.276  0.00  0.00    +0.000 HD
BRANCH  13  16
ATOM     16  C   UNL     1      45.465   2.774   7.850  0.00  0.00    +0.000 C 
ATOM     17  C   UNL     1      46.168   1.481   8.259  0.00  0.00    +0.000 C 
ATOM     18  C   UNL     1      47.205   1.216   7.173  0.00  0.00    +0.000 C 
ATOM     19  C   UNL     1      47.371   2.526   6.408  0.00  0.00    +0.000 C 
ATOM     20  C   UNL     1      46.598   3.572   7.205  0.00  0.00    +0.000 C 
ENDBRANCH  13  16
ENDBRANCH  11  12
ENDBRANCH   8  11
ENDBRANCH   2   5
BRANCH   1  21
ATOM     21  C   UNL     1      48.681   6.275  17.370  0.00  0.00    +0.000 C 
BRANCH  21  22
ATOM     22  C   UNL     1      49.965   5.480  17.549  0.00  0.00    +0.000 A 
ATOM     23  C   UNL     1      51.193   6.074  17.814  0.00  0.00    +0.000 A 
ATOM     24  S   UNL     1      52.492   4.966  17.871  0.00  0.00    +0.000 S 
ATOM     25  C   UNL     1      51.459   3.649  17.564  0.00  0.00    +0.000 A 
ATOM     26  N   UNL     1      51.942   2.384  17.438  0.00  0.00    +0.000 NA
ATOM     27  C   UNL     1      51.042   1.492  17.195  0.00  0.00    +0.000 A 
ATOM     28  N   UNL     1      49.696   1.745  17.090  0.00  0.00    +0.000 N 
ATOM     29  C   UNL     1      49.155   2.990  17.317  0.00  0.00    +0.000 A 
ATOM     30  O   UNL     1      47.943   3.161  17.397  0.00  0.00    +0.000 OA
ATOM     31  C   UNL     1      50.136   4.043  17.481  0.00  0.00    +0.000 A 
ATOM     32  H   UNL     1      49.042   0.986  16.962  0.00  0.00    +0.000 HD
ENDBRANCH  21  22
BRANCH  21  34
ATOM     33  N   UNL     1      47.277   6.256  19.607  0.00  0.00    +0.000 NA
ATOM     34  C   UNL     1      47.899   6.292  18.620  0.00  0.00    +0.000 C 
ENDBRANCH  21  34
ENDBRANCH   1  21
TORSDOF 7
ENDMDL
MODEL 2
REMARK VINA RESULT:    -8.116      2.110      2.951
REMARK INTER + INTRA:         -12.674
REMARK INTER:                 -11.502
REMARK INTRA:                  -1.171
REMARK UNBOUND:                -1.237
REMARK  Name = 
REMARK  7 active torsions:
REMARK  status: ('A' for Active; 'I' for Inactive)
REMARK    1  A    between atoms: C_2  and  C_3
REMARK    2  A    between atoms: C_3  and  N_4
REMARK    3  A    between atoms: C_3  and  C_22
REMARK    4  A    between atoms: C_5  and  C_7
REMARK    5  A    between atoms: C_10  and  C_11
REMARK    6  A    between atoms: C_11  and  N_12
REMARK    7  A    between atoms: C_13  and  C_15
REMARK                            x       y       z     vdW  Elec       q    Type
REMARK                         _______ _______ _______ _____ _____    ______ ____
ROOT
ATOM      1  N   UNL     1      47.888   7.322  14.899  0.00  0.00    +0.000 N 
ATOM      2  C   UNL     1      48.074   6.745  13.673  0.00  0.00    +0.000 C 
ATOM      3  O   UNL     1      49.181   6.566  13.182  0.00  0.00    +0.000 OA
ATOM      4  H   UNL     1      46.953   7.460  15.273  0.00  0.00    +0.000 HD
ENDROOT
BRANCH   2   5
ATOM      5  C   UNL     1      46.846   6.333  12.932  0.00  0.00    +0.000 A 
ATOM      6  C   UNL     1      46.685   6.777  11.615  0.00  0.00    +0.000 A 
ATOM      7  C   UNL     1      45.615   6.316  10.839  0.00  0.00    +0.000 A 
ATOM      8  C   UNL     1      44.684   5.408  11.369  0.00  0.00    +0.000 A 
ATOM      9  C   UNL     1      44.831   4.997  12.700  0.00  0.00    +0.000 A 
ATOM     10  C   UNL     1      45.898   5.459  13.474  0.00  0.00    +0.000 A 
BRANCH   8  11
ATOM     11  C   UNL     1      43.594   4.823  10.503  0.00  0.00    +0.000 C 
BRANCH  11  12
ATOM     12  N   UNL     1      44.151   4.251   9.296  0.00  0.00    +0.000 N 
ATOM     13  C   UNL     1      44.864   3.070   9.310  0.00  0.00    +0.000 C 
ATOM     14  O   UNL     1      45.125   2.460  10.341  0.00  0.00    +0.000 OA
ATOM     15  H   UNL     1      43.835   4.625   8.411  0.00  0.00    +0.000 HD
BRANCH  13  16
ATOM     16  C   UNL     1      45.347   2.640   7.928  0.00  0.00    +0.000 C 
ATOM     17  C   UNL     1      46.380   1.518   8.001  0.00  0.00    +0.000 C 
ATOM     18  C   UNL     1      47.139   1.573   6.679  0.00  0.00    +0.000 C 
ATOM     19  C   UNL     1      46.832   2.935   6.063  0.00  0.00    +0.000 C 
ATOM     20  C   UNL     1      46.089   3.719   7.140  0.00  0.00    +0.000 C 
ENDBRANCH  13  16
ENDBRANCH  11  12
ENDBRANCH   8  11
ENDBRANCH   2   5
BRANCH   1  21
ATOM     21  C   UNL     1      48.987   7.734  15.755  0.00  0.00    +0.000 C 
BRANCH  21  22
ATOM     22  C   UNL     1      48.647   7.494  17.218  0.00  0.00    +0.000 A 
ATOM     23  C   UNL     1      48.303   8.517  18.093  0.00  0.00    +0.000 A 
ATOM     24  S   UNL     1      48.066   7.992  19.701  0.00  0.00    +0.000 S 
ATOM     25  C   UNL     1      48.396   6.375  19.284  0.00  0.00    +0.000 A 
ATOM     26  N   UNL     1      48.409   5.390  20.222  0.00  0.00    +0.000 NA
ATOM     27  C   UNL     1      48.686   4.218  19.758  0.00  0.00    +0.000 A 
ATOM     28  N   UNL     1      48.928   3.934  18.437  0.00  0.00    +0.000 N 
ATOM     29  C   UNL     1      48.819   4.880  17.443  0.00  0.00    +0.000 A 
ATOM     30  O   UNL     1      48.861   4.576  16.255  0.00  0.00    +0.000 OA
ATOM     31  C   UNL     1      48.622   6.231  17.927  0.00  0.00    +0.000 A 
ATOM     32  H   UNL     1      49.075   2.982  18.137  0.00  0.00    +0.000 HD
ENDBRANCH  21  22
BRANCH  21  34
ATOM     33  N   UNL     1      49.584  10.265  15.287  0.00  0.00    +0.000 NA
ATOM     34  C   UNL     1      49.312   9.153  15.520  0.00  0.00    +0.000 C 
ENDBRANCH  21  34
ENDBRANCH   1  21
TORSDOF 7
ENDMDL
MODEL 3
REMARK VINA RESULT:    -7.972      1.603      2.141
REMARK INTER + INTRA:         -12.472
REMARK INTER:                 -11.494
REMARK INTRA:                  -0.978
REMARK UNBOUND:                -1.237
REMARK  Name = 
REMARK  7 active torsions:
REMARK  status: ('A' for Active; 'I' for Inactive)
REMARK    1  A    between atoms: C_2  and  C_3
REMARK    2  A    between atoms: C_3  and  N_4
REMARK    3  A    between atoms: C_3  and  C_22
REMARK    4  A    between atoms: C_5  and  C_7
REMARK    5  A    between atoms: C_10  and  C_11
REMARK    6  A    between atoms: C_11  and  N_12
REMARK    7  A    between atoms: C_13  and  C_15
REMARK                            x       y       z     vdW  Elec       q    Type
REMARK                         _______ _______ _______ _____ _____    ______ ____
ROOT
ATOM      1  N   UNL     1      47.857   5.538  16.007  0.00  0.00    +0.000 N 
ATOM      2  C   UNL     1      48.237   6.032  14.790  0.00  0.00    +0.000 C 
ATOM      3  O   UNL     1      49.273   6.664  14.621  0.00  0.00    +0.000 OA
ATOM      4  H   UNL     1      46.987   5.023  16.111  0.00  0.00    +0.000 HD
ENDROOT
BRANCH   2   5
ATOM      5  C   UNL     1      47.319   5.769  13.643  0.00  0.00    +0.000 A 
ATOM      6  C   UNL     1      46.304   4.821  13.808  0.00  0.00    +0.000 A 
ATOM      7  C   UNL     1      45.343   4.631  12.808  0.00  0.00    +0.000 A 
ATOM      8  C   UNL     1      45.385   5.383  11.623  0.00  0.00    +0.000 A 
ATOM      9  C   UNL     1      46.426   6.305  11.448  0.00  0.00    +0.000 A 
ATOM     10  C   UNL     1      47.385   6.492  12.447  0.00  0.00    +0.000 A 
BRANCH   8  11
ATOM     11  C   UNL     1      44.290   5.263  10.590  0.00  0.00    +0.000 C 
BRANCH  11  12
ATOM     12  N   UNL     1      44.785   4.621   9.391  0.00  0.00    +0.000 N 
ATOM     13  C   UNL     1      44.918   3.250   9.301  0.00  0.00    +0.000 C 
ATOM     14  O   UNL     1      44.688   2.493  10.238  0.00  0.00    +0.000 OA
ATOM     15  H   UNL     1      44.838   5.177   8.549  0.00  0.00    +0.000 HD
BRANCH  13  16
ATOM     16  C   UNL     1      45.442   2.783   7.946  0.00  0.00    +0.000 C 
ATOM     17  C   UNL     1      46.273   1.507   8.057  0.00  0.00    +0.000 C 
ATOM     18  C   UNL     1      47.140   1.471   6.803  0.00  0.00    +0.000 C 
ATOM     19  C   UNL     1      47.107   2.881   6.218  0.00  0.00    +0.000 C 
ATOM     20  C   UNL     1      46.411   3.747   7.262  0.00  0.00    +0.000 C 
ENDBRANCH  13  16
ENDBRANCH  11  12
ENDBRANCH   8  11
ENDBRANCH   2   5
BRANCH   1  21
ATOM     21  C   UNL     1      48.666   5.676  17.205  0.00  0.00    +0.000 C 
BRANCH  21  22
ATOM     22  C   UNL     1      49.655   4.527  17.320  0.00  0.00    +0.000 A 
ATOM     23  C   UNL     1      49.295   3.197  17.141  0.00  0.00    +0.000 A 
ATOM     24  S   UNL     1      50.572   2.097  17.424  0.00  0.00    +0.000 S 
ATOM     25  C   UNL     1      51.658   3.359  17.777  0.00  0.00    +0.000 A 
ATOM     26  N   UNL     1      52.941   3.104  18.151  0.00  0.00    +0.000 NA
ATOM     27  C   UNL     1      53.642   4.159  18.397  0.00  0.00    +0.000 A 
ATOM     28  N   UNL     1      53.186   5.449  18.279  0.00  0.00    +0.000 N 
ATOM     29  C   UNL     1      51.931   5.752  17.802  0.00  0.00    +0.000 A 
ATOM     30  O   UNL     1      51.604   6.903  17.533  0.00  0.00    +0.000 OA
ATOM     31  C   UNL     1      51.071   4.600  17.620  0.00  0.00    +0.000 A 
ATOM     32  H   UNL     1      53.811   6.227  18.427  0.00  0.00    +0.000 HD
ENDBRANCH  21  22
BRANCH  21  34
ATOM     33  N   UNL     1      47.140   5.845  19.354  0.00  0.00    +0.000 NA
ATOM     34  C   UNL     1      47.804   5.745  18.400  0.00  0.00    +0.000 C 
ENDBRANCH  21  34
ENDBRANCH   1  21
TORSDOF 7
ENDMDL
MODEL 4
REMARK VINA RESULT:    -7.896      2.057      3.995
REMARK INTER + INTRA:         -12.364
REMARK INTER:                 -11.397
REMARK INTRA:                  -0.967
REMARK UNBOUND:                -1.237
REMARK  Name = 
REMARK  7 active torsions:
REMARK  status: ('A' for Active; 'I' for Inactive)
REMARK    1  A    between atoms: C_2  and  C_3
REMARK    2  A    between atoms: C_3  and  N_4
REMARK    3  A    between atoms: C_3  and  C_22
REMARK    4  A    between atoms: C_5  and  C_7
REMARK    5  A    between atoms: C_10  and  C_11
REMARK    6  A    between atoms: C_11  and  N_12
REMARK    7  A    between atoms: C_13  and  C_15
REMARK                            x       y       z     vdW  Elec       q    Type
REMARK                         _______ _______ _______ _____ _____    ______ ____
ROOT
ATOM      1  N   UNL     1      47.927   5.415  16.183  0.00  0.00    +0.000 N 
ATOM      2  C   UNL     1      47.462   4.448  15.335  0.00  0.00    +0.000 C 
ATOM      3  O   UNL     1      47.608   3.250  15.547  0.00  0.00    +0.000 OA
ATOM      4  H   UNL     1      47.794   6.400  15.971  0.00  0.00    +0.000 HD
ENDROOT
BRANCH   2   5
ATOM      5  C   UNL     1      46.755   4.915  14.107  0.00  0.00    +0.000 A 
ATOM      6  C   UNL     1      47.297   5.994  13.399  0.00  0.00    +0.000 A 
ATOM      7  C   UNL     1      46.741   6.387  12.175  0.00  0.00    +0.000 A 
ATOM      8  C   UNL     1      45.632   5.712  11.642  0.00  0.00    +0.000 A 
ATOM      9  C   UNL     1      45.073   4.656  12.373  0.00  0.00    +0.000 A 
ATOM     10  C   UNL     1      45.627   4.265  13.596  0.00  0.00    +0.000 A 
BRANCH   8  11
ATOM     11  C   UNL     1      45.099   6.059  10.272  0.00  0.00    +0.000 C 
BRANCH  11  12
ATOM     12  N   UNL     1      45.563   5.107   9.286  0.00  0.00    +0.000 N 
ATOM     13  C   UNL     1      44.807   4.012   8.917  0.00  0.00    +0.000 C 
ATOM     14  O   UNL     1      43.730   3.739   9.436  0.00  0.00    +0.000 OA
ATOM     15  H   UNL     1      46.360   5.366   8.722  0.00  0.00    +0.000 HD
BRANCH  13  16
ATOM     16  C   UNL     1      45.476   3.148   7.854  0.00  0.00    +0.000 C 
ATOM     17  C   UNL     1      45.928   1.798   8.407  0.00  0.00    +0.000 C 
ATOM     18  C   UNL     1      47.005   1.302   7.448  0.00  0.00    +0.000 C 
ATOM     19  C   UNL     1      47.442   2.513   6.628  0.00  0.00    +0.000 C 
ATOM     20  C   UNL     1      46.773   3.719   7.280  0.00  0.00    +0.000 C 
ENDBRANCH  13  16
ENDBRANCH  11  12
ENDBRANCH   8  11
ENDBRANCH   2   5
BRANCH   1  21
ATOM     21  C   UNL     1      48.596   5.114  17.436  0.00  0.00    +0.000 C 
BRANCH  21  22
ATOM     22  C   UNL     1      48.275   6.169  18.483  0.00  0.00    +0.000 A 
ATOM     23  C   UNL     1      48.010   5.862  19.812  0.00  0.00    +0.000 A 
ATOM     24  S   UNL     1      47.582   7.220  20.756  0.00  0.00    +0.000 S 
ATOM     25  C   UNL     1      47.755   8.271  19.429  0.00  0.00    +0.000 A 
ATOM     26  N   UNL     1      47.488   9.600  19.540  0.00  0.00    +0.000 NA
ATOM     27  C   UNL     1      47.652  10.268  18.448  0.00  0.00    +0.000 A 
ATOM     28  N   UNL     1      48.084   9.733  17.259  0.00  0.00    +0.000 N 
ATOM     29  C   UNL     1      48.466   8.417  17.133  0.00  0.00    +0.000 A 
ATOM     30  O   UNL     1      49.016   8.000  16.118  0.00  0.00    +0.000 OA
ATOM     31  C   UNL     1      48.192   7.604  18.300  0.00  0.00    +0.000 A 
ATOM     32  H   UNL     1      48.251  10.329  16.462  0.00  0.00    +0.000 HD
ENDBRANCH  21  22
BRANCH  21  34
ATOM     33  N   UNL     1      51.209   4.979  17.074  0.00  0.00    +0.000 NA
ATOM     34  C   UNL     1      50.053   5.012  17.227  0.00  0.00    +0.000 C 
ENDBRANCH  21  34
ENDBRANCH   1  21
TORSDOF 7
ENDMDL
MODEL 5
REMARK VINA RESULT:    -7.028      1.868      2.266
REMARK INTER + INTRA:         -11.141
REMARK INTER:                 -10.184
REMARK INTRA:                  -0.957
REMARK UNBOUND:                -1.237
REMARK  Name = 
REMARK  7 active torsions:
REMARK  status: ('A' for Active; 'I' for Inactive)
REMARK    1  A    between atoms: C_2  and  C_3
REMARK    2  A    between atoms: C_3  and  N_4
REMARK    3  A    between atoms: C_3  and  C_22
REMARK    4  A    between atoms: C_5  and  C_7
REMARK    5  A    between atoms: C_10  and  C_11
REMARK    6  A    between atoms: C_11  and  N_12
REMARK    7  A    between atoms: C_13  and  C_15
REMARK                            x       y       z     vdW  Elec       q    Type
REMARK                         _______ _______ _______ _____ _____    ______ ____
ROOT
ATOM      1  N   UNL     1      49.253   7.315  16.014  0.00  0.00    +0.000 N 
ATOM      2  C   UNL     1      49.450   7.670  14.708  0.00  0.00    +0.000 C 
ATOM      3  O   UNL     1      50.526   8.069  14.281  0.00  0.00    +0.000 OA
ATOM      4  H   UNL     1      48.344   6.993  16.335  0.00  0.00    +0.000 HD
ENDROOT
BRANCH   2   5
ATOM      5  C   UNL     1      48.273   7.554  13.797  0.00  0.00    +0.000 A 
ATOM      6  C   UNL     1      48.126   6.381  13.048  0.00  0.00    +0.000 A 
ATOM      7  C   UNL     1      46.976   6.174  12.276  0.00  0.00    +0.000 A 
ATOM      8  C   UNL     1      45.958   7.139  12.237  0.00  0.00    +0.000 A 
ATOM      9  C   UNL     1      46.128   8.326  12.960  0.00  0.00    +0.000 A 
ATOM     10  C   UNL     1      47.276   8.533  13.729  0.00  0.00    +0.000 A 
BRANCH   8  11
ATOM     11  C   UNL     1      44.668   6.873  11.497  0.00  0.00    +0.000 C 
BRANCH  11  12
ATOM     12  N   UNL     1      44.858   5.855  10.486  0.00  0.00    +0.000 N 
ATOM     13  C   UNL     1      43.967   4.815  10.322  0.00  0.00    +0.000 C 
ATOM     14  O   UNL     1      42.995   4.647  11.052  0.00  0.00    +0.000 OA
ATOM     15  H   UNL     1      45.546   6.032   9.767  0.00  0.00    +0.000 HD
BRANCH  13  16
ATOM     16  C   UNL     1      44.349   3.865   9.191  0.00  0.00    +0.000 C 
ATOM     17  C   UNL     1      44.768   2.491   9.708  0.00  0.00    +0.000 C 
ATOM     18  C   UNL     1      45.603   1.870   8.593  0.00  0.00    +0.000 C 
ATOM     19  C   UNL     1      45.993   3.014   7.661  0.00  0.00    +0.000 C 
ATOM     20  C   UNL     1      45.567   4.294   8.373  0.00  0.00    +0.000 C 
ENDBRANCH  13  16
ENDBRANCH  11  12
ENDBRANCH   8  11
ENDBRANCH   2   5
BRANCH   1  21
ATOM     21  C   UNL     1      50.312   7.333  17.007  0.00  0.00    +0.000 C 
BRANCH  21  22
ATOM     22  C   UNL     1      50.834   5.928  17.262  0.00  0.00    +0.000 A 
ATOM     23  C   UNL     1      52.165   5.655  17.554  0.00  0.00    +0.000 A 
ATOM     24  S   UNL     1      52.506   3.987  17.699  0.00  0.00    +0.000 S 
ATOM     25  C   UNL     1      50.884   3.569  17.397  0.00  0.00    +0.000 A 
ATOM     26  N   UNL     1      50.489   2.269  17.331  0.00  0.00    +0.000 NA
ATOM     27  C   UNL     1      49.233   2.107  17.084  0.00  0.00    +0.000 A 
ATOM     28  N   UNL     1      48.328   3.127  16.919  0.00  0.00    +0.000 N 
ATOM     29  C   UNL     1      48.665   4.451  17.083  0.00  0.00    +0.000 A 
ATOM     30  O   UNL     1      47.814   5.335  17.110  0.00  0.00    +0.000 OA
ATOM     31  C   UNL     1      50.085   4.687  17.250  0.00  0.00    +0.000 A 
ATOM     32  H   UNL     1      47.348   2.925  16.792  0.00  0.00    +0.000 HD
ENDBRANCH  21  22
BRANCH  21  34
ATOM     33  N   UNL     1      49.489   8.457  19.252  0.00  0.00    +0.000 NA
ATOM     34  C   UNL     1      49.829   7.946  18.259  0.00  0.00    +0.000 C 
ENDBRANCH  21  34
ENDBRANCH   1  21
TORSDOF 7
ENDMDL
MODEL 6
REMARK VINA RESULT:    -7.026      2.259      3.701
REMARK INTER + INTRA:         -11.138
REMARK INTER:                 -10.116
REMARK INTRA:                  -1.022
REMARK UNBOUND:                -1.237
REMARK  Name = 
REMARK  7 active torsions:
REMARK  status: ('A' for Active; 'I' for Inactive)
REMARK    1  A    between atoms: C_2  and  C_3
REMARK    2  A    between atoms: C_3  and  N_4
REMARK    3  A    between atoms: C_3  and  C_22
REMARK    4  A    between atoms: C_5  and  C_7
REMARK    5  A    between atoms: C_10  and  C_11
REMARK    6  A    between atoms: C_11  and  N_12
REMARK    7  A    between atoms: C_13  and  C_15
REMARK                            x       y       z     vdW  Elec       q    Type
REMARK                         _______ _______ _______ _____ _____    ______ ____
ROOT
ATOM      1  N   UNL     1      49.191   6.236  15.703  0.00  0.00    +0.000 N 
ATOM      2  C   UNL     1      48.189   5.329  15.497  0.00  0.00    +0.000 C 
ATOM      3  O   UNL     1      47.883   4.475  16.321  0.00  0.00    +0.000 OA
ATOM      4  H   UNL     1      49.422   6.927  14.994  0.00  0.00    +0.000 HD
ENDROOT
BRANCH   2   5
ATOM      5  C   UNL     1      47.463   5.414  14.196  0.00  0.00    +0.000 A 
ATOM      6  C   UNL     1      46.650   4.340  13.818  0.00  0.00    +0.000 A 
ATOM      7  C   UNL     1      45.853   4.426  12.670  0.00  0.00    +0.000 A 
ATOM      8  C   UNL     1      45.861   5.585  11.878  0.00  0.00    +0.000 A 
ATOM      9  C   UNL     1      46.705   6.642  12.242  0.00  0.00    +0.000 A 
ATOM     10  C   UNL     1      47.501   6.555  13.387  0.00  0.00    +0.000 A 
BRANCH   8  11
ATOM     11  C   UNL     1      44.922   5.727  10.704  0.00  0.00    +0.000 C 
BRANCH  11  12
ATOM     12  N   UNL     1      45.366   4.914   9.592  0.00  0.00    +0.000 N 
ATOM     13  C   UNL     1      44.729   3.739   9.248  0.00  0.00    +0.000 C 
ATOM     14  O   UNL     1      43.792   3.275   9.889  0.00  0.00    +0.000 OA
ATOM     15  H   UNL     1      46.025   5.325   8.945  0.00  0.00    +0.000 HD
BRANCH  13  16
ATOM     16  C   UNL     1      45.350   3.049   8.038  0.00  0.00    +0.000 C 
ATOM     17  C   UNL     1      45.985   1.708   8.401  0.00  0.00    +0.000 C 
ATOM     18  C   UNL     1      46.988   1.415   7.290  0.00  0.00    +0.000 C 
ATOM     19  C   UNL     1      47.215   2.734   6.556  0.00  0.00    +0.000 C 
ATOM     20  C   UNL     1      46.515   3.800   7.394  0.00  0.00    +0.000 C 
ENDBRANCH  13  16
ENDBRANCH  11  12
ENDBRANCH   8  11
ENDBRANCH   2   5
BRANCH   1  21
ATOM     21  C   UNL     1      49.956   6.304  16.936  0.00  0.00    +0.000 C 
BRANCH  21  22
ATOM     22  C   UNL     1      49.626   7.575  17.702  0.00  0.00    +0.000 A 
ATOM     23  C   UNL     1      50.151   8.818  17.370  0.00  0.00    +0.000 A 
ATOM     24  S   UNL     1      49.700  10.063  18.450  0.00  0.00    +0.000 S 
ATOM     25  C   UNL     1      48.771   8.991  19.391  0.00  0.00    +0.000 A 
ATOM     26  N   UNL     1      48.137   9.407  20.520  0.00  0.00    +0.000 NA
ATOM     27  C   UNL     1      47.482   8.480  21.134  0.00  0.00    +0.000 A 
ATOM     28  N   UNL     1      47.382   7.178  20.709  0.00  0.00    +0.000 N 
ATOM     29  C   UNL     1      47.918   6.742  19.519  0.00  0.00    +0.000 A 
ATOM     30  O   UNL     1      47.668   5.628  19.069  0.00  0.00    +0.000 OA
ATOM     31  C   UNL     1      48.756   7.717  18.853  0.00  0.00    +0.000 A 
ATOM     32  H   UNL     1      46.798   6.522  21.207  0.00  0.00    +0.000 HD
ENDBRANCH  21  22
BRANCH  21  34
ATOM     33  N   UNL     1      52.549   6.215  16.435  0.00  0.00    +0.000 NA
ATOM     34  C   UNL     1      51.400   6.229  16.646  0.00  0.00    +0.000 C 
ENDBRANCH  21  34
ENDBRANCH   1  21
TORSDOF 7
ENDMDL
MODEL 7
REMARK VINA RESULT:    -6.905      1.970      3.421
REMARK INTER + INTRA:         -10.968
REMARK INTER:                 -10.094
REMARK INTRA:                  -0.874
REMARK UNBOUND:                -1.237
REMARK  Name = 
REMARK  7 active torsions:
REMARK  status: ('A' for Active; 'I' for Inactive)
REMARK    1  A    between atoms: C_2  and  C_3
REMARK    2  A    between atoms: C_3  and  N_4
REMARK    3  A    between atoms: C_3  and  C_22
REMARK    4  A    between atoms: C_5  and  C_7
REMARK    5  A    between atoms: C_10  and  C_11
REMARK    6  A    between atoms: C_11  and  N_12
REMARK    7  A    between atoms: C_13  and  C_15
REMARK                            x       y       z     vdW  Elec       q    Type
REMARK                         _______ _______ _______ _____ _____    ______ ____
ROOT
ATOM      1  N   UNL     1      48.668   5.295  16.061  0.00  0.00    +0.000 N 
ATOM      2  C   UNL     1      47.494   4.705  15.680  0.00  0.00    +0.000 C 
ATOM      3  O   UNL     1      46.844   3.976  16.419  0.00  0.00    +0.000 OA
ATOM      4  H   UNL     1      49.183   5.890  15.418  0.00  0.00    +0.000 HD
ENDROOT
BRANCH   2   5
ATOM      5  C   UNL     1      47.020   4.987  14.293  0.00  0.00    +0.000 A 
ATOM      6  C   UNL     1      46.003   4.186  13.763  0.00  0.00    +0.000 A 
ATOM      7  C   UNL     1      45.439   4.489  12.518  0.00  0.00    +0.000 A 
ATOM      8  C   UNL     1      45.889   5.595  11.779  0.00  0.00    +0.000 A 
ATOM      9  C   UNL     1      46.933   6.371  12.298  0.00  0.00    +0.000 A 
ATOM     10  C   UNL     1      47.496   6.066  13.541  0.00  0.00    +0.000 A 
BRANCH   8  11
ATOM     11  C   UNL     1      45.211   5.991  10.489  0.00  0.00    +0.000 C 
BRANCH  11  12
ATOM     12  N   UNL     1      45.602   5.108   9.412  0.00  0.00    +0.000 N 
ATOM     13  C   UNL     1      44.827   4.028   9.037  0.00  0.00    +0.000 C 
ATOM     14  O   UNL     1      43.797   3.710   9.622  0.00  0.00    +0.000 OA
ATOM     15  H   UNL     1      46.349   5.412   8.804  0.00  0.00    +0.000 HD
BRANCH  13  16
ATOM     16  C   UNL     1      45.416   3.239   7.873  0.00  0.00    +0.000 C 
ATOM     17  C   UNL     1      45.957   1.879   8.311  0.00  0.00    +0.000 C 
ATOM     18  C   UNL     1      46.952   1.466   7.231  0.00  0.00    +0.000 C 
ATOM     19  C   UNL     1      47.274   2.730   6.437  0.00  0.00    +0.000 C 
ATOM     20  C   UNL     1      46.636   3.879   7.211  0.00  0.00    +0.000 C 
ENDBRANCH  13  16
ENDBRANCH  11  12
ENDBRANCH   8  11
ENDBRANCH   2   5
BRANCH   1  21
ATOM     21  C   UNL     1      49.231   5.149  17.391  0.00  0.00    +0.000 C 
BRANCH  21  22
ATOM     22  C   UNL     1      50.447   6.046  17.561  0.00  0.00    +0.000 A 
ATOM     23  C   UNL     1      51.731   5.553  17.759  0.00  0.00    +0.000 A 
ATOM     24  S   UNL     1      52.900   6.771  18.019  0.00  0.00    +0.000 S 
ATOM     25  C   UNL     1      51.738   8.004  17.856  0.00  0.00    +0.000 A 
ATOM     26  N   UNL     1      52.068   9.314  18.014  0.00  0.00    +0.000 NA
ATOM     27  C   UNL     1      51.080  10.132  17.873  0.00  0.00    +0.000 A 
ATOM     28  N   UNL     1      49.794   9.763  17.563  0.00  0.00    +0.000 N 
ATOM     29  C   UNL     1      49.441   8.461  17.291  0.00  0.00    +0.000 A 
ATOM     30  O   UNL     1      48.336   8.172  16.843  0.00  0.00    +0.000 OA
ATOM     31  C   UNL     1      50.490   7.495  17.547  0.00  0.00    +0.000 A 
ATOM     32  H   UNL     1      49.086  10.464  17.405  0.00  0.00    +0.000 HD
ENDBRANCH  21  22
BRANCH  21  34
ATOM     33  N   UNL     1      49.908   2.638  17.857  0.00  0.00    +0.000 NA
ATOM     34  C   UNL     1      49.583   3.739  17.646  0.00  0.00    +0.000 C 
ENDBRANCH  21  34
ENDBRANCH   1  21
TORSDOF 7
ENDMDL
MODEL 8
REMARK VINA RESULT:    -6.377      2.210      2.959
REMARK INTER + INTRA:         -10.224
REMARK INTER:                  -9.213
REMARK INTRA:                  -1.011
REMARK UNBOUND:                -1.237
REMARK  Name = 
REMARK  7 active torsions:
REMARK  status: ('A' for Active; 'I' for Inactive)
REMARK    1  A    between atoms: C_2  and  C_3
REMARK    2  A    between atoms: C_3  and  N_4
REMARK    3  A    between atoms: C_3  and  C_22
REMARK    4  A    between atoms: C_5  and  C_7
REMARK    5  A    between atoms: C_10  and  C_11
REMARK    6  A    between atoms: C_11  and  N_12
REMARK    7  A    between atoms: C_13  and  C_15
REMARK                            x       y       z     vdW  Elec       q    Type
REMARK                         _______ _______ _______ _____ _____    ______ ____
ROOT
ATOM      1  N   UNL     1      49.207   6.429  16.096  0.00  0.00    +0.000 N 
ATOM      2  C   UNL     1      49.226   7.436  15.171  0.00  0.00    +0.000 C 
ATOM      3  O   UNL     1      50.072   8.323  15.168  0.00  0.00    +0.000 OA
ATOM      4  H   UNL     1      48.486   5.714  16.071  0.00  0.00    +0.000 HD
ENDROOT
BRANCH   2   5
ATOM      5  C   UNL     1      48.149   7.420  14.138  0.00  0.00    +0.000 A 
ATOM      6  C   UNL     1      47.735   6.184  13.630  0.00  0.00    +0.000 A 
ATOM      7  C   UNL     1      46.644   6.108  12.755  0.00  0.00    +0.000 A 
ATOM      8  C   UNL     1      45.953   7.267  12.371  0.00  0.00    +0.000 A 
ATOM      9  C   UNL     1      46.395   8.505  12.855  0.00  0.00    +0.000 A 
ATOM     10  C   UNL     1      47.485   8.580  13.726  0.00  0.00    +0.000 A 
BRANCH   8  11
ATOM     11  C   UNL     1      44.709   7.180  11.518  0.00  0.00    +0.000 C 
BRANCH  11  12
ATOM     12  N   UNL     1      44.769   6.031  10.641  0.00  0.00    +0.000 N 
ATOM     13  C   UNL     1      43.747   5.104  10.583  0.00  0.00    +0.000 C 
ATOM     14  O   UNL     1      42.757   5.156  11.305  0.00  0.00    +0.000 OA
ATOM     15  H   UNL     1      45.479   6.026   9.922  0.00  0.00    +0.000 HD
BRANCH  13  16
ATOM     16  C   UNL     1      44.007   3.982   9.584  0.00  0.00    +0.000 C 
ATOM     17  C   UNL     1      44.634   2.755  10.243  0.00  0.00    +0.000 C 
ATOM     18  C   UNL     1      45.311   1.984   9.115  0.00  0.00    +0.000 C 
ATOM     19  C   UNL     1      45.424   2.952   7.940  0.00  0.00    +0.000 C 
ATOM     20  C   UNL     1      45.017   4.316   8.486  0.00  0.00    +0.000 C 
ENDBRANCH  13  16
ENDBRANCH  11  12
ENDBRANCH   8  11
ENDBRANCH   2   5
BRANCH   1  21
ATOM     21  C   UNL     1      50.214   6.289  17.133  0.00  0.00    +0.000 C 
BRANCH  21  22
ATOM     22  C   UNL     1      50.657   4.840  17.258  0.00  0.00    +0.000 A 
ATOM     23  C   UNL     1      49.799   3.765  17.059  0.00  0.00    +0.000 A 
ATOM     24  S   UNL     1      50.523   2.246  17.358  0.00  0.00    +0.000 S 
ATOM     25  C   UNL     1      52.015   2.967  17.744  0.00  0.00    +0.000 A 
ATOM     26  N   UNL     1      53.080   2.221  18.142  0.00  0.00    +0.000 NA
ATOM     27  C   UNL     1      54.139   2.907  18.412  0.00  0.00    +0.000 A 
ATOM     28  N   UNL     1      54.240   4.272  18.297  0.00  0.00    +0.000 N 
ATOM     29  C   UNL     1      53.222   5.051  17.796  0.00  0.00    +0.000 A 
ATOM     30  O   UNL     1      53.389   6.238  17.532  0.00  0.00    +0.000 OA
ATOM     31  C   UNL     1      51.977   4.341  17.587  0.00  0.00    +0.000 A 
ATOM     32  H   UNL     1      55.121   4.735  18.464  0.00  0.00    +0.000 HD
ENDBRANCH  21  22
BRANCH  21  34
ATOM     33  N   UNL     1      49.265   7.139  19.447  0.00  0.00    +0.000 NA
ATOM     34  C   UNL     1      49.695   6.789  18.420  0.00  0.00    +0.000 C 
ENDBRANCH  21  34
ENDBRANCH   1  21
TORSDOF 7
ENDMDL
MODEL 9
REMARK VINA RESULT:    -5.730      5.815      7.811
REMARK INTER + INTRA:          -9.313
REMARK INTER:                  -8.049
REMARK INTRA:                  -1.263
REMARK UNBOUND:                -1.237
REMARK  Name = 
REMARK  7 active torsions:
REMARK  status: ('A' for Active; 'I' for Inactive)
REMARK    1  A    between atoms: C_2  and  C_3
REMARK    2  A    between atoms: C_3  and  N_4
REMARK    3  A    between atoms: C_3  and  C_22
REMARK    4  A    between atoms: C_5  and  C_7
REMARK    5  A    between atoms: C_10  and  C_11
REMARK    6  A    between atoms: C_11  and  N_12
REMARK    7  A    between atoms: C_13  and  C_15
REMARK                            x       y       z     vdW  Elec       q    Type
REMARK                         _______ _______ _______ _____ _____    ______ ____
ROOT
ATOM      1  N   UNL     1      47.290   8.340  12.001  0.00  0.00    +0.000 N 
ATOM      2  C   UNL     1      48.353   8.988  12.566  0.00  0.00    +0.000 C 
ATOM      3  O   UNL     1      48.284   9.569  13.643  0.00  0.00    +0.000 OA
ATOM      4  H   UNL     1      47.383   7.873  11.103  0.00  0.00    +0.000 HD
ENDROOT
BRANCH   2   5
ATOM      5  C   UNL     1      49.636   8.965  11.804  0.00  0.00    +0.000 A 
ATOM      6  C   UNL     1      50.273  10.183  11.540  0.00  0.00    +0.000 A 
ATOM      7  C   UNL     1      51.538  10.204  10.940  0.00  0.00    +0.000 A 
ATOM      8  C   UNL     1      52.183   9.008  10.589  0.00  0.00    +0.000 A 
ATOM      9  C   UNL     1      51.525   7.795  10.823  0.00  0.00    +0.000 A 
ATOM     10  C   UNL     1      50.261   7.774  11.420  0.00  0.00    +0.000 A 
BRANCH   8  11
ATOM     11  C   UNL     1      53.592   9.020  10.045  0.00  0.00    +0.000 C 
BRANCH  11  12
ATOM     12  N   UNL     1      53.808   7.899   9.155  0.00  0.00    +0.000 N 
ATOM     13  C   UNL     1      53.642   8.010   7.789  0.00  0.00    +0.000 C 
ATOM     14  O   UNL     1      53.247   9.036   7.246  0.00  0.00    +0.000 OA
ATOM     15  H   UNL     1      54.279   7.088   9.529  0.00  0.00    +0.000 HD
BRANCH  13  16
ATOM     16  C   UNL     1      53.934   6.715   7.039  0.00  0.00    +0.000 C 
ATOM     17  C   UNL     1      52.785   5.714   7.147  0.00  0.00    +0.000 C 
ATOM     18  C   UNL     1      53.401   4.350   6.849  0.00  0.00    +0.000 C 
ATOM     19  C   UNL     1      54.911   4.521   6.985  0.00  0.00    +0.000 C 
ATOM     20  C   UNL     1      55.120   5.913   7.574  0.00  0.00    +0.000 C 
ENDBRANCH  13  16
ENDBRANCH  11  12
ENDBRANCH   8  11
ENDBRANCH   2   5
BRANCH   1  21
ATOM     21  C   UNL     1      45.991   8.239  12.643  0.00  0.00    +0.000 C 
BRANCH  21  22
ATOM     22  C   UNL     1      45.267   6.979  12.196  0.00  0.00    +0.000 A 
ATOM     23  C   UNL     1      44.115   7.003  11.421  0.00  0.00    +0.000 A 
ATOM     24  S   UNL     1      43.446   5.456  11.142  0.00  0.00    +0.000 S 
ATOM     25  C   UNL     1      44.682   4.695  12.029  0.00  0.00    +0.000 A 
ATOM     26  N   UNL     1      44.688   3.349  12.226  0.00  0.00    +0.000 NA
ATOM     27  C   UNL     1      45.681   2.919  12.928  0.00  0.00    +0.000 A 
ATOM     28  N   UNL     1      46.686   3.708  13.432  0.00  0.00    +0.000 N 
ATOM     29  C   UNL     1      46.775   5.056  13.167  0.00  0.00    +0.000 A 
ATOM     30  O   UNL     1      47.768   5.709  13.471  0.00  0.00    +0.000 OA
ATOM     31  C   UNL     1      45.624   5.603  12.478  0.00  0.00    +0.000 A 
ATOM     32  H   UNL     1      47.466   3.293  13.919  0.00  0.00    +0.000 HD
ENDBRANCH  21  22
BRANCH  21  34
ATOM     33  N   UNL     1      44.552  10.402  12.167  0.00  0.00    +0.000 NA
ATOM     34  C   UNL     1      45.183   9.438  12.352  0.00  0.00    +0.000 C 
ENDBRANCH  21  34
ENDBRANCH   1  21
TORSDOF 7
ENDMDL
