MODEL 1
REMARK VINA RESULT:    -8.352      0.000      0.000
REMARK INTER + INTRA:         -11.990
REMARK INTER:                 -11.037
REMARK INTRA:                  -0.953
REMARK UNBOUND:                -0.953
REMARK  Name = 
REMARK  6 active torsions:
REMARK  status: ('A' for Active; 'I' for Inactive)
REMARK    1  A    between atoms: N_1  and  C_2
REMARK    2  A    between atoms: C_2  and  N_3
REMARK    3  A    between atoms: C_2  and  C_16
REMARK    4  A    between atoms: C_4  and  C_6
REMARK    5  A    between atoms: C_19  and  C_20
REMARK    6  A    between atoms: C_20  and  N_21
REMARK                            x       y       z     vdW  Elec       q    Type
REMARK                         _______ _______ _______ _____ _____    ______ ____
ROOT
ATOM      1  C   UNL     1      47.655   8.071  13.926  0.00  0.00    +0.000 C 
ENDROOT
BRANCH   1   2
ATOM      2  C   UNL     1      46.620   7.322  13.080  0.00  0.00    +0.000 A 
ATOM      3  C   UNL     1      45.819   8.031  12.187  0.00  0.00    +0.000 A 
ATOM      4  C   UNL     1      44.901   7.339  11.398  0.00  0.00    +0.000 A 
ATOM      5  C   UNL     1      44.787   5.951  11.517  0.00  0.00    +0.000 A 
ATOM      6  C   UNL     1      45.617   5.324  12.439  0.00  0.00    +0.000 A 
ATOM      7  N   UNL     1      46.517   5.967  13.223  0.00  0.00    +0.000 NA
BRANCH   5   8
ATOM      8  C   UNL     1      43.832   5.166  10.662  0.00  0.00    +0.000 C 
BRANCH   8   9
ATOM      9  N   UNL     1      44.509   4.574   9.529  0.00  0.00    +0.000 N 
ATOM     10  C   UNL     1      44.915   3.262   9.583  0.00  0.00    +0.000 C 
ATOM     11  O   UNL     1      44.762   2.589  10.599  0.00  0.00    +0.000 OA
ATOM     12  N   UNL     1      45.520   2.775   8.430  0.00  0.00    +0.000 N 
ATOM     13  C   UNL     1      45.785   1.336   8.357  0.00  0.00    +0.000 C 
ATOM     14  C   UNL     1      47.079   1.013   7.610  0.00  0.00    +0.000 C 
ATOM     15  C   UNL     1      47.137   1.708   6.254  0.00  0.00    +0.000 C 
ATOM     16  C   UNL     1      46.913   3.204   6.418  0.00  0.00    +0.000 C 
ATOM     17  C   UNL     1      45.615   3.500   7.161  0.00  0.00    +0.000 C 
ATOM     18  H   UNL     1      44.193   4.895   8.630  0.00  0.00    +0.000 HD
ENDBRANCH   8   9
ENDBRANCH   5   8
ENDBRANCH   1   2
BRANCH   1  19
ATOM     19  N   UNL     1      47.963   7.360  15.127  0.00  0.00    +0.000 N 
ATOM     20  C   UNL     1      49.211   6.934  15.474  0.00  0.00    +0.000 C 
ATOM     21  O   UNL     1      50.179   7.030  14.730  0.00  0.00    +0.000 OA
ATOM     22  H   UNL     1      47.160   7.148  15.705  0.00  0.00    +0.000 HD
BRANCH  20  23
ATOM     23  C   UNL     1      49.318   6.340  16.807  0.00  0.00    +0.000 A 
ATOM     24  C   UNL     1      49.926   7.026  17.847  0.00  0.00    +0.000 A 
ATOM     25  S   UNL     1      49.916   6.168  19.323  0.00  0.00    +0.000 S 
ATOM     26  C   UNL     1      49.075   4.862  18.624  0.00  0.00    +0.000 A 
ATOM     27  N   UNL     1      48.725   3.776  19.364  0.00  0.00    +0.000 NA
ATOM     28  C   UNL     1      48.079   2.870  18.709  0.00  0.00    +0.000 A 
ATOM     29  N   UNL     1      47.752   2.951  17.380  0.00  0.00    +0.000 N 
ATOM     30  C   UNL     1      48.056   4.039  16.595  0.00  0.00    +0.000 A 
ATOM     31  O   UNL     1      47.701   4.091  15.424  0.00  0.00    +0.000 OA
ATOM     32  C   UNL     1      48.810   5.074  17.283  0.00  0.00    +0.000 A 
ATOM     33  H   UNL     1      47.237   2.209  16.928  0.00  0.00    +0.000 HD
ENDBRANCH  20  23
ENDBRANCH   1  19
BRANCH   1  34
ATOM     34  N   UNL     1      47.148   9.352  14.397  0.00  0.00    +0.000 NA
ATOM     35  H   UNL     1      46.161   9.380  14.147  0.00  0.00    +0.000 HD
ATOM     36  H   UNL     1      47.584  10.063  13.808  0.00  0.00    +0.000 HD
ENDBRANCH   1  34
TORSDOF 6
ENDMDL
MODEL 2
REMARK VINA RESULT:    -8.067      1.489      1.795
REMARK INTER + INTRA:         -11.613
REMARK INTER:                 -10.558
REMARK INTRA:                  -1.055
REMARK UNBOUND:                -0.953
REMARK  Name = 
REMARK  6 active torsions:
REMARK  status: ('A' for Active; 'I' for Inactive)
REMARK    1  A    between atoms: N_1  and  C_2
REMARK    2  A    between atoms: C_2  and  N_3
REMARK    3  A    between atoms: C_2  and  C_16
REMARK    4  A    between atoms: C_4  and  C_6
REMARK    5  A    between atoms: C_19  and  C_20
REMARK    6  A    between atoms: C_20  and  N_21
REMARK                            x       y       z     vdW  Elec       q    Type
REMARK                         _______ _______ _______ _____ _____    ______ ____
ROOT
ATOM      1  C   UNL     1      47.910   7.772  14.217  0.00  0.00    +0.000 C 
ENDROOT
BRANCH   1   2
ATOM      2  C   UNL     1      46.842   7.125  13.328  0.00  0.00    +0.000 A 
ATOM      3  C   UNL     1      46.356   7.819  12.221  0.00  0.00    +0.000 A 
ATOM      4  C   UNL     1      45.407   7.212  11.400  0.00  0.00    +0.000 A 
ATOM      5  C   UNL     1      44.948   5.926  11.697  0.00  0.00    +0.000 A 
ATOM      6  C   UNL     1      45.478   5.310  12.825  0.00  0.00    +0.000 A 
ATOM      7  N   UNL     1      46.399   5.872  13.646  0.00  0.00    +0.000 NA
BRANCH   5   8
ATOM      8  C   UNL     1      43.949   5.226  10.819  0.00  0.00    +0.000 C 
BRANCH   8   9
ATOM      9  N   UNL     1      44.591   4.633   9.666  0.00  0.00    +0.000 N 
ATOM     10  C   UNL     1      44.937   3.304   9.683  0.00  0.00    +0.000 C 
ATOM     11  O   UNL     1      44.761   2.612  10.683  0.00  0.00    +0.000 OA
ATOM     12  N   UNL     1      45.512   2.820   8.514  0.00  0.00    +0.000 N 
ATOM     13  C   UNL     1      45.711   1.372   8.401  0.00  0.00    +0.000 C 
ATOM     14  C   UNL     1      46.983   1.011   7.636  0.00  0.00    +0.000 C 
ATOM     15  C   UNL     1      47.064   1.737   6.298  0.00  0.00    +0.000 C 
ATOM     16  C   UNL     1      46.909   3.237   6.502  0.00  0.00    +0.000 C 
ATOM     17  C   UNL     1      45.632   3.572   7.262  0.00  0.00    +0.000 C 
ATOM     18  H   UNL     1      44.285   4.991   8.778  0.00  0.00    +0.000 HD
ENDBRANCH   8   9
ENDBRANCH   5   8
ENDBRANCH   1   2
BRANCH   1  19
ATOM     19  N   UNL     1      48.323   6.891  15.263  0.00  0.00    +0.000 N 
ATOM     20  C   UNL     1      49.239   7.208  16.222  0.00  0.00    +0.000 C 
ATOM     21  O   UNL     1      49.879   8.253  16.215  0.00  0.00    +0.000 OA
ATOM     22  H   UNL     1      47.910   5.968  15.221  0.00  0.00    +0.000 HD
BRANCH  20  23
ATOM     23  C   UNL     1      49.416   6.202  17.271  0.00  0.00    +0.000 A 
ATOM     24  C   UNL     1      50.322   5.163  17.119  0.00  0.00    +0.000 A 
ATOM     25  S   UNL     1      50.394   4.124  18.472  0.00  0.00    +0.000 S 
ATOM     26  C   UNL     1      49.235   5.045  19.314  0.00  0.00    +0.000 A 
ATOM     27  N   UNL     1      48.848   4.704  20.572  0.00  0.00    +0.000 NA
ATOM     28  C   UNL     1      47.975   5.499  21.096  0.00  0.00    +0.000 A 
ATOM     29  N   UNL     1      47.454   6.604  20.474  0.00  0.00    +0.000 N 
ATOM     30  C   UNL     1      47.834   7.008  19.215  0.00  0.00    +0.000 A 
ATOM     31  O   UNL     1      47.378   8.031  18.717  0.00  0.00    +0.000 OA
ATOM     32  C   UNL     1      48.794   6.127  18.573  0.00  0.00    +0.000 A 
ATOM     33  H   UNL     1      46.778   7.190  20.942  0.00  0.00    +0.000 HD
ENDBRANCH  20  23
ENDBRANCH   1  19
BRANCH   1  34
ATOM     34  N   UNL     1      47.398   8.937  14.921  0.00  0.00    +0.000 NA
ATOM     35  H   UNL     1      48.147   9.628  14.916  0.00  0.00    +0.000 HD
ATOM     36  H   UNL     1      47.309   8.660  15.900  0.00  0.00    +0.000 HD
ENDBRANCH   1  34
TORSDOF 6
ENDMDL
MODEL 3
REMARK VINA RESULT:    -8.016      1.977      2.261
REMARK INTER + INTRA:         -11.546
REMARK INTER:                 -10.354
REMARK INTRA:                  -1.192
REMARK UNBOUND:                -0.953
REMARK  Name = 
REMARK  6 active torsions:
REMARK  status: ('A' for Active; 'I' for Inactive)
REMARK    1  A    between atoms: N_1  and  C_2
REMARK    2  A    between atoms: C_2  and  N_3
REMARK    3  A    between atoms: C_2  and  C_16
REMARK    4  A    between atoms: C_4  and  C_6
REMARK    5  A    between atoms: C_19  and  C_20
REMARK    6  A    between atoms: C_20  and  N_21
REMARK                            x       y       z     vdW  Elec       q    Type
REMARK                         _______ _______ _______ _____ _____    ______ ____
ROOT
ATOM      1  C   UNL     1      47.721   8.889  13.612  0.00  0.00    +0.000 C 
ENDROOT
BRANCH   1   2
ATOM      2  C   UNL     1      46.705   7.972  12.921  0.00  0.00    +0.000 A 
ATOM      3  C   UNL     1      45.730   8.527  12.094  0.00  0.00    +0.000 A 
ATOM      4  C   UNL     1      44.830   7.684  11.443  0.00  0.00    +0.000 A 
ATOM      5  C   UNL     1      44.906   6.302  11.635  0.00  0.00    +0.000 A 
ATOM      6  C   UNL     1      45.902   5.834  12.484  0.00  0.00    +0.000 A 
ATOM      7  N   UNL     1      46.791   6.626  13.133  0.00  0.00    +0.000 NA
BRANCH   5   8
ATOM      8  C   UNL     1      43.973   5.359  10.928  0.00  0.00    +0.000 C 
BRANCH   8   9
ATOM      9  N   UNL     1      44.614   4.748   9.784  0.00  0.00    +0.000 N 
ATOM     10  C   UNL     1      44.878   3.399   9.787  0.00  0.00    +0.000 C 
ATOM     11  O   UNL     1      44.628   2.703  10.767  0.00  0.00    +0.000 OA
ATOM     12  N   UNL     1      45.460   2.901   8.627  0.00  0.00    +0.000 N 
ATOM     13  C   UNL     1      45.574   1.446   8.493  0.00  0.00    +0.000 C 
ATOM     14  C   UNL     1      46.846   1.021   7.761  0.00  0.00    +0.000 C 
ATOM     15  C   UNL     1      47.014   1.763   6.440  0.00  0.00    +0.000 C 
ATOM     16  C   UNL     1      46.944   3.266   6.667  0.00  0.00    +0.000 C 
ATOM     17  C   UNL     1      45.665   3.666   7.394  0.00  0.00    +0.000 C 
ATOM     18  H   UNL     1      44.359   5.139   8.894  0.00  0.00    +0.000 HD
ENDBRANCH   8   9
ENDBRANCH   5   8
ENDBRANCH   1   2
BRANCH   1  19
ATOM     19  N   UNL     1      47.614   8.810  15.035  0.00  0.00    +0.000 N 
ATOM     20  C   UNL     1      48.488   9.387  15.908  0.00  0.00    +0.000 C 
ATOM     21  O   UNL     1      49.517   9.947  15.550  0.00  0.00    +0.000 OA
ATOM     22  H   UNL     1      46.845   8.241  15.366  0.00  0.00    +0.000 HD
BRANCH  20  23
ATOM     23  C   UNL     1      48.115   9.287  17.320  0.00  0.00    +0.000 A 
ATOM     24  C   UNL     1      47.668  10.397  18.020  0.00  0.00    +0.000 A 
ATOM     25  S   UNL     1      47.256  10.055  19.641  0.00  0.00    +0.000 S 
ATOM     26  C   UNL     1      47.637   8.406  19.451  0.00  0.00    +0.000 A 
ATOM     27  N   UNL     1      47.487   7.528  20.478  0.00  0.00    +0.000 NA
ATOM     28  C   UNL     1      47.798   6.308  20.188  0.00  0.00    +0.000 A 
ATOM     29  N   UNL     1      48.248   5.889  18.963  0.00  0.00    +0.000 N 
ATOM     30  C   UNL     1      48.390   6.731  17.884  0.00  0.00    +0.000 A 
ATOM     31  O   UNL     1      48.748   6.302  16.794  0.00  0.00    +0.000 OA
ATOM     32  C   UNL     1      48.078   8.120  18.171  0.00  0.00    +0.000 A 
ATOM     33  H   UNL     1      48.469   4.917  18.798  0.00  0.00    +0.000 HD
ENDBRANCH  20  23
ENDBRANCH   1  19
BRANCH   1  34
ATOM     34  N   UNL     1      47.473  10.293  13.320  0.00  0.00    +0.000 NA
ATOM     35  H   UNL     1      48.211  10.589  12.683  0.00  0.00    +0.000 HD
ATOM     36  H   UNL     1      47.660  10.800  14.187  0.00  0.00    +0.000 HD
ENDBRANCH   1  34
TORSDOF 6
ENDMDL
MODEL 4
REMARK VINA RESULT:    -7.750      4.853      9.574
REMARK INTER + INTRA:         -11.195
REMARK INTER:                 -10.405
REMARK INTRA:                  -0.790
REMARK UNBOUND:                -0.953
REMARK  Name = 
REMARK  6 active torsions:
REMARK  status: ('A' for Active; 'I' for Inactive)
REMARK    1  A    between atoms: N_1  and  C_2
REMARK    2  A    between atoms: C_2  and  N_3
REMARK    3  A    between atoms: C_2  and  C_16
REMARK    4  A    between atoms: C_4  and  C_6
REMARK    5  A    between atoms: C_19  and  C_20
REMARK    6  A    between atoms: C_20  and  N_21
REMARK                            x       y       z     vdW  Elec       q    Type
REMARK                         _______ _______ _______ _____ _____    ______ ____
ROOT
ATOM      1  C   UNL     1      47.515   3.276  16.851  0.00  0.00    +0.000 C 
ENDROOT
BRANCH   1   2
ATOM      2  C   UNL     1      49.005   3.073  17.147  0.00  0.00    +0.000 A 
ATOM      3  C   UNL     1      49.697   4.037  17.877  0.00  0.00    +0.000 A 
ATOM      4  C   UNL     1      51.045   3.832  18.171  0.00  0.00    +0.000 A 
ATOM      5  C   UNL     1      51.687   2.674  17.723  0.00  0.00    +0.000 A 
ATOM      6  C   UNL     1      50.924   1.769  16.993  0.00  0.00    +0.000 A 
ATOM      7  N   UNL     1      49.614   1.940  16.689  0.00  0.00    +0.000 NA
BRANCH   5   8
ATOM      8  C   UNL     1      53.129   2.402  18.045  0.00  0.00    +0.000 C 
BRANCH   8   9
ATOM      9  N   UNL     1      53.339   1.008  18.372  0.00  0.00    +0.000 N 
ATOM     10  C   UNL     1      54.139   0.230  17.572  0.00  0.00    +0.000 C 
ATOM     11  O   UNL     1      54.645   0.678  16.546  0.00  0.00    +0.000 OA
ATOM     12  N   UNL     1      54.309  -1.084  17.993  0.00  0.00    +0.000 N 
ATOM     13  C   UNL     1      55.310  -1.898  17.298  0.00  0.00    +0.000 C 
ATOM     14  C   UNL     1      54.893  -3.363  17.172  0.00  0.00    +0.000 C 
ATOM     15  C   UNL     1      54.467  -3.947  18.514  0.00  0.00    +0.000 C 
ATOM     16  C   UNL     1      53.386  -3.083  19.146  0.00  0.00    +0.000 C 
ATOM     17  C   UNL     1      53.827  -1.628  19.265  0.00  0.00    +0.000 C 
ATOM     18  H   UNL     1      53.376   0.804  19.356  0.00  0.00    +0.000 HD
ENDBRANCH   8   9
ENDBRANCH   5   8
ENDBRANCH   1   2
BRANCH   1  19
ATOM     19  N   UNL     1      47.310   4.300  15.875  0.00  0.00    +0.000 N 
ATOM     20  C   UNL     1      47.162   4.074  14.539  0.00  0.00    +0.000 C 
ATOM     21  O   UNL     1      47.296   2.968  14.029  0.00  0.00    +0.000 OA
ATOM     22  H   UNL     1      47.326   5.241  16.246  0.00  0.00    +0.000 HD
BRANCH  20  23
ATOM     23  C   UNL     1      46.834   5.256  13.740  0.00  0.00    +0.000 A 
ATOM     24  C   UNL     1      47.758   6.275  13.561  0.00  0.00    +0.000 A 
ATOM     25  S   UNL     1      47.185   7.542  12.571  0.00  0.00    +0.000 S 
ATOM     26  C   UNL     1      45.694   6.756  12.328  0.00  0.00    +0.000 A 
ATOM     27  N   UNL     1      44.730   7.307  11.543  0.00  0.00    +0.000 NA
ATOM     28  C   UNL     1      43.657   6.596  11.435  0.00  0.00    +0.000 A 
ATOM     29  N   UNL     1      43.461   5.383  12.044  0.00  0.00    +0.000 N 
ATOM     30  C   UNL     1      44.415   4.769  12.824  0.00  0.00    +0.000 A 
ATOM     31  O   UNL     1      44.216   3.662  13.308  0.00  0.00    +0.000 OA
ATOM     32  C   UNL     1      45.630   5.547  12.997  0.00  0.00    +0.000 A 
ATOM     33  H   UNL     1      42.601   4.871  11.914  0.00  0.00    +0.000 HD
ENDBRANCH  20  23
ENDBRANCH   1  19
BRANCH   1  34
ATOM     34  N   UNL     1      46.788   3.753  18.017  0.00  0.00    +0.000 NA
ATOM     35  H   UNL     1      46.051   3.073  18.195  0.00  0.00    +0.000 HD
ATOM     36  H   UNL     1      46.295   4.597  17.719  0.00  0.00    +0.000 HD
ENDBRANCH   1  34
TORSDOF 6
ENDMDL
MODEL 5
REMARK VINA RESULT:    -7.679      2.751      4.902
REMARK INTER + INTRA:         -11.101
REMARK INTER:                 -10.077
REMARK INTRA:                  -1.024
REMARK UNBOUND:                -0.953
REMARK  Name = 
REMARK  6 active torsions:
REMARK  status: ('A' for Active; 'I' for Inactive)
REMARK    1  A    between atoms: N_1  and  C_2
REMARK    2  A    between atoms: C_2  and  N_3
REMARK    3  A    between atoms: C_2  and  C_16
REMARK    4  A    between atoms: C_4  and  C_6
REMARK    5  A    between atoms: C_19  and  C_20
REMARK    6  A    between atoms: C_20  and  N_21
REMARK                            x       y       z     vdW  Elec       q    Type
REMARK                         _______ _______ _______ _____ _____    ______ ____
ROOT
ATOM      1  C   UNL     1      46.916   5.329  15.093  0.00  0.00    +0.000 C 
ENDROOT
BRANCH   1   2
ATOM      2  C   UNL     1      46.093   4.657  13.988  0.00  0.00    +0.000 A 
ATOM      3  C   UNL     1      44.951   5.290  13.500  0.00  0.00    +0.000 A 
ATOM      4  C   UNL     1      44.226   4.688  12.473  0.00  0.00    +0.000 A 
ATOM      5  C   UNL     1      44.641   3.459  11.954  0.00  0.00    +0.000 A 
ATOM      6  C   UNL     1      45.785   2.893  12.505  0.00  0.00    +0.000 A 
ATOM      7  N   UNL     1      46.512   3.450  13.505  0.00  0.00    +0.000 NA
BRANCH   5   8
ATOM      8  C   UNL     1      43.904   2.793  10.826  0.00  0.00    +0.000 C 
BRANCH   8   9
ATOM      9  N   UNL     1      44.812   2.379   9.779  0.00  0.00    +0.000 N 
ATOM     10  C   UNL     1      45.171   3.267   8.793  0.00  0.00    +0.000 C 
ATOM     11  O   UNL     1      44.694   4.398   8.749  0.00  0.00    +0.000 OA
ATOM     12  N   UNL     1      46.078   2.785   7.856  0.00  0.00    +0.000 N 
ATOM     13  C   UNL     1      46.651   3.745   6.908  0.00  0.00    +0.000 C 
ATOM     14  C   UNL     1      46.886   3.137   5.525  0.00  0.00    +0.000 C 
ATOM     15  C   UNL     1      47.666   1.830   5.608  0.00  0.00    +0.000 C 
ATOM     16  C   UNL     1      46.980   0.865   6.562  0.00  0.00    +0.000 C 
ATOM     17  C   UNL     1      46.761   1.492   7.934  0.00  0.00    +0.000 C 
ATOM     18  H   UNL     1      45.529   1.736  10.067  0.00  0.00    +0.000 HD
ENDBRANCH   8   9
ENDBRANCH   5   8
ENDBRANCH   1   2
BRANCH   1  19
ATOM     19  N   UNL     1      47.464   6.573  14.654  0.00  0.00    +0.000 N 
ATOM     20  C   UNL     1      48.267   6.720  13.562  0.00  0.00    +0.000 C 
ATOM     21  O   UNL     1      48.683   5.772  12.907  0.00  0.00    +0.000 OA
ATOM     22  H   UNL     1      47.246   7.361  15.251  0.00  0.00    +0.000 HD
BRANCH  20  23
ATOM     23  C   UNL     1      48.609   8.102  13.221  0.00  0.00    +0.000 A 
ATOM     24  C   UNL     1      49.925   8.538  13.244  0.00  0.00    +0.000 A 
ATOM     25  S   UNL     1      50.105  10.172  12.782  0.00  0.00    +0.000 S 
ATOM     26  C   UNL     1      48.432  10.340  12.513  0.00  0.00    +0.000 A 
ATOM     27  N   UNL     1      47.907  11.516  12.075  0.00  0.00    +0.000 NA
ATOM     28  C   UNL     1      46.628  11.497  11.899  0.00  0.00    +0.000 A 
ATOM     29  N   UNL     1      45.826  10.408  12.122  0.00  0.00    +0.000 N 
ATOM     30  C   UNL     1      46.311   9.188  12.536  0.00  0.00    +0.000 A 
ATOM     31  O   UNL     1      45.563   8.228  12.675  0.00  0.00    +0.000 OA
ATOM     32  C   UNL     1      47.744   9.170  12.776  0.00  0.00    +0.000 A 
ATOM     33  H   UNL     1      44.831  10.455  11.958  0.00  0.00    +0.000 HD
ENDBRANCH  20  23
ENDBRANCH   1  19
BRANCH   1  34
ATOM     34  N   UNL     1      48.083   4.541  15.458  0.00  0.00    +0.000 NA
ATOM     35  H   UNL     1      47.872   4.114  16.359  0.00  0.00    +0.000 HD
ATOM     36  H   UNL     1      48.827   5.212  15.658  0.00  0.00    +0.000 HD
ENDBRANCH   1  34
TORSDOF 6
ENDMDL
MODEL 6
REMARK VINA RESULT:    -7.596      2.141      3.065
REMARK INTER + INTRA:         -10.991
REMARK INTER:                 -10.392
REMARK INTRA:                  -0.598
REMARK UNBOUND:                -0.953
REMARK  Name = 
REMARK  6 active torsions:
REMARK  status: ('A' for Active; 'I' for Inactive)
REMARK    1  A    between atoms: N_1  and  C_2
REMARK    2  A    between atoms: C_2  and  N_3
REMARK    3  A    between atoms: C_2  and  C_16
REMARK    4  A    between atoms: C_4  and  C_6
REMARK    5  A    between atoms: C_19  and  C_20
REMARK    6  A    between atoms: C_20  and  N_21
REMARK                            x       y       z     vdW  Elec       q    Type
REMARK                         _______ _______ _______ _____ _____    ______ ____
ROOT
ATOM      1  C   UNL     1      47.114   4.306  15.727  0.00  0.00    +0.000 C 
ENDROOT
BRANCH   1   2
ATOM      2  C   UNL     1      46.509   4.713  14.378  0.00  0.00    +0.000 A 
ATOM      3  C   UNL     1      47.272   5.458  13.480  0.00  0.00    +0.000 A 
ATOM      4  C   UNL     1      46.728   5.798  12.243  0.00  0.00    +0.000 A 
ATOM      5  C   UNL     1      45.427   5.401  11.921  0.00  0.00    +0.000 A 
ATOM      6  C   UNL     1      44.733   4.670  12.879  0.00  0.00    +0.000 A 
ATOM      7  N   UNL     1      45.232   4.325  14.091  0.00  0.00    +0.000 NA
BRANCH   5   8
ATOM      8  C   UNL     1      44.816   5.722  10.586  0.00  0.00    +0.000 C 
BRANCH   8   9
ATOM      9  N   UNL     1      45.454   4.974   9.525  0.00  0.00    +0.000 N 
ATOM     10  C   UNL     1      45.297   3.611   9.457  0.00  0.00    +0.000 C 
ATOM     11  O   UNL     1      44.665   2.999  10.314  0.00  0.00    +0.000 OA
ATOM     12  N   UNL     1      45.917   2.990   8.379  0.00  0.00    +0.000 N 
ATOM     13  C   UNL     1      45.615   1.576   8.141  0.00  0.00    +0.000 C 
ATOM     14  C   UNL     1      46.819   0.798   7.611  0.00  0.00    +0.000 C 
ATOM     15  C   UNL     1      47.454   1.489   6.410  0.00  0.00    +0.000 C 
ATOM     16  C   UNL     1      47.794   2.933   6.750  0.00  0.00    +0.000 C 
ATOM     17  C   UNL     1      46.577   3.688   7.273  0.00  0.00    +0.000 C 
ATOM     18  H   UNL     1      45.505   5.451   8.641  0.00  0.00    +0.000 HD
ENDBRANCH   8   9
ENDBRANCH   5   8
ENDBRANCH   1   2
BRANCH   1  19
ATOM     19  N   UNL     1      48.041   5.284  16.201  0.00  0.00    +0.000 N 
ATOM     20  C   UNL     1      48.098   5.734  17.487  0.00  0.00    +0.000 C 
ATOM     21  O   UNL     1      47.282   5.414  18.343  0.00  0.00    +0.000 OA
ATOM     22  H   UNL     1      48.647   5.668  15.487  0.00  0.00    +0.000 HD
BRANCH  20  23
ATOM     23  C   UNL     1      49.208   6.641  17.781  0.00  0.00    +0.000 A 
ATOM     24  C   UNL     1      48.976   7.922  18.258  0.00  0.00    +0.000 A 
ATOM     25  S   UNL     1      50.408   8.800  18.566  0.00  0.00    +0.000 S 
ATOM     26  C   UNL     1      51.384   7.485  18.096  0.00  0.00    +0.000 A 
ATOM     27  N   UNL     1      52.740   7.567  18.141  0.00  0.00    +0.000 NA
ATOM     28  C   UNL     1      53.353   6.492  17.771  0.00  0.00    +0.000 A 
ATOM     29  N   UNL     1      52.730   5.342  17.359  0.00  0.00    +0.000 N 
ATOM     30  C   UNL     1      51.362   5.198  17.324  0.00  0.00    +0.000 A 
ATOM     31  O   UNL     1      50.849   4.135  16.996  0.00  0.00    +0.000 OA
ATOM     32  C   UNL     1      50.629   6.394  17.704  0.00  0.00    +0.000 A 
ATOM     33  H   UNL     1      53.267   4.531  17.089  0.00  0.00    +0.000 HD
ENDBRANCH  20  23
ENDBRANCH   1  19
BRANCH   1  34
ATOM     34  N   UNL     1      47.909   3.092  15.621  0.00  0.00    +0.000 NA
ATOM     35  H   UNL     1      48.878   3.369  15.772  0.00  0.00    +0.000 HD
ATOM     36  H   UNL     1      47.870   2.811  14.640  0.00  0.00    +0.000 HD
ENDBRANCH   1  34
TORSDOF 6
ENDMDL
MODEL 7
REMARK VINA RESULT:    -7.582      1.735      2.319
REMARK INTER + INTRA:         -10.972
REMARK INTER:                 -10.046
REMARK INTRA:                  -0.925
REMARK UNBOUND:                -0.953
REMARK  Name = 
REMARK  6 active torsions:
REMARK  status: ('A' for Active; 'I' for Inactive)
REMARK    1  A    between atoms: N_1  and  C_2
REMARK    2  A    between atoms: C_2  and  N_3
REMARK    3  A    between atoms: C_2  and  C_16
REMARK    4  A    between atoms: C_4  and  C_6
REMARK    5  A    between atoms: C_19  and  C_20
REMARK    6  A    between atoms: C_20  and  N_21
REMARK                            x       y       z     vdW  Elec       q    Type
REMARK                         _______ _______ _______ _____ _____    ______ ____
ROOT
ATOM      1  C   UNL     1      48.012   8.023  14.293  0.00  0.00    +0.000 C 
ENDROOT
BRANCH   1   2
ATOM      2  C   UNL     1      47.023   7.329  13.350  0.00  0.00    +0.000 A 
ATOM      3  C   UNL     1      46.767   5.967  13.503  0.00  0.00    +0.000 A 
ATOM      4  C   UNL     1      45.843   5.349  12.662  0.00  0.00    +0.000 A 
ATOM      5  C   UNL     1      45.194   6.093  11.673  0.00  0.00    +0.000 A 
ATOM      6  C   UNL     1      45.516   7.443  11.583  0.00  0.00    +0.000 A 
ATOM      7  N   UNL     1      46.411   8.074  12.382  0.00  0.00    +0.000 NA
BRANCH   5   8
ATOM      8  C   UNL     1      44.169   5.471  10.768  0.00  0.00    +0.000 C 
BRANCH   8   9
ATOM      9  N   UNL     1      44.795   4.813   9.641  0.00  0.00    +0.000 N 
ATOM     10  C   UNL     1      45.005   3.456   9.670  0.00  0.00    +0.000 C 
ATOM     11  O   UNL     1      44.718   2.788  10.660  0.00  0.00    +0.000 OA
ATOM     12  N   UNL     1      45.576   2.914   8.525  0.00  0.00    +0.000 N 
ATOM     13  C   UNL     1      45.633   1.454   8.417  0.00  0.00    +0.000 C 
ATOM     14  C   UNL     1      46.893   0.964   7.706  0.00  0.00    +0.000 C 
ATOM     15  C   UNL     1      47.102   1.676   6.374  0.00  0.00    +0.000 C 
ATOM     16  C   UNL     1      47.091   3.184   6.574  0.00  0.00    +0.000 C 
ATOM     17  C   UNL     1      45.823   3.647   7.281  0.00  0.00    +0.000 C 
ATOM     18  H   UNL     1      44.564   5.199   8.742  0.00  0.00    +0.000 HD
ENDBRANCH   8   9
ENDBRANCH   5   8
ENDBRANCH   1   2
BRANCH   1  19
ATOM     19  N   UNL     1      48.543   7.111  15.257  0.00  0.00    +0.000 N 
ATOM     20  C   UNL     1      49.327   7.473  16.312  0.00  0.00    +0.000 C 
ATOM     21  O   UNL     1      49.740   8.614  16.476  0.00  0.00    +0.000 OA
ATOM     22  H   UNL     1      48.328   6.138  15.076  0.00  0.00    +0.000 HD
BRANCH  20  23
ATOM     23  C   UNL     1      49.651   6.393  17.246  0.00  0.00    +0.000 A 
ATOM     24  C   UNL     1      48.677   5.839  18.062  0.00  0.00    +0.000 A 
ATOM     25  S   UNL     1      49.261   4.574  19.050  0.00  0.00    +0.000 S 
ATOM     26  C   UNL     1      50.829   4.711  18.399  0.00  0.00    +0.000 A 
ATOM     27  N   UNL     1      51.832   3.889  18.807  0.00  0.00    +0.000 NA
ATOM     28  C   UNL     1      52.963   4.095  18.219  0.00  0.00    +0.000 A 
ATOM     29  N   UNL     1      53.181   5.050  17.260  0.00  0.00    +0.000 N 
ATOM     30  C   UNL     1      52.194   5.886  16.792  0.00  0.00    +0.000 A 
ATOM     31  O   UNL     1      52.422   6.692  15.898  0.00  0.00    +0.000 OA
ATOM     32  C   UNL     1      50.908   5.711  17.446  0.00  0.00    +0.000 A 
ATOM     33  H   UNL     1      54.090   5.155  16.832  0.00  0.00    +0.000 HD
ENDBRANCH  20  23
ENDBRANCH   1  19
BRANCH   1  34
ATOM     34  N   UNL     1      47.367   9.048  15.099  0.00  0.00    +0.000 NA
ATOM     35  H   UNL     1      46.491   9.273  14.630  0.00  0.00    +0.000 HD
ATOM     36  H   UNL     1      47.938   9.889  14.997  0.00  0.00    +0.000 HD
ENDBRANCH   1  34
TORSDOF 6
ENDMDL
MODEL 8
REMARK VINA RESULT:    -7.482      3.622      5.058
REMARK INTER + INTRA:         -10.840
REMARK INTER:                  -9.631
REMARK INTRA:                  -1.209
REMARK UNBOUND:                -0.953
REMARK  Name = 
REMARK  6 active torsions:
REMARK  status: ('A' for Active; 'I' for Inactive)
REMARK    1  A    between atoms: N_1  and  C_2
REMARK    2  A    between atoms: C_2  and  N_3
REMARK    3  A    between atoms: C_2  and  C_16
REMARK    4  A    between atoms: C_4  and  C_6
REMARK    5  A    between atoms: C_19  and  C_20
REMARK    6  A    between atoms: C_20  and  N_21
REMARK                            x       y       z     vdW  Elec       q    Type
REMARK                         _______ _______ _______ _____ _____    ______ ____
ROOT
ATOM      1  C   UNL     1      47.174   8.549  13.814  0.00  0.00    +0.000 C 
ENDROOT
BRANCH   1   2
ATOM      2  C   UNL     1      46.211   7.659  13.021  0.00  0.00    +0.000 A 
ATOM      3  C   UNL     1      45.340   8.240  12.101  0.00  0.00    +0.000 A 
ATOM      4  C   UNL     1      44.488   7.422  11.360  0.00  0.00    +0.000 A 
ATOM      5  C   UNL     1      44.508   6.038  11.554  0.00  0.00    +0.000 A 
ATOM      6  C   UNL     1      45.400   5.543  12.498  0.00  0.00    +0.000 A 
ATOM      7  N   UNL     1      46.240   6.311  13.236  0.00  0.00    +0.000 NA
BRANCH   5   8
ATOM      8  C   UNL     1      43.628   5.120  10.753  0.00  0.00    +0.000 C 
BRANCH   8   9
ATOM      9  N   UNL     1      44.341   4.562   9.625  0.00  0.00    +0.000 N 
ATOM     10  C   UNL     1      44.752   3.251   9.655  0.00  0.00    +0.000 C 
ATOM     11  O   UNL     1      44.572   2.549  10.646  0.00  0.00    +0.000 OA
ATOM     12  N   UNL     1      45.394   2.799   8.507  0.00  0.00    +0.000 N 
ATOM     13  C   UNL     1      45.668   1.364   8.401  0.00  0.00    +0.000 C 
ATOM     14  C   UNL     1      46.985   1.067   7.686  0.00  0.00    +0.000 C 
ATOM     15  C   UNL     1      47.081   1.800   6.352  0.00  0.00    +0.000 C 
ATOM     16  C   UNL     1      46.845   3.290   6.551  0.00  0.00    +0.000 C 
ATOM     17  C   UNL     1      45.524   3.559   7.262  0.00  0.00    +0.000 C 
ATOM     18  H   UNL     1      44.052   4.907   8.726  0.00  0.00    +0.000 HD
ENDBRANCH   8   9
ENDBRANCH   5   8
ENDBRANCH   1   2
BRANCH   1  19
ATOM     19  N   UNL     1      48.231   9.042  12.988  0.00  0.00    +0.000 N 
ATOM     20  C   UNL     1      49.229   9.865  13.420  0.00  0.00    +0.000 C 
ATOM     21  O   UNL     1      49.256  10.348  14.545  0.00  0.00    +0.000 OA
ATOM     22  H   UNL     1      48.166   8.767  12.016  0.00  0.00    +0.000 HD
BRANCH  20  23
ATOM     23  C   UNL     1      50.277  10.142  12.437  0.00  0.00    +0.000 A 
ATOM     24  C   UNL     1      50.802  11.417  12.293  0.00  0.00    +0.000 A 
ATOM     25  S   UNL     1      52.034  11.514  11.116  0.00  0.00    +0.000 S 
ATOM     26  C   UNL     1      51.923   9.848  10.779  0.00  0.00    +0.000 A 
ATOM     27  N   UNL     1      52.734   9.263   9.857  0.00  0.00    +0.000 NA
ATOM     28  C   UNL     1      52.551   7.993   9.714  0.00  0.00    +0.000 A 
ATOM     29  N   UNL     1      51.629   7.255  10.411  0.00  0.00    +0.000 N 
ATOM     30  C   UNL     1      50.806   7.793  11.374  0.00  0.00    +0.000 A 
ATOM     31  O   UNL     1      50.031   7.086  12.007  0.00  0.00    +0.000 OA
ATOM     32  C   UNL     1      50.956   9.227  11.549  0.00  0.00    +0.000 A 
ATOM     33  H   UNL     1      51.540   6.261  10.258  0.00  0.00    +0.000 HD
ENDBRANCH  20  23
ENDBRANCH   1  19
BRANCH   1  34
ATOM     34  N   UNL     1      47.864   7.808  14.859  0.00  0.00    +0.000 NA
ATOM     35  H   UNL     1      48.009   6.867  14.496  0.00  0.00    +0.000 HD
ATOM     36  H   UNL     1      47.189   7.690  15.617  0.00  0.00    +0.000 HD
ENDBRANCH   1  34
TORSDOF 6
ENDMDL
MODEL 9
REMARK VINA RESULT:    -7.377      3.474      4.870
REMARK INTER + INTRA:         -10.701
REMARK INTER:                  -9.497
REMARK INTRA:                  -1.205
REMARK UNBOUND:                -0.953
REMARK  Name = 
REMARK  6 active torsions:
REMARK  status: ('A' for Active; 'I' for Inactive)
REMARK    1  A    between atoms: N_1  and  C_2
REMARK    2  A    between atoms: C_2  and  N_3
REMARK    3  A    between atoms: C_2  and  C_16
REMARK    4  A    between atoms: C_4  and  C_6
REMARK    5  A    between atoms: C_19  and  C_20
REMARK    6  A    between atoms: C_20  and  N_21
REMARK                            x       y       z     vdW  Elec       q    Type
REMARK                         _______ _______ _______ _____ _____    ______ ____
ROOT
ATOM      1  C   UNL     1      48.661   7.024  14.771  0.00  0.00    +0.000 C 
ENDROOT
BRANCH   1   2
ATOM      2  C   UNL     1      47.548   6.659  13.782  0.00  0.00    +0.000 A 
ATOM      3  C   UNL     1      47.169   7.578  12.805  0.00  0.00    +0.000 A 
ATOM      4  C   UNL     1      46.178   7.228  11.888  0.00  0.00    +0.000 A 
ATOM      5  C   UNL     1      45.571   5.971  11.964  0.00  0.00    +0.000 A 
ATOM      6  C   UNL     1      46.002   5.120  12.976  0.00  0.00    +0.000 A 
ATOM      7  N   UNL     1      46.961   5.430  13.883  0.00  0.00    +0.000 NA
BRANCH   5   8
ATOM      8  C   UNL     1      44.522   5.545  10.976  0.00  0.00    +0.000 C 
BRANCH   8   9
ATOM      9  N   UNL     1      45.114   4.867   9.844  0.00  0.00    +0.000 N 
ATOM     10  C   UNL     1      45.113   3.494   9.791  0.00  0.00    +0.000 C 
ATOM     11  O   UNL     1      44.665   2.820  10.715  0.00  0.00    +0.000 OA
ATOM     12  N   UNL     1      45.669   2.939   8.644  0.00  0.00    +0.000 N 
ATOM     13  C   UNL     1      45.512   1.497   8.440  0.00  0.00    +0.000 C 
ATOM     14  C   UNL     1      46.727   0.861   7.767  0.00  0.00    +0.000 C 
ATOM     15  C   UNL     1      47.128   1.609   6.501  0.00  0.00    +0.000 C 
ATOM     16  C   UNL     1      47.332   3.086   6.803  0.00  0.00    +0.000 C 
ATOM     17  C   UNL     1      46.105   3.698   7.470  0.00  0.00    +0.000 C 
ATOM     18  H   UNL     1      45.002   5.336   8.962  0.00  0.00    +0.000 HD
ENDBRANCH   8   9
ENDBRANCH   5   8
ENDBRANCH   1   2
BRANCH   1  19
ATOM     19  N   UNL     1      49.890   7.299  14.097  0.00  0.00    +0.000 N 
ATOM     20  C   UNL     1      50.494   8.521  14.062  0.00  0.00    +0.000 C 
ATOM     21  O   UNL     1      49.980   9.533  14.523  0.00  0.00    +0.000 OA
ATOM     22  H   UNL     1      50.277   6.511  13.593  0.00  0.00    +0.000 HD
BRANCH  20  23
ATOM     23  C   UNL     1      51.811   8.547  13.423  0.00  0.00    +0.000 A 
ATOM     24  C   UNL     1      52.948   8.872  14.147  0.00  0.00    +0.000 A 
ATOM     25  S   UNL     1      54.381   8.810  13.220  0.00  0.00    +0.000 S 
ATOM     26  C   UNL     1      53.529   8.322  11.829  0.00  0.00    +0.000 A 
ATOM     27  N   UNL     1      54.178   8.072  10.660  0.00  0.00    +0.000 NA
ATOM     28  C   UNL     1      53.410   7.696   9.692  0.00  0.00    +0.000 A 
ATOM     29  N   UNL     1      52.050   7.548   9.789  0.00  0.00    +0.000 N 
ATOM     30  C   UNL     1      51.350   7.759  10.954  0.00  0.00    +0.000 A 
ATOM     31  O   UNL     1      50.142   7.566  11.007  0.00  0.00    +0.000 OA
ATOM     32  C   UNL     1      52.170   8.212  12.065  0.00  0.00    +0.000 A 
ATOM     33  H   UNL     1      51.506   7.242   8.995  0.00  0.00    +0.000 HD
ENDBRANCH  20  23
ENDBRANCH   1  19
BRANCH   1  34
ATOM     34  N   UNL     1      48.987   5.915  15.655  0.00  0.00    +0.000 NA
ATOM     35  H   UNL     1      48.710   6.204  16.593  0.00  0.00    +0.000 HD
ATOM     36  H   UNL     1      50.007   5.870  15.689  0.00  0.00    +0.000 HD
ENDBRANCH   1  34
TORSDOF 6
ENDMDL
